REMARK  Name = ZINC16035089
REMARK  3 active torsions:
REMARK  status: ('A' for Active; 'I' for Inactive)
REMARK    1  A    between atoms: C_1  and  C_2
REMARK    2  A    between atoms: C_2  and  C_4
REMARK    3  A    between atoms: N_23  and  C_26
REMARK                            x       y       z     vdW  Elec       q    Type
REMARK                         _______ _______ _______ _____ _____    ______ ____
ROOT
ATOM      1  C   UNL     1      -0.000  -0.750  -1.307  0.00  0.00    +0.135 C 
ATOM      2  C   UNL     1       1.390  -0.769  -1.937  0.00  0.00    +0.116 C 
ATOM      3  C   UNL     1       1.097  -1.871  -3.016  0.00  0.00    +0.113 C 
ATOM      4  C   UNL     1       0.246  -2.882  -2.365  0.00  0.00    +0.100 C 
ATOM      5  N   UNL     1      -0.216  -2.240  -1.093  0.00  0.00    -0.384 NA
ATOM      6  C   UNL     1       0.547  -2.534   0.019  0.00  0.00    +0.054 C 
ATOM      7  C   UNL     1       1.348  -3.558   0.195  0.00  0.00    +0.022 C 
ATOM      8  C   UNL     1       1.487  -4.529  -0.910  0.00  0.00    -0.019 A 
ATOM      9  C   UNL     1       0.969  -4.184  -2.127  0.00  0.00    -0.021 A 
ATOM     10  C   UNL     1       1.096  -5.084  -3.171  0.00  0.00    +0.006 A 
ATOM     11  C   UNL     1       1.757  -6.283  -2.979  0.00  0.00    +0.000 A 
ATOM     12  C   UNL     1       2.300  -6.599  -1.747  0.00  0.00    +0.001 A 
ATOM     13  C   UNL     1       2.139  -5.744  -0.728  0.00  0.00    +0.008 A 
ATOM     14  C   UNL     1       2.209  -1.724  -3.919  0.00  0.00    +0.232 C 
ATOM     15  O   UNL     1       2.798  -2.591  -4.528  0.00  0.00    -0.274 OA
ATOM     16  N   UNL     1       2.449  -0.366  -3.930  0.00  0.00    -0.210 N 
ATOM     17  C   UNL     1       1.840   0.297  -2.883  0.00  0.00    +0.232 C 
ATOM     18  O   UNL     1       1.692   1.494  -2.753  0.00  0.00    -0.274 OA
ATOM     19  H   UNL     1      -1.192  -2.436  -0.927  0.00  0.00    +0.127 HD
ENDROOT
BRANCH  16  20
ATOM     20  C   UNL     1       3.238   0.276  -4.895  0.00  0.00    +0.045 A 
ATOM     21  C   UNL     1       3.824  -0.460  -5.916  0.00  0.00    +0.024 A 
ATOM     22  C   UNL     1       4.601   0.174  -6.865  0.00  0.00    +0.003 A 
ATOM     23  C   UNL     1       4.795   1.542  -6.801  0.00  0.00    +0.020 A 
ATOM     24  C   UNL     1       4.212   2.279  -5.785  0.00  0.00    +0.043 A 
ATOM     25  C   UNL     1       3.430   1.649  -4.834  0.00  0.00    +0.044 A 
ATOM     26 CL   UNL     1       4.459   3.995  -5.706  0.00  0.00    -0.083 Cl
ENDBRANCH  16  20
BRANCH   1  28
ATOM     27  C   UNL     1      -1.293   0.236   0.735  0.00  0.00    +0.088 C 
ATOM     28  C   UNL     1       0.002  -0.004   0.002  0.00  0.00    +0.150 C 
ATOM     29  O   UNL     1       1.041   0.402   0.464  0.00  0.00    -0.296 OA
ENDBRANCH   1  28
TORSDOF 2
