REMARK  Name = ZINC22817399
REMARK  8 active torsions:
REMARK  status: ('A' for Active; 'I' for Inactive)
REMARK    1  A    between atoms: C_1  and  C_2
REMARK    2  A    between atoms: C_2  and  C_4
REMARK    3  A    between atoms: C_2  and  N_13
REMARK    4  A    between atoms: N_9  and  C_10
REMARK    5  A    between atoms: N_16  and  C_19
REMARK    6  A    between atoms: C_19  and  C_21
REMARK    7  A    between atoms: C_19  and  C_22
REMARK    8  A    between atoms: N_27  and  C_28
REMARK                            x       y       z     vdW  Elec       q    Type
REMARK                         _______ _______ _______ _____ _____    ______ ____
ROOT
ATOM      1  N   UNL     1      -5.869   1.845   0.000  0.00  0.00    +0.389 N 
ATOM      2  C   UNL     1      -5.686   2.820   1.085  0.00  0.00    -0.062 C 
ATOM      3  C   UNL     1      -6.753   3.911   0.972  0.00  0.00    +0.066 C 
ATOM      4  N   UNL     1      -8.087   3.297   1.039  0.00  0.00    -0.295 NA
ATOM      5  C   UNL     1      -8.270   2.322  -0.045  0.00  0.00    +0.066 C 
ATOM      6  C   UNL     1      -7.203   1.231   0.067  0.00  0.00    -0.062 C 
ATOM      7  H   UNL     1      -5.790   2.382  -0.956  0.00  0.00    -0.081 HD
ENDROOT
BRANCH   1   9
ATOM      8  C   UNL     1      -5.099  -0.169   1.161  0.00  0.00    -0.004 C 
ATOM      9  C   UNL     1      -4.816   0.821   0.029  0.00  0.00    +0.017 C 
BRANCH   9  10
ATOM     10  C   UNL     1      -4.793   0.087  -1.286  0.00  0.00    +0.207 C 
ATOM     11  O   UNL     1      -5.726   0.188  -2.054  0.00  0.00    -0.277 OA
ATOM     12  N   UNL     1      -3.735  -0.682  -1.611  0.00  0.00    -0.242 N 
ATOM     13  C   UNL     1      -3.714  -1.339  -2.787  0.00  0.00    +0.306 C 
ATOM     14  O   UNL     1      -4.650  -1.238  -3.556  0.00  0.00    -0.252 OA
ATOM     15  N   UNL     1      -2.656  -2.108  -3.111  0.00  0.00    -0.296 N 
ATOM     16  H   UNL     1      -2.888  -0.774  -0.915  0.00  0.00    +0.159 HD
ATOM     17  H   UNL     1      -1.807  -2.196  -2.417  0.00  0.00    +0.151 HD
BRANCH  15  18
ATOM     18  C   UNL     1      -2.636  -2.826  -4.388  0.00  0.00    +0.075 C 
ATOM     19  C   UNL     1      -2.162  -4.281  -4.373  0.00  0.00    +0.024 C 
ATOM     20  C   UNL     1      -1.270  -3.192  -4.972  0.00  0.00    +0.024 C 
ENDBRANCH  15  18
ENDBRANCH   9  10
ENDBRANCH   1   9
BRANCH   4  21
ATOM     21  C   UNL     1      -9.139   4.321   1.010  0.00  0.00    +0.140 C 
ATOM     22  C   UNL     1      -9.015   5.144  -0.274  0.00  0.00    +0.034 C 
BRANCH  21  23
ATOM     23  C   UNL     1      -8.991   5.228   2.204  0.00  0.00    +0.237 C 
ATOM     24  O   UNL     1      -8.097   5.040   3.001  0.00  0.00    -0.274 OA
ATOM     25  N   UNL     1      -9.853   6.248   2.387  0.00  0.00    -0.239 N 
ATOM     26  C   UNL     1      -9.720   7.060   3.455  0.00  0.00    +0.306 C 
ATOM     27  O   UNL     1      -8.823   6.871   4.253  0.00  0.00    -0.252 OA
ATOM     28  N   UNL     1     -10.581   8.080   3.637  0.00  0.00    -0.296 N 
ATOM     29  H   UNL     1     -10.664   6.419   1.664  0.00  0.00    +0.159 HD
ATOM     30  H   UNL     1     -11.393   8.251   2.914  0.00  0.00    +0.151 HD
BRANCH  28  31
ATOM     31  C   UNL     1     -10.437   8.962   4.798  0.00  0.00    +0.075 C 
ATOM     32  C   UNL     1     -11.709   9.340   5.561  0.00  0.00    +0.024 C 
ATOM     33  C   UNL     1     -11.004  10.378   4.684  0.00  0.00    +0.024 C 
ENDBRANCH  28  31
ENDBRANCH  21  23
ENDBRANCH   4  21
TORSDOF 6
