REMARK  Name = ZINC21581650
REMARK  6 active torsions:
REMARK  status: ('A' for Active; 'I' for Inactive)
REMARK    1  A    between atoms: C_1  and  C_2
REMARK    2  A    between atoms: C_2  and  C_4
REMARK    3  A    between atoms: C_2  and  N_14
REMARK    4  A    between atoms: N_17  and  S_20
REMARK    5  A    between atoms: S_20  and  C_23
REMARK    6  A    between atoms: C_26  and  C_29
REMARK                            x       y       z     vdW  Elec       q    Type
REMARK                         _______ _______ _______ _____ _____    ______ ____
ROOT
ATOM      1  N   UNL     1       1.196  -2.735  -4.388  0.00  0.00    +0.389 N 
ATOM      2  C   UNL     1       2.412  -2.348  -3.659  0.00  0.00    -0.060 C 
ATOM      3  C   UNL     1       2.486  -3.132  -2.344  0.00  0.00    +0.091 C 
ATOM      4  N   UNL     1       1.229  -2.929  -1.608  0.00  0.00    -0.180 NA
ATOM      5  C   UNL     1      -0.038  -3.171  -2.315  0.00  0.00    +0.091 C 
ATOM      6  C   UNL     1      -0.013  -2.380  -3.633  0.00  0.00    -0.060 C 
ATOM      7  H   UNL     1       1.209  -3.829  -4.504  0.00  0.00    -0.081 HD
ENDROOT
BRANCH   4   8
ATOM      8  S   UNL     1       1.240  -2.448  -0.023  0.00  0.00    +0.061 S 
ATOM      9  O   UNL     1       2.497  -2.841   0.511  0.00  0.00    -0.153 OA
ATOM     10  O   UNL     1       0.006  -2.874   0.539  0.00  0.00    -0.153 OA
BRANCH   8  11
ATOM     11  C   UNL     1       1.217  -0.686  -0.013  0.00  0.00    +0.105 A 
ATOM     12  C   UNL     1       0.011  -0.011   0.004  0.00  0.00    +0.029 A 
ATOM     13  C   UNL     1      -0.007   1.371   0.013  0.00  0.00    +0.014 A 
ATOM     14  C   UNL     1       1.181   2.078   0.004  0.00  0.00    +0.055 A 
ATOM     15  C   UNL     1       2.387   1.403  -0.014  0.00  0.00    +0.014 A 
ATOM     16  C   UNL     1       2.405   0.020  -0.022  0.00  0.00    +0.029 A 
BRANCH  14  17
ATOM     17  C   UNL     1       1.161   3.585   0.013  0.00  0.00    +0.417 C 
ATOM     18  F   UNL     1       1.169   4.043   1.335  0.00  0.00    -0.166 F 
ATOM     19  F   UNL     1       2.291   4.070  -0.655  0.00  0.00    -0.166 F 
ATOM     20  F   UNL     1       0.006   4.040  -0.631  0.00  0.00    -0.166 F 
ENDBRANCH  14  17
ENDBRANCH   8  11
ENDBRANCH   4   8
BRANCH   1  22
ATOM     21  C   UNL     1       1.084  -0.614  -5.607  0.00  0.00    -0.004 C 
ATOM     22  C   UNL     1       1.174  -2.137  -5.729  0.00  0.00    +0.017 C 
BRANCH  22  23
ATOM     23  C   UNL     1      -0.021  -2.652  -6.489  0.00  0.00    +0.204 C 
ATOM     24  O   UNL     1      -0.780  -3.439  -5.964  0.00  0.00    -0.277 OA
ATOM     25  N   UNL     1      -0.248  -2.237  -7.751  0.00  0.00    -0.272 N 
ATOM     26  C   UNL     1      -1.291  -2.792  -8.491  0.00  0.00    +0.125 A 
ATOM     27  C   UNL     1      -1.453  -2.438  -9.826  0.00  0.00    +0.045 A 
ATOM     28  C   UNL     1      -2.493  -2.995 -10.549  0.00  0.00    +0.025 A 
ATOM     29  C   UNL     1      -3.338  -3.893  -9.909  0.00  0.00    +0.059 A 
ATOM     30  C   UNL     1      -3.118  -4.199  -8.580  0.00  0.00    +0.132 A 
ATOM     31  N   UNL     1      -2.114  -3.655  -7.918  0.00  0.00    -0.239 NA
ATOM     32 CL   UNL     1      -4.658  -4.621 -10.770  0.00  0.00    -0.082 Cl
ATOM     33  H   UNL     1       0.391  -1.461  -8.198  0.00  0.00    +0.156 HD
ENDBRANCH  22  23
ENDBRANCH   1  22
TORSDOF 5
