REMARK  Name = ZINC46539509
REMARK  8 active torsions:
REMARK  status: ('A' for Active; 'I' for Inactive)
REMARK    1  A    between atoms: C_1  and  N_2
REMARK    2  A    between atoms: N_2  and  C_3
REMARK    3  A    between atoms: N_2  and  C_28
REMARK    4  A    between atoms: C_3  and  C_4
REMARK    5  A    between atoms: C_9  and  N_10
REMARK    6  A    between atoms: C_11  and  C_13
REMARK    7  A    between atoms: C_14  and  C_15
REMARK    8  A    between atoms: C_18  and  N_21
REMARK                            x       y       z     vdW  Elec       q    Type
REMARK                         _______ _______ _______ _____ _____    ______ ____
ROOT
ATOM      1  N   UNL     1      -1.553  -1.972   2.070  0.00  0.00    -0.282 N 
ATOM      2  C   UNL     1      -2.831  -2.398   2.115  0.00  0.00    +0.241 C 
ATOM      3  O   UNL     1      -3.662  -1.763   2.737  0.00  0.00    -0.270 OA
ATOM      4  H   UNL     1      -0.908  -2.432   1.510  0.00  0.00    +0.155 HD
ENDROOT
BRANCH   1  10
ATOM      5  C   UNL     1      -0.056  -0.115   2.442  0.00  0.00    -0.043 A 
ATOM      6  C   UNL     1       0.329   0.980   3.192  0.00  0.00    +0.003 A 
ATOM      7  C   UNL     1      -0.377   1.322   4.331  0.00  0.00    +0.000 A 
ATOM      8  C   UNL     1      -1.470   0.571   4.723  0.00  0.00    +0.002 A 
ATOM      9  C   UNL     1      -1.860  -0.524   3.978  0.00  0.00    +0.023 A 
ATOM     10  C   UNL     1      -1.157  -0.868   2.830  0.00  0.00    +0.035 A 
BRANCH   5  11
ATOM     11  C   UNL     1       0.714  -0.488   1.202  0.00  0.00    -0.041 C 
BRANCH  11  13
ATOM     12  C   UNL     1      -0.013   1.478   0.036  0.00  0.00    -0.095 C 
ATOM     13  N   UNL     1       0.004   0.009   0.016  0.00  0.00    +0.382 N 
ATOM     14  H   UNL     1      -0.943  -0.338   0.021  0.00  0.00    -0.081 HD
BRANCH  13  15
ATOM     15  C   UNL     1       0.690  -0.456  -1.196  0.00  0.00    -0.069 C 
ATOM     16  C   UNL     1      -0.050   0.062  -2.431  0.00  0.00    -0.015 C 
ATOM     17  C   UNL     1       0.664  -0.423  -3.695  0.00  0.00    -0.002 C 
ATOM     18  C   UNL     1       0.682  -1.952  -3.715  0.00  0.00    -0.000 C 
ATOM     19  C   UNL     1       1.422  -2.470  -2.480  0.00  0.00    -0.002 C 
ATOM     20  C   UNL     1       0.708  -1.986  -1.217  0.00  0.00    -0.015 C 
ENDBRANCH  13  15
ENDBRANCH  11  13
ENDBRANCH   5  11
ENDBRANCH   1  10
BRANCH   2  21
ATOM     21  C   UNL     1      -3.218  -3.622   1.417  0.00  0.00    +0.068 C 
ATOM     22  C   UNL     1      -4.498  -4.049   1.462  0.00  0.00    +0.013 C 
BRANCH  22  23
ATOM     23  C   UNL     1      -4.888  -5.280   0.760  0.00  0.00    -0.025 A 
ATOM     24  C   UNL     1      -3.932  -6.015   0.049  0.00  0.00    +0.010 A 
ATOM     25  C   UNL     1      -4.299  -7.163  -0.605  0.00  0.00    +0.025 A 
ATOM     26  C   UNL     1      -5.621  -7.598  -0.562  0.00  0.00    +0.051 A 
ATOM     27  C   UNL     1      -6.575  -6.870   0.144  0.00  0.00    +0.025 A 
ATOM     28  C   UNL     1      -6.215  -5.724   0.805  0.00  0.00    +0.010 A 
BRANCH  26  29
ATOM     29  N   UNL     1      -5.990  -8.763  -1.227  0.00  0.00    -0.207 N 
ATOM     30  C   UNL     1      -5.317  -9.374  -2.387  0.00  0.00    +0.133 C 
ATOM     31  C   UNL     1      -5.511 -10.902  -2.391  0.00  0.00    +0.045 C 
ATOM     32  C   UNL     1      -7.024 -11.118  -2.084  0.00  0.00    +0.190 C 
ATOM     33  S   UNL     1      -7.286  -9.763  -0.869  0.00  0.00    +0.046 S 
ATOM     34  O   UNL     1      -7.057 -10.222   0.456  0.00  0.00    -0.155 OA
ATOM     35  O   UNL     1      -8.447  -9.012  -1.197  0.00  0.00    -0.155 OA
ENDBRANCH  26  29
ENDBRANCH  22  23
ENDBRANCH   2  21
TORSDOF 7
