REMARK  Name = ZINC59577894
REMARK  14 active torsions:
REMARK  status: ('A' for Active; 'I' for Inactive)
REMARK    1  A    between atoms: C_1  and  C_2
REMARK    2  A    between atoms: C_4  and  C_15
REMARK    3  A    between atoms: C_6  and  C_14
REMARK    4  A    between atoms: C_7  and  O_8
REMARK    5  A    between atoms: O_8  and  C_9
REMARK    6  A    between atoms: C_9  and  C_10
REMARK    7  A    between atoms: C_15  and  N_16
REMARK    8  A    between atoms: N_16  and  C_17
REMARK    9  A    between atoms: N_16  and  C_18
REMARK   10  A    between atoms: C_18  and  C_20
REMARK   11  A    between atoms: C_18  and  C_21
REMARK   12  A    between atoms: N_23  and  C_24
REMARK   13  A    between atoms: C_27  and  S_30
REMARK   14  A    between atoms: S_30  and  N_33
REMARK                            x       y       z     vdW  Elec       q    Type
REMARK                         _______ _______ _______ _____ _____    ______ ____
ROOT
ATOM      1  N   UNL     1       0.919  -3.348  -2.903  0.00  0.00    +0.388 N 
ATOM      2  C   UNL     1       1.613  -4.111  -1.858  0.00  0.00    -0.095 C 
ATOM      3  H   UNL     1       1.102  -2.364  -2.779  0.00  0.00    -0.081 HD
ENDROOT
BRANCH   1   4
ATOM      4  C   UNL     1       1.404  -3.773  -4.223  0.00  0.00    +0.016 C 
ATOM      5  C   UNL     1       2.927  -3.628  -4.278  0.00  0.00    -0.004 C 
BRANCH   4   6
ATOM      6  C   UNL     1       0.780  -2.910  -5.290  0.00  0.00    +0.203 C 
ATOM      7  O   UNL     1       0.435  -1.777  -5.028  0.00  0.00    -0.277 OA
ATOM      8  N   UNL     1       0.603  -3.399  -6.533  0.00  0.00    -0.287 N 
ATOM      9  H   UNL     1       0.939  -4.280  -6.761  0.00  0.00    +0.155 HD
BRANCH   8  10
ATOM     10  C   UNL     1      -0.065  -2.634  -7.497  0.00  0.00    +0.033 A 
ATOM     11  C   UNL     1      -0.897  -3.252  -8.421  0.00  0.00    +0.025 A 
ATOM     12  C   UNL     1      -1.554  -2.495  -9.370  0.00  0.00    +0.030 A 
ATOM     13  C   UNL     1      -1.385  -1.123  -9.402  0.00  0.00    +0.105 A 
ATOM     14  C   UNL     1      -0.557  -0.505  -8.483  0.00  0.00    +0.030 A 
ATOM     15  C   UNL     1       0.099  -1.256  -7.527  0.00  0.00    +0.025 A 
BRANCH  13  16
ATOM     16  S   UNL     1      -2.226  -0.161 -10.615  0.00  0.00    +0.056 S 
ATOM     17  O   UNL     1      -1.475   1.035 -10.777  0.00  0.00    -0.153 OA
ATOM     18  O   UNL     1      -2.512  -1.034 -11.699  0.00  0.00    -0.153 OA
BRANCH  16  19
ATOM     19  N   UNL     1      -3.684   0.280  -9.965  0.00  0.00    -0.204 NA
ATOM     20  H   UNL     1      -4.101   1.114 -10.232  0.00  0.00    +0.144 HD
ATOM     21  H   UNL     1      -4.121  -0.295  -9.318  0.00  0.00    +0.144 HD
ENDBRANCH  16  19
ENDBRANCH  13  16
ENDBRANCH   8  10
ENDBRANCH   4   6
ENDBRANCH   1   4
BRANCH   1  22
ATOM     22  C   UNL     1      -0.526  -3.593  -2.811  0.00  0.00    -0.042 C 
BRANCH  22  26
ATOM     23  C   UNL     1      -2.465   0.189  -0.170  0.00  0.00    +0.047 C 
ATOM     24  C   UNL     1      -1.974  -1.234  -0.244  0.00  0.00    -0.008 A 
ATOM     25  C   UNL     1      -1.497  -1.739  -1.438  0.00  0.00    +0.008 A 
ATOM     26  C   UNL     1      -1.046  -3.044  -1.507  0.00  0.00    -0.063 A 
ATOM     27  C   UNL     1      -1.072  -3.848  -0.382  0.00  0.00    +0.008 A 
ATOM     28  C   UNL     1      -1.549  -3.348   0.814  0.00  0.00    -0.008 A 
ATOM     29  C   UNL     1      -1.996  -2.036   0.887  0.00  0.00    +0.127 A 
ATOM     30  C   UNL     1      -1.577  -4.224   2.040  0.00  0.00    +0.047 C 
BRANCH  29  31
ATOM     31  O   UNL     1      -2.460  -1.540   2.065  0.00  0.00    -0.483 OA
BRANCH  31  32
ATOM     32  C   UNL     1      -3.856  -1.692   2.328  0.00  0.00    +0.342 C 
BRANCH  32  33
ATOM     33  C   UNL     1      -4.189  -1.077   3.689  0.00  0.00    +0.424 C 
ATOM     34  F   UNL     1      -3.862   0.283   3.678  0.00  0.00    -0.167 F 
ATOM     35  F   UNL     1      -5.556  -1.226   3.946  0.00  0.00    -0.167 F 
ATOM     36  F   UNL     1      -3.453  -1.726   4.686  0.00  0.00    -0.167 F 
ENDBRANCH  32  33
ENDBRANCH  31  32
ENDBRANCH  29  31
ENDBRANCH  22  26
ENDBRANCH   1  22
TORSDOF 10
