REMARK  Name = ZINC62721690
REMARK  4 active torsions:
REMARK  status: ('A' for Active; 'I' for Inactive)
REMARK    1  A    between atoms: C_1  and  C_2
REMARK    2  A    between atoms: C_4  and  C_18
REMARK    3  A    between atoms: N_5  and  C_7
REMARK    4  A    between atoms: C_10  and  C_14
REMARK                            x       y       z     vdW  Elec       q    Type
REMARK                         _______ _______ _______ _____ _____    ______ ____
ROOT
ATOM      1  C   UNL     1       0.050  -3.264   1.419  0.00  0.00    +0.136 A 
ATOM      2  C   UNL     1       0.990  -4.263   1.184  0.00  0.00    +0.152 A 
ATOM      3  C   UNL     1       1.010  -5.392   1.976  0.00  0.00    +0.055 A 
ATOM      4  C   UNL     1       0.085  -5.532   3.015  0.00  0.00    +0.069 A 
ATOM      5  C   UNL     1      -0.858  -4.526   3.248  0.00  0.00    +0.055 A 
ATOM      6  C   UNL     1      -0.869  -3.397   2.456  0.00  0.00    +0.152 A 
ATOM      7  F   UNL     1      -1.776  -2.422   2.684  0.00  0.00    -0.203 F 
ATOM      8  F   UNL     1       1.883  -4.128   0.180  0.00  0.00    -0.203 F 
ENDROOT
BRANCH   1  13
ATOM      9  C   UNL     1       0.017   1.502   0.053  0.00  0.00    +0.069 C 
ATOM     10  C   UNL     1       0.018  -0.005   0.021  0.00  0.00    +0.075 A 
ATOM     11  C   UNL     1      -0.004  -0.800  -1.132  0.00  0.00    +0.062 A 
ATOM     12  C   UNL     1       0.005  -2.096  -0.744  0.00  0.00    +0.056 A 
ATOM     13  N   UNL     1       0.033  -2.119   0.614  0.00  0.00    -0.230 N 
ATOM     14  N   UNL     1       0.045  -0.793   1.065  0.00  0.00    -0.170 NA
ATOM     15  C   UNL     1      -0.011  -3.297  -1.655  0.00  0.00    +0.067 C 
ATOM     16 BR   UNL     1      -0.041  -0.172  -2.915  0.00  0.00    -0.047 Br
ENDBRANCH   1  13
BRANCH   4  17
ATOM     17  C   UNL     1       0.104  -6.737   3.863  0.00  0.00    +0.387 C 
ATOM     18  O   UNL     1       0.929  -7.617   3.658  0.00  0.00    -0.241 OA
ATOM     19  O   UNL     1      -0.706  -6.858   4.772  0.00  0.00    -0.241 OA
ENDBRANCH   4  17
TORSDOF 2
