REMARK  Name = ZINC12446190
REMARK  2 active torsions:
REMARK  status: ('A' for Active; 'I' for Inactive)
REMARK    1  A    between atoms: C_6  and  C_7
REMARK    2  A    between atoms: C_17  and  C_19
REMARK                            x       y       z     vdW  Elec       q    Type
REMARK                         _______ _______ _______ _____ _____    ______ ____
ROOT
ATOM      1  C   UNL     1       6.076   0.908   0.344  0.00  0.00    +0.098 A 
ATOM      2  C   UNL     1       4.703   0.781   0.599  0.00  0.00    +0.018 A 
ATOM      3  C   UNL     1       4.417  -0.539   0.716  0.00  0.00    +0.043 A 
ATOM      4  N   UNL     1       5.562  -1.226   0.549  0.00  0.00    -0.281 N 
ATOM      5  H   UNL     1       5.660  -2.221   0.586  0.00  0.00    +0.189 HD
ATOM      6  N   UNL     1       6.593  -0.305   0.315  0.00  0.00    -0.173 NA
ATOM      7  C   UNL     1       3.041  -1.093   0.986  0.00  0.00    +0.074 C 
ATOM      8  C   UNL     1       2.154   0.030   1.538  0.00  0.00    +0.114 C 
ATOM      9  N   UNL     1       2.349   1.241   0.728  0.00  0.00    -0.296 N 
ATOM     10  C   UNL     1       3.679   1.877   0.727  0.00  0.00    +0.146 C 
ATOM     11  C   UNL     1       1.338   1.754  -0.001  0.00  0.00    +0.219 C 
ATOM     12  O   UNL     1       1.515   2.754  -0.665  0.00  0.00    -0.275 OA
ENDROOT
BRANCH   1  18
ATOM     13  C   UNL     1       6.202   3.245  -0.512  0.00  0.00    +0.014 A 
ATOM     14  C   UNL     1       6.888   4.429  -0.696  0.00  0.00    +0.050 A 
ATOM     15  C   UNL     1       8.191   4.558  -0.237  0.00  0.00    +0.166 A 
ATOM     16  C   UNL     1       8.810   3.492   0.414  0.00  0.00    +0.167 A 
ATOM     17  C   UNL     1       8.123   2.306   0.604  0.00  0.00    +0.059 A 
ATOM     18  C   UNL     1       6.814   2.179   0.143  0.00  0.00    +0.006 A 
ATOM     19  O   UNL     1      10.075   3.869   0.762  0.00  0.00    -0.453 OA
ATOM     20  C   UNL     1      10.083   5.307   0.681  0.00  0.00    +0.466 C 
ATOM     21  O   UNL     1       9.069   5.601  -0.298  0.00  0.00    -0.453 OA
ENDBRANCH   1  18
BRANCH  11  22
ATOM     22  C   UNL     1      -0.013   1.086   0.008  0.00  0.00    +0.082 C 
ATOM     23  C   UNL     1      -1.112   1.700  -0.863  0.00  0.00    +0.021 C 
ATOM     24  C   UNL     1      -0.459   0.381  -1.269  0.00  0.00    -0.017 C 
ATOM     25  C   UNL     1      -1.245  -0.940  -1.207  0.00  0.00    +0.008 C 
ATOM     26  C   UNL     1      -1.214  -1.467  -2.664  0.00  0.00    +0.001 C 
ATOM     27  C   UNL     1       0.210  -1.081  -3.138  0.00  0.00    +0.001 C 
ATOM     28  C   UNL     1       0.464   0.298  -2.493  0.00  0.00    +0.008 C 
ENDBRANCH  11  22
TORSDOF 2
