REMARK  Name = ZINC13254019
REMARK  9 active torsions:
REMARK  status: ('A' for Active; 'I' for Inactive)
REMARK    1  A    between atoms: C_1  and  C_2
REMARK    2  A    between atoms: C_2  and  C_3
REMARK    3  A    between atoms: C_2  and  C_24
REMARK    4  A    between atoms: C_2  and  C_30
REMARK    5  A    between atoms: C_3  and  C_4
REMARK    6  A    between atoms: N_6  and  C_7
REMARK    7  A    between atoms: C_11  and  S_13
REMARK    8  A    between atoms: S_13  and  N_16
REMARK    9  A    between atoms: N_16  and  C_17
REMARK                            x       y       z     vdW  Elec       q    Type
REMARK                         _______ _______ _______ _____ _____    ______ ____
ROOT
ATOM      1  C   UNL     1       4.340   0.087   2.171  0.00  0.00    +0.035 A 
ATOM      2  C   UNL     1       5.076   0.236   3.339  0.00  0.00    +0.023 A 
ATOM      3  C   UNL     1       6.399   0.627   3.275  0.00  0.00    +0.004 A 
ATOM      4  C   UNL     1       6.991   0.872   2.049  0.00  0.00    +0.029 A 
ATOM      5  C   UNL     1       6.261   0.725   0.884  0.00  0.00    +0.112 A 
ATOM      6  C   UNL     1       4.939   0.327   0.941  0.00  0.00    +0.052 A 
ENDROOT
BRANCH   1   9
ATOM      7  C   UNL     1       2.119   0.149   1.320  0.00  0.00    +0.219 C 
ATOM      8  O   UNL     1       2.466   0.978   0.505  0.00  0.00    -0.275 OA
ATOM      9  N   UNL     1       3.000  -0.309   2.232  0.00  0.00    -0.285 N 
ATOM     10  H   UNL     1       2.704  -0.913   2.931  0.00  0.00    +0.155 HD
BRANCH   7  11
ATOM     11  C   UNL     1       0.704  -0.369   1.313  0.00  0.00    +0.118 C 
BRANCH  11  13
ATOM     12  C   UNL     1      -0.093   1.821   0.413  0.00  0.00    +0.028 C 
ATOM     13  C   UNL     1      -0.081   0.308   0.188  0.00  0.00    +0.102 C 
BRANCH  13  14
ATOM     14  C   UNL     1      -1.497  -0.209   0.181  0.00  0.00    -0.030 A 
ATOM     15  C   UNL     1      -1.893  -1.150   1.113  0.00  0.00    +0.005 A 
ATOM     16  C   UNL     1      -3.191  -1.625   1.107  0.00  0.00    +0.000 A 
ATOM     17  C   UNL     1      -4.093  -1.159   0.169  0.00  0.00    +0.000 A 
ATOM     18  C   UNL     1      -3.697  -0.218  -0.763  0.00  0.00    +0.000 A 
ATOM     19  C   UNL     1      -2.400   0.260  -0.754  0.00  0.00    +0.005 A 
ENDBRANCH  13  14
BRANCH  13  20
ATOM     20  C   UNL     1       0.572   0.002  -1.135  0.00  0.00    +0.366 C 
ATOM     21  O   UNL     1       0.990   0.910  -1.833  0.00  0.00    -0.245 OA
ATOM     22  O   UNL     1       0.683  -1.154  -1.507  0.00  0.00    -0.245 OA
ENDBRANCH  13  20
ENDBRANCH  11  13
ENDBRANCH   7  11
ENDBRANCH   1   9
BRANCH   5  23
ATOM     23  S   UNL     1       7.019   1.038  -0.675  0.00  0.00    +0.092 S 
ATOM     24  O   UNL     1       5.971   1.358  -1.580  0.00  0.00    -0.148 OA
ATOM     25  O   UNL     1       8.107   1.918  -0.428  0.00  0.00    -0.148 OA
BRANCH  23  26
ATOM     26  N   UNL     1       7.675  -0.391  -1.196  0.00  0.00    -0.095 NA
BRANCH  26  27
ATOM     27  C   UNL     1       8.349  -0.445  -2.421  0.00  0.00    +0.109 A 
ATOM     28  C   UNL     1       8.475   0.698  -3.197  0.00  0.00    +0.029 A 
ATOM     29  C   UNL     1       9.142   0.641  -4.406  0.00  0.00    +0.002 A 
ATOM     30  C   UNL     1       9.684  -0.553  -4.843  0.00  0.00    +0.003 A 
ATOM     31  C   UNL     1       9.561  -1.695  -4.074  0.00  0.00    +0.040 A 
ATOM     32  C   UNL     1       8.900  -1.644  -2.860  0.00  0.00    +0.148 A 
ATOM     33  F   UNL     1       8.785  -2.759  -2.105  0.00  0.00    -0.203 F 
ENDBRANCH  26  27
ENDBRANCH  23  26
ENDBRANCH   5  23
TORSDOF 8
