REMARK  Name = ZINC09005631
REMARK  9 active torsions:
REMARK  status: ('A' for Active; 'I' for Inactive)
REMARK    1  A    between atoms: C_1  and  C_2
REMARK    2  A    between atoms: C_5  and  S_8
REMARK    3  A    between atoms: S_8  and  C_11
REMARK    4  A    between atoms: C_11  and  C_13
REMARK    5  A    between atoms: C_11  and  C_27
REMARK    6  A    between atoms: C_13  and  N_14
REMARK    7  A    between atoms: C_15  and  C_17
REMARK    8  A    between atoms: C_17  and  O_18
REMARK    9  A    between atoms: O_18  and  C_19
REMARK                            x       y       z     vdW  Elec       q    Type
REMARK                         _______ _______ _______ _____ _____    ______ ____
ROOT
ATOM      1  C   UNL     1       5.213  -4.262  -0.074  0.00  0.00    +0.184 C 
ENDROOT
BRANCH   1   2
ATOM      2  C   UNL     1       6.614  -4.818  -0.090  0.00  0.00    -0.003 A 
ATOM      3  C   UNL     1       7.056  -5.638   0.936  0.00  0.00    +0.008 A 
ATOM      4  C   UNL     1       8.352  -6.126   0.879  0.00  0.00    +0.020 A 
ATOM      5  C   UNL     1       9.155  -5.781  -0.192  0.00  0.00    +0.111 A 
ATOM      6  N   UNL     1       8.701  -4.998  -1.151  0.00  0.00    -0.263 NA
ATOM      7  C   UNL     1       7.472  -4.520  -1.132  0.00  0.00    +0.116 A 
ENDBRANCH   1   2
BRANCH   1   8
ATOM      8  S   UNL     1       4.321  -4.826  -1.549  0.00  0.00    +0.005 S 
ATOM      9  O   UNL     1       2.951  -4.461  -1.462  0.00  0.00    -0.169 OA
ATOM     10  O   UNL     1       5.075  -4.534  -2.718  0.00  0.00    -0.169 OA
BRANCH   8  15
ATOM     11  C   UNL     1       4.340 -10.847  -1.166  0.00  0.00    +0.044 C 
ATOM     12  C   UNL     1       4.334  -9.343  -1.263  0.00  0.00    -0.050 A 
ATOM     13  C   UNL     1       3.303  -8.618  -0.697  0.00  0.00    +0.005 A 
ATOM     14  C   UNL     1       3.298  -7.238  -0.785  0.00  0.00    +0.027 A 
ATOM     15  C   UNL     1       4.326  -6.584  -1.438  0.00  0.00    +0.089 A 
ATOM     16  C   UNL     1       5.356  -7.310  -2.008  0.00  0.00    +0.027 A 
ATOM     17  C   UNL     1       5.362  -8.689  -1.916  0.00  0.00    +0.005 A 
ENDBRANCH   8  15
ENDBRANCH   1   8
BRANCH   1  18
ATOM     18  C   UNL     1       5.271  -2.733  -0.066  0.00  0.00    +0.135 C 
BRANCH  18  19
ATOM     19  N   UNL     1       3.909  -2.193  -0.049  0.00  0.00    -0.310 N 
ATOM     20  C   UNL     1       3.713  -0.860  -0.040  0.00  0.00    +0.251 C 
ATOM     21  O   UNL     1       4.664  -0.107  -0.044  0.00  0.00    -0.272 OA
ATOM     22  H   UNL     1       3.148  -2.795  -0.045  0.00  0.00    +0.149 HD
BRANCH  20  23
ATOM     23  C   UNL     1       2.312  -0.304  -0.023  0.00  0.00    +0.324 C 
BRANCH  23  24
ATOM     24  O   UNL     1       2.366   1.123  -0.015  0.00  0.00    -0.481 OA
BRANCH  24  25
ATOM     25  C   UNL     1       1.179   1.786   0.000  0.00  0.00    +0.140 A 
ATOM     26  C   UNL     1      -0.013   1.076   0.008  0.00  0.00    +0.048 A 
ATOM     27  C   UNL     1      -1.218   1.751   0.017  0.00  0.00    +0.023 A 
ATOM     28  C   UNL     1      -1.238   3.134   0.031  0.00  0.00    +0.043 A 
ATOM     29  C   UNL     1      -0.051   3.845   0.023  0.00  0.00    +0.043 A 
ATOM     30  C   UNL     1       1.157   3.174   0.008  0.00  0.00    +0.084 A 
ATOM     31 CL   UNL     1       2.647   4.066  -0.002  0.00  0.00    -0.080 Cl
ATOM     32 CL   UNL     1      -2.754   3.979   0.049  0.00  0.00    -0.083 Cl
ENDBRANCH  24  25
ENDBRANCH  23  24
ENDBRANCH  20  23
ENDBRANCH  18  19
ENDBRANCH   1  18
TORSDOF 8
