REMARK  Name = ZINC20478052
REMARK  1 active torsions:
REMARK  status: ('A' for Active; 'I' for Inactive)
REMARK    1  A    between atoms: C_6  and  N_7
REMARK                            x       y       z     vdW  Elec       q    Type
REMARK                         _______ _______ _______ _____ _____    ______ ____
ROOT
ATOM      1  N   UNL     1      -1.203  -0.723   0.010  0.00  0.00    -0.210 N 
ATOM      2  C   UNL     1      -2.435  -0.133   0.020  0.00  0.00    +0.232 C 
ATOM      3  O   UNL     1      -2.696   1.019  -0.249  0.00  0.00    -0.274 OA
ATOM      4  C   UNL     1      -3.401  -1.210   0.433  0.00  0.00    +0.107 C 
ATOM      5  C   UNL     1      -4.737  -1.338  -0.308  0.00  0.00    +0.071 C 
ATOM      6  C   UNL     1      -5.859  -0.699   0.525  0.00  0.00    +0.021 C 
ATOM      7  C   UNL     1      -6.750  -1.872   0.990  0.00  0.00    +0.017 C 
ATOM      8  C   UNL     1      -5.791  -3.085   0.914  0.00  0.00    +0.086 C 
ATOM      9  N   UNL     1      -4.969  -2.825  -0.315  0.00  0.00    -0.281 NA
ATOM     10  C   UNL     1      -3.635  -3.487  -0.239  0.00  0.00    +0.138 C 
ATOM     11  C   UNL     1      -2.649  -2.392  -0.302  0.00  0.00    +0.123 C 
ATOM     12  C   UNL     1      -1.270  -2.094   0.003  0.00  0.00    +0.233 C 
ATOM     13  O   UNL     1      -0.371  -2.881   0.210  0.00  0.00    -0.274 OA
ATOM     14  C   UNL     1      -3.505  -4.319   1.008  0.00  0.00    +0.006 A 
ATOM     15  C   UNL     1      -3.448  -4.018   2.351  0.00  0.00    +0.046 A 
ATOM     16  C   UNL     1      -3.327  -5.028   3.290  0.00  0.00    +0.124 A 
ATOM     17  C   UNL     1      -3.249  -6.347   2.875  0.00  0.00    +0.040 A 
ATOM     18  C   UNL     1      -3.282  -6.653   1.531  0.00  0.00    +0.026 A 
ATOM     19  C   UNL     1      -3.401  -5.640   0.582  0.00  0.00    +0.039 A 
ATOM     20  N   UNL     1      -3.420  -5.701  -0.814  0.00  0.00    -0.283 N 
ATOM     21  C   UNL     1      -3.533  -4.484  -1.373  0.00  0.00    +0.243 C 
ATOM     22  O   UNL     1      -3.551  -4.234  -2.559  0.00  0.00    -0.273 OA
ATOM     23  F   UNL     1      -3.284  -4.728   4.607  0.00  0.00    -0.205 F 
ATOM     24  H   UNL     1      -3.358  -6.526  -1.320  0.00  0.00    +0.155 HD
ENDROOT
BRANCH   1  30
ATOM     25  C   UNL     1      -0.017   1.384   0.010  0.00  0.00    +0.027 A 
ATOM     26  C   UNL     1       1.170   2.090   0.002  0.00  0.00    +0.040 A 
ATOM     27  C   UNL     1       2.379   1.414  -0.013  0.00  0.00    +0.124 A 
ATOM     28  C   UNL     1       2.400   0.029  -0.021  0.00  0.00    +0.040 A 
ATOM     29  C   UNL     1       1.214  -0.680  -0.014  0.00  0.00    +0.027 A 
ATOM     30  C   UNL     1       0.002  -0.004   0.002  0.00  0.00    +0.044 A 
ATOM     31  F   UNL     1       3.539   2.106  -0.020  0.00  0.00    -0.205 F 
ENDBRANCH   1  30
TORSDOF 1
