REMARK  Name = ZINC59254132
REMARK  6 active torsions:
REMARK  status: ('A' for Active; 'I' for Inactive)
REMARK    1  A    between atoms: C_4  and  C_7
REMARK    2  A    between atoms: C_8  and  C_9
REMARK    3  A    between atoms: N_11  and  C_12
REMARK    4  A    between atoms: C_15  and  N_22
REMARK    5  A    between atoms: C_17  and  C_18
REMARK    6  A    between atoms: C_23  and  C_25
REMARK                            x       y       z     vdW  Elec       q    Type
REMARK                         _______ _______ _______ _____ _____    ______ ____
ROOT
ATOM      1  C   UNL     1       6.216  -4.797  -0.196  0.00  0.00    +0.045 A 
ATOM      2  C   UNL     1       7.437  -4.136  -0.196  0.00  0.00    +0.026 A 
ATOM      3  C   UNL     1       8.611  -4.855  -0.294  0.00  0.00    +0.025 A 
ATOM      4  C   UNL     1       8.571  -6.240  -0.392  0.00  0.00    +0.034 A 
ATOM      5  C   UNL     1       7.349  -6.901  -0.392  0.00  0.00    +0.037 A 
ATOM      6  C   UNL     1       6.176  -6.182  -0.288  0.00  0.00    +0.078 A 
ENDROOT
BRANCH   1   9
ATOM      7  C   UNL     1       4.929  -2.853  -0.673  0.00  0.00    +0.241 C 
ATOM      8  O   UNL     1       5.901  -2.355  -1.209  0.00  0.00    -0.270 OA
ATOM      9  N   UNL     1       5.025  -4.067  -0.096  0.00  0.00    -0.281 N 
ATOM     10  H   UNL     1       4.270  -4.435   0.388  0.00  0.00    +0.155 HD
BRANCH   7  12
ATOM     11  C   UNL     1       3.558  -0.918  -1.232  0.00  0.00    +0.013 C 
ATOM     12  C   UNL     1       3.654  -2.133  -0.655  0.00  0.00    +0.068 C 
BRANCH  11  16
ATOM     13  C   UNL     1      -0.136   1.167  -1.182  0.00  0.00    +0.000 A 
ATOM     14  C   UNL     1       0.968   1.737  -1.792  0.00  0.00    +0.001 A 
ATOM     15  C   UNL     1       2.172   1.065  -1.812  0.00  0.00    +0.008 A 
ATOM     16  C   UNL     1       2.276  -0.195  -1.215  0.00  0.00    -0.025 A 
ATOM     17  C   UNL     1       1.156  -0.764  -0.601  0.00  0.00    +0.008 A 
ATOM     18  C   UNL     1      -0.041  -0.080  -0.588  0.00  0.00    +0.001 A 
ENDBRANCH  11  16
ENDBRANCH   7  12
ENDBRANCH   1   9
BRANCH   6  19
ATOM     19  C   UNL     1       4.850  -6.899  -0.281  0.00  0.00    +0.419 C 
ATOM     20  F   UNL     1       5.066  -8.278  -0.384  0.00  0.00    -0.166 F 
ATOM     21  F   UNL     1       4.175  -6.621   0.912  0.00  0.00    -0.166 F 
ATOM     22  F   UNL     1       4.080  -6.466  -1.366  0.00  0.00    -0.166 F 
ENDBRANCH   6  19
BRANCH   4  23
ATOM     23  N   UNL     1       9.761  -6.970  -0.492  0.00  0.00    -0.281 N 
ATOM     24  C   UNL     1      10.862  -6.557   0.168  0.00  0.00    +0.248 C 
ATOM     25  O   UNL     1      10.845  -5.508   0.781  0.00  0.00    -0.270 OA
ATOM     26  H   UNL     1       9.794  -7.772  -1.036  0.00  0.00    +0.155 HD
BRANCH  24  27
ATOM     27  C   UNL     1      12.088  -7.380   0.145  0.00  0.00    +0.037 A 
ATOM     28  C   UNL     1      12.112  -8.582  -0.565  0.00  0.00    +0.016 A 
ATOM     29  C   UNL     1      13.260  -9.346  -0.583  0.00  0.00    +0.039 A 
ATOM     30  C   UNL     1      14.389  -8.922   0.101  0.00  0.00    +0.123 A 
ATOM     31  C   UNL     1      14.371  -7.729   0.807  0.00  0.00    +0.039 A 
ATOM     32  C   UNL     1      13.230  -6.954   0.827  0.00  0.00    +0.016 A 
ATOM     33  F   UNL     1      15.511  -9.674   0.080  0.00  0.00    -0.205 F 
ENDBRANCH  24  27
ENDBRANCH   4  23
TORSDOF 6
