REMARK  Name = ZINC09320075
REMARK  3 active torsions:
REMARK  status: ('A' for Active; 'I' for Inactive)
REMARK    1  A    between atoms: C_4  and  N_7
REMARK    2  A    between atoms: C_8  and  C_10
REMARK    3  A    between atoms: N_28  and  C_31
REMARK                            x       y       z     vdW  Elec       q    Type
REMARK                         _______ _______ _______ _____ _____    ______ ____
ROOT
ATOM      1  C   UNL     1      -3.057  -0.628  -1.676  0.00  0.00    +0.156 C 
ATOM      2  C   UNL     1      -2.591  -2.085  -1.556  0.00  0.00    +0.118 C 
ATOM      3  C   UNL     1      -1.192  -1.987  -0.874  0.00  0.00    +0.113 C 
ATOM      4  C   UNL     1      -1.266  -0.675  -0.083  0.00  0.00    +0.100 C 
ATOM      5  C   UNL     1      -2.468   1.505  -0.390  0.00  0.00    +0.054 C 
ATOM      6  C   UNL     1      -1.337   2.190  -0.130  0.00  0.00    +0.022 C 
ATOM      7  C   UNL     1      -0.035   1.497  -0.207  0.00  0.00    -0.019 A 
ATOM      8  C   UNL     1       0.024   0.098  -0.177  0.00  0.00    -0.021 A 
ATOM      9  C   UNL     1       1.238  -0.545  -0.237  0.00  0.00    +0.006 A 
ATOM     10  C   UNL     1       2.407   0.192  -0.333  0.00  0.00    +0.000 A 
ATOM     11  C   UNL     1       2.359   1.574  -0.368  0.00  0.00    +0.001 A 
ATOM     12  C   UNL     1       1.148   2.231  -0.306  0.00  0.00    +0.008 A 
ATOM     13  C   UNL     1      -1.278  -3.149   0.124  0.00  0.00    +0.232 C 
ATOM     14  O   UNL     1      -0.333  -3.700   0.647  0.00  0.00    -0.274 OA
ATOM     15  N   UNL     1      -2.570  -3.458   0.310  0.00  0.00    -0.210 N 
ATOM     16  C   UNL     1      -3.413  -2.820  -0.519  0.00  0.00    +0.232 C 
ATOM     17  O   UNL     1      -4.623  -2.831  -0.449  0.00  0.00    -0.274 OA
ATOM     18  N   UNL     1      -2.495  -0.012  -0.444  0.00  0.00    -0.383 NA
ATOM     19  H   UNL     1      -3.155  -0.271   0.299  0.00  0.00    +0.127 HD
ENDROOT
BRANCH  15  20
ATOM     20  C   UNL     1      -3.004  -4.370   1.285  0.00  0.00    +0.048 A 
ATOM     21  C   UNL     1      -3.605  -5.561   0.903  0.00  0.00    +0.028 A 
ATOM     22  C   UNL     1      -4.032  -6.460   1.861  0.00  0.00    +0.051 A 
ATOM     23  C   UNL     1      -3.862  -6.175   3.207  0.00  0.00    +0.166 A 
ATOM     24  C   UNL     1      -3.259  -4.980   3.593  0.00  0.00    +0.168 A 
ATOM     25  C   UNL     1      -2.826  -4.083   2.631  0.00  0.00    +0.073 A 
ATOM     26  O   UNL     1      -3.209  -4.937   4.957  0.00  0.00    -0.453 OA
ATOM     27  C   UNL     1      -3.414  -6.294   5.391  0.00  0.00    +0.466 C 
ATOM     28  O   UNL     1      -4.189  -6.880   4.329  0.00  0.00    -0.453 OA
ENDBRANCH  15  20
BRANCH   1  30
ATOM     29  N   UNL     1      -5.427  -0.859  -2.345  0.00  0.00    -0.284 N 
ATOM     30  C   UNL     1      -4.533  -0.539  -1.388  0.00  0.00    +0.237 C 
ATOM     31  O   UNL     1      -4.917  -0.178  -0.295  0.00  0.00    -0.273 OA
ATOM     32  H   UNL     1      -5.122  -1.083  -3.238  0.00  0.00    +0.155 HD
BRANCH  29  36
ATOM     33  C   UNL     1      -9.499  -0.886  -1.466  0.00  0.00    +0.000 A 
ATOM     34  C   UNL     1      -8.671   0.047  -0.869  0.00  0.00    +0.002 A 
ATOM     35  C   UNL     1      -7.321   0.058  -1.158  0.00  0.00    +0.023 A 
ATOM     36  C   UNL     1      -6.795  -0.868  -2.049  0.00  0.00    +0.033 A 
ATOM     37  C   UNL     1      -7.630  -1.801  -2.650  0.00  0.00    +0.023 A 
ATOM     38  C   UNL     1      -8.979  -1.810  -2.353  0.00  0.00    +0.002 A 
ENDBRANCH  29  36
ENDBRANCH   1  30
TORSDOF 3
