REMARK  Name = ZINC12867760
REMARK  5 active torsions:
REMARK  status: ('A' for Active; 'I' for Inactive)
REMARK    1  A    between atoms: C_1  and  C_2
REMARK    2  A    between atoms: C_16  and  N_17
REMARK    3  A    between atoms: C_16  and  N_60
REMARK    4  A    between atoms: N_20  and  C_28
REMARK    5  A    between atoms: C_21  and  C_23
REMARK                            x       y       z     vdW  Elec       q    Type
REMARK                         _______ _______ _______ _____ _____    ______ ____
ROOT
ATOM      1  C   UNL     1      -3.228  -3.590  -1.997  0.00  0.00    -0.008 C 
ATOM      2  C   UNL     1      -4.745  -3.398  -2.061  0.00  0.00    -0.038 C 
ATOM      3  C   UNL     1      -5.227  -3.711  -3.453  0.00  0.00    -0.054 A 
ATOM      4  C   UNL     1      -4.686  -4.806  -4.110  0.00  0.00    +0.051 A 
ATOM      5  C   UNL     1      -5.101  -5.134  -5.390  0.00  0.00    +0.162 A 
ATOM      6  C   UNL     1      -6.072  -4.362  -6.018  0.00  0.00    +0.162 A 
ATOM      7  C   UNL     1      -6.607  -3.267  -5.359  0.00  0.00    +0.053 A 
ATOM      8  C   UNL     1      -6.184  -2.940  -4.079  0.00  0.00    -0.038 A 
ATOM      9  C   UNL     1      -6.786  -1.735  -3.407  0.00  0.00    -0.018 C 
ATOM     10  C   UNL     1      -8.306  -1.710  -3.654  0.00  0.00    +0.010 C 
ATOM     11  C   UNL     1      -8.634  -0.207  -3.842  0.00  0.00    +0.001 C 
ATOM     12  C   UNL     1      -7.408   0.315  -4.631  0.00  0.00    +0.001 C 
ATOM     13  C   UNL     1      -6.213  -0.451  -4.025  0.00  0.00    +0.010 C 
ATOM     14  C   UNL     1      -6.508  -1.761  -1.906  0.00  0.00    -0.064 C 
ATOM     15  O   UNL     1      -6.505  -4.673  -7.264  0.00  0.00    -0.485 OA
ATOM     16  C   UNL     1      -5.766  -5.602  -8.043  0.00  0.00    +0.270 C 
ATOM     17  C   UNL     1      -5.179  -6.714  -7.187  0.00  0.00    +0.270 C 
ATOM     18  O   UNL     1      -4.555  -6.204  -6.019  0.00  0.00    -0.485 OA
ATOM     19  N   UNL     1      -5.063  -2.002  -1.717  0.00  0.00    +0.398 N 
ATOM     20  H   UNL     1      -4.535  -1.376  -2.336  0.00  0.00    -0.078 HD
ENDROOT
BRANCH  19  21
ATOM     21  C   UNL     1      -4.682  -1.727  -0.314  0.00  0.00    +0.072 C 
BRANCH  21  22
ATOM     22  N   UNL     1      -4.697  -0.278  -0.094  0.00  0.00    -0.257 N 
ATOM     23  C   UNL     1      -3.699   0.582  -0.380  0.00  0.00    +0.176 A 
ATOM     24  S   UNL     1      -2.183   0.178  -1.065  0.00  0.00    -0.011 S 
ATOM     25  N   UNL     1      -4.111   1.818  -0.035  0.00  0.00    -0.304 N 
ATOM     26  C   UNL     1      -5.389   1.719   0.484  0.00  0.00    +0.198 A 
ATOM     27  N   UNL     1      -5.753   0.465   0.450  0.00  0.00    -0.149 NA
ATOM     28  C   UNL     1      -3.337   3.053  -0.181  0.00  0.00    +0.153 C 
BRANCH  26  29
ATOM     29  C   UNL     1      -6.204   2.839   0.984  0.00  0.00    +0.172 A 
ATOM     30  C   UNL     1      -7.329   2.733   1.744  0.00  0.00    +0.053 A 
ATOM     31  C   UNL     1      -7.777   4.045   1.990  0.00  0.00    +0.042 A 
ATOM     32  C   UNL     1      -6.915   4.880   1.376  0.00  0.00    +0.196 A 
ATOM     33  O   UNL     1      -5.966   4.148   0.769  0.00  0.00    -0.460 OA
ENDBRANCH  26  29
ENDBRANCH  21  22
ENDBRANCH  19  21
TORSDOF 3
