REMARK  Name = ZINC01934915
REMARK  5 active torsions:
REMARK  status: ('A' for Active; 'I' for Inactive)
REMARK    1  A    between atoms: C_1  and  C_2
REMARK    2  A    between atoms: C_9  and  N_14
REMARK    3  A    between atoms: C_10  and  C_11
REMARK    4  A    between atoms: C_15  and  C_17
REMARK    5  A    between atoms: C_18  and  C_19
REMARK                            x       y       z     vdW  Elec       q    Type
REMARK                         _______ _______ _______ _____ _____    ______ ____
ROOT
ATOM      1  C   UNL     1      -5.306  -0.901  -4.663  0.00  0.00    +0.008 C 
ATOM      2  C   UNL     1      -4.351  -0.675  -3.489  0.00  0.00    -0.009 C 
ATOM      3  C   UNL     1      -3.685   0.698  -3.627  0.00  0.00    +0.008 C 
ATOM      4  C   UNL     1      -2.555   0.833  -2.605  0.00  0.00    +0.037 C 
ATOM      5  C   UNL     1      -3.100   0.495  -1.223  0.00  0.00    -0.023 A 
ATOM      6  C   UNL     1      -4.253  -0.194  -1.079  0.00  0.00    -0.004 A 
ATOM      7  S   UNL     1      -4.477  -0.342   0.671  0.00  0.00    -0.077 S 
ATOM      8  C   UNL     1      -3.057   0.494   1.206  0.00  0.00    +0.085 A 
ATOM      9  C   UNL     1      -2.447   0.874   0.018  0.00  0.00    +0.068 A 
ATOM     10  C   UNL     1      -5.137  -0.714  -2.171  0.00  0.00    +0.046 C 
ENDROOT
BRANCH   9  11
ATOM     11  C   UNL     1      -1.187   1.624   0.017  0.00  0.00    +0.244 C 
ATOM     12  O   UNL     1      -1.204   2.841   0.023  0.00  0.00    -0.270 OA
ATOM     13  N   UNL     1      -0.011   0.966   0.007  0.00  0.00    -0.325 N 
ATOM     14  H   UNL     1       0.002  -0.004   0.002  0.00  0.00    +0.145 HD
ATOM     15  H   UNL     1       0.822   1.462   0.002  0.00  0.00    +0.145 HD
ENDBRANCH   9  11
BRANCH   8  16
ATOM     16  N   UNL     1      -2.634   0.728   2.504  0.00  0.00    -0.276 N 
ATOM     17  C   UNL     1      -3.365   0.278   3.543  0.00  0.00    +0.241 C 
ATOM     18  O   UNL     1      -4.397  -0.335   3.340  0.00  0.00    -0.270 OA
ATOM     19  H   UNL     1      -1.811   1.216   2.666  0.00  0.00    +0.156 HD
BRANCH  17  20
ATOM     20  C   UNL     1      -2.919   0.525   4.914  0.00  0.00    +0.068 C 
ATOM     21  C   UNL     1      -3.651   0.074   5.953  0.00  0.00    +0.013 C 
BRANCH  21  22
ATOM     22  C   UNL     1      -3.201   0.323   7.332  0.00  0.00    -0.025 A 
ATOM     23  C   UNL     1      -2.013   1.022   7.569  0.00  0.00    +0.009 A 
ATOM     24  C   UNL     1      -1.601   1.255   8.863  0.00  0.00    +0.020 A 
ATOM     25  C   UNL     1      -2.356   0.791   9.928  0.00  0.00    +0.041 A 
ATOM     26  C   UNL     1      -3.531   0.094   9.701  0.00  0.00    +0.020 A 
ATOM     27  C   UNL     1      -3.958  -0.143   8.412  0.00  0.00    +0.009 A 
ATOM     28 CL   UNL     1      -1.825   1.084  11.555  0.00  0.00    -0.084 Cl
ENDBRANCH  21  22
ENDBRANCH  17  20
ENDBRANCH   8  16
TORSDOF 4
