REMARK  Name = ZINC01326683
REMARK  4 active torsions:
REMARK  status: ('A' for Active; 'I' for Inactive)
REMARK    1  A    between atoms: C_6  and  N_7
REMARK    2  A    between atoms: C_8  and  C_10
REMARK    3  A    between atoms: C_15  and  C_30
REMARK    4  A    between atoms: C_18  and  C_21
REMARK                            x       y       z     vdW  Elec       q    Type
REMARK                         _______ _______ _______ _____ _____    ______ ____
ROOT
ATOM      1  C   UNL     1      -2.452  -2.813  -0.202  0.00  0.00    +0.149 A 
ATOM      2  C   UNL     1      -2.581  -4.216  -0.315  0.00  0.00    +0.078 A 
ATOM      3  C   UNL     1      -3.896  -4.499  -0.383  0.00  0.00    +0.119 A 
ATOM      4  N   UNL     1      -4.589  -3.324  -0.314  0.00  0.00    -0.238 N 
ATOM      5  N   UNL     1      -3.664  -2.287  -0.198  0.00  0.00    -0.164 NA
ATOM      6  C   UNL     1      -6.052  -3.239  -0.354  0.00  0.00    +0.215 C 
ATOM      7  C   UNL     1      -6.638  -4.609   0.003  0.00  0.00    +0.063 C 
ATOM      8  C   UNL     1      -5.969  -5.699  -0.841  0.00  0.00    +0.104 C 
ATOM      9  N   UNL     1      -4.532  -5.738  -0.504  0.00  0.00    -0.322 N 
ATOM     10  H   UNL     1      -4.057  -6.574  -0.375  0.00  0.00    +0.148 HD
ENDROOT
BRANCH   8  11
ATOM     11  C   UNL     1      -6.600  -7.034  -0.537  0.00  0.00    -0.024 A 
ATOM     12  C   UNL     1      -6.230  -7.729   0.599  0.00  0.00    +0.009 A 
ATOM     13  C   UNL     1      -6.807  -8.953   0.882  0.00  0.00    +0.050 A 
ATOM     14  C   UNL     1      -7.757  -9.486   0.027  0.00  0.00    +0.166 A 
ATOM     15  C   UNL     1      -8.130  -8.786  -1.118  0.00  0.00    +0.167 A 
ATOM     16  C   UNL     1      -7.552  -7.557  -1.392  0.00  0.00    +0.055 A 
ATOM     17  O   UNL     1      -9.071  -9.514  -1.788  0.00  0.00    -0.453 OA
ATOM     18  C   UNL     1      -8.972 -10.849  -1.259  0.00  0.00    +0.466 C 
ATOM     19  O   UNL     1      -8.465 -10.653   0.074  0.00  0.00    -0.453 OA
ENDBRANCH   8  11
BRANCH   1  21
ATOM     20  N   UNL     1      -1.199  -0.721   0.010  0.00  0.00    -0.280 N 
ATOM     21  C   UNL     1      -1.183  -2.064  -0.099  0.00  0.00    +0.268 C 
ATOM     22  O   UNL     1      -0.123  -2.660  -0.113  0.00  0.00    -0.268 OA
ATOM     23  H   UNL     1      -2.043  -0.252   0.098  0.00  0.00    +0.155 HD
BRANCH  20  29
ATOM     24  C   UNL     1       1.072  -0.453  -0.767  0.00  0.00    +0.024 A 
ATOM     25  C   UNL     1       2.256   0.258  -0.779  0.00  0.00    +0.017 A 
ATOM     26  C   UNL     1       2.377   1.417  -0.032  0.00  0.00    +0.018 A 
ATOM     27  C   UNL     1       1.312   1.866   0.729  0.00  0.00    +0.017 A 
ATOM     28  C   UNL     1       0.126   1.159   0.746  0.00  0.00    +0.024 A 
ATOM     29  C   UNL     1       0.002  -0.004  -0.004  0.00  0.00    +0.034 A 
ATOM     30 BR   UNL     1       4.000   2.387  -0.051  0.00  0.00    -0.050 Br
ENDBRANCH  20  29
ENDBRANCH   1  21
BRANCH   6  31
ATOM     31  C   UNL     1      -6.532  -2.194   0.656  0.00  0.00    +0.412 C 
ATOM     32  F   UNL     1      -5.984  -0.948   0.333  0.00  0.00    -0.168 F 
ATOM     33  F   UNL     1      -7.928  -2.115   0.616  0.00  0.00    -0.168 F 
ATOM     34  F   UNL     1      -6.122  -2.565   1.941  0.00  0.00    -0.168 F 
ENDBRANCH   6  31
TORSDOF 4
