REMARK  Name = ZINC36600793
REMARK  20 active torsions:
REMARK  status: ('A' for Active; 'I' for Inactive)
REMARK    1  A    between atoms: C_1  and  C_2
REMARK    2  A    between atoms: C_2  and  C_3
REMARK    3  A    between atoms: C_3  and  C_4
REMARK    4  A    between atoms: C_4  and  C_5
REMARK    5  A    between atoms: C_5  and  C_6
REMARK    6  A    between atoms: N_8  and  C_9
REMARK    7  A    between atoms: N_8  and  C_16
REMARK    8  A    between atoms: C_9  and  C_10
REMARK    9  A    between atoms: C_13  and  C_15
REMARK   10  A    between atoms: C_16  and  C_18
REMARK   11  A    between atoms: C_16  and  C_21
REMARK   12  A    between atoms: C_19  and  C_20
REMARK   13  A    between atoms: N_23  and  C_24
REMARK   14  A    between atoms: C_24  and  C_25
REMARK   15  A    between atoms: C_24  and  C_26
REMARK   16  A    between atoms: C_24  and  C_27
REMARK   17  A    between atoms: C_27  and  C_28
REMARK   18  A    between atoms: C_28  and  C_29
REMARK   19  A    between atoms: C_28  and  C_30
REMARK   20  A    between atoms: C_28  and  C_31
REMARK                            x       y       z     vdW  Elec       q    Type
REMARK                         _______ _______ _______ _____ _____    ______ ____
ROOT
ATOM      1  C   UNL     1      -3.796  -7.010  -0.848  0.00  0.00    +0.185 C 
ENDROOT
BRANCH   1   2
ATOM      2  C   UNL     1      -4.956  -7.811  -1.378  0.00  0.00    +0.238 C 
ATOM      3  O   UNL     1      -6.002  -7.259  -1.647  0.00  0.00    -0.273 OA
ATOM      4  N   UNL     1      -4.832  -9.142  -1.554  0.00  0.00    -0.308 N 
ATOM      5  H   UNL     1      -4.022  -9.595  -1.272  0.00  0.00    +0.149 HD
BRANCH   4   6
ATOM      6  C   UNL     1      -5.921  -9.904  -2.170  0.00  0.00    +0.030 C 
ATOM      7  C   UNL     1      -7.139  -9.893  -1.244  0.00  0.00    +0.031 C 
ATOM      8  C   UNL     1      -6.294  -9.268  -3.510  0.00  0.00    +0.031 C 
BRANCH   6   9
ATOM      9  C   UNL     1      -5.467 -11.347  -2.398  0.00  0.00    +0.031 C 
BRANCH   9  10
ATOM     10  C   UNL     1      -3.960 -11.373  -2.661  0.00  0.00    -0.036 C 
ATOM     11  C   UNL     1      -3.209 -11.320  -1.329  0.00  0.00    +0.010 C 
ATOM     12  C   UNL     1      -3.594 -12.660  -3.403  0.00  0.00    +0.010 C 
ATOM     13  C   UNL     1      -3.571 -10.164  -3.514  0.00  0.00    +0.010 C 
ENDBRANCH   9  10
ENDBRANCH   6   9
ENDBRANCH   4   6
ENDBRANCH   1   2
BRANCH   1  16
ATOM     14  C   UNL     1      -5.117  -5.091  -0.134  0.00  0.00    +0.217 C 
ATOM     15  O   UNL     1      -5.739  -5.829   0.599  0.00  0.00    -0.276 OA
ATOM     16  N   UNL     1      -4.123  -5.583  -0.900  0.00  0.00    -0.279 N 
BRANCH  14  17
ATOM     17  C   UNL     1      -5.454  -3.623  -0.188  0.00  0.00    +0.096 C 
BRANCH  17  18
ATOM     18  C   UNL     1      -6.609  -3.329   0.771  0.00  0.00    +0.009 C 
BRANCH  18  19
ATOM     19  C   UNL     1      -6.951  -1.839   0.716  0.00  0.00    +0.000 C 
BRANCH  19  21
ATOM     20  C   UNL     1      -8.449  -0.055   1.620  0.00  0.00    +0.004 C 
ATOM     21  C   UNL     1      -8.107  -1.545   1.675  0.00  0.00    -0.003 C 
ENDBRANCH  19  21
ENDBRANCH  18  19
ENDBRANCH  17  18
ENDBRANCH  14  17
BRANCH  16  22
ATOM     22  C   UNL     1      -3.371  -4.691  -1.786  0.00  0.00    +0.183 C 
BRANCH  22  23
ATOM     23  C   UNL     1      -2.233  -4.065  -1.021  0.00  0.00    +0.122 A 
ATOM     24  C   UNL     1      -0.968  -4.519  -0.982  0.00  0.00    +0.046 A 
ATOM     25  C   UNL     1      -0.241  -3.636  -0.151  0.00  0.00    +0.045 A 
ATOM     26  C   UNL     1      -1.106  -2.695   0.269  0.00  0.00    +0.102 A 
ATOM     27  O   UNL     1      -2.310  -2.957  -0.266  0.00  0.00    -0.463 OA
ATOM     28  C   UNL     1      -0.778  -1.540   1.179  0.00  0.00    +0.086 C 
ENDBRANCH  22  23
ENDBRANCH  16  22
ENDBRANCH   1  16
BRANCH   1  29
ATOM     29  C   UNL     1      -3.519  -7.409   0.579  0.00  0.00    +0.000 C 
ATOM     30  C   UNL     1      -2.321  -7.810   0.926  0.00  0.00    -0.032 C 
ATOM     31  C   UNL     1      -2.044  -8.210   2.352  0.00  0.00    +0.035 C 
ENDBRANCH   1  29
TORSDOF 12
