REMARK  Name = ZINC39677044
REMARK  9 active torsions:
REMARK  status: ('A' for Active; 'I' for Inactive)
REMARK    1  A    between atoms: C_1  and  C_2
REMARK    2  A    between atoms: C_5  and  C_36
REMARK    3  A    between atoms: C_6  and  C_8
REMARK    4  A    between atoms: C_8  and  C_9
REMARK    5  A    between atoms: C_9  and  N_10
REMARK    6  A    between atoms: C_11  and  C_13
REMARK    7  A    between atoms: C_24  and  C_26
REMARK    8  A    between atoms: C_28  and  C_35
REMARK    9  A    between atoms: C_30  and  C_31
REMARK                            x       y       z     vdW  Elec       q    Type
REMARK                         _______ _______ _______ _____ _____    ______ ____
ROOT
ATOM      1  C   UNL     1       2.651  -5.159   5.956  0.00  0.00    +0.100 C 
ATOM      2  C   UNL     1       2.272  -4.204   7.109  0.00  0.00    +0.121 C 
ATOM      3  N   UNL     1       3.120  -4.634   8.246  0.00  0.00    -0.296 N 
ATOM      4  C   UNL     1       4.428  -4.958   7.628  0.00  0.00    +0.115 C 
ATOM      5  C   UNL     1       4.066  -5.652   6.299  0.00  0.00    -0.004 C 
ATOM      6  C   UNL     1       5.048  -5.241   5.206  0.00  0.00    -0.010 C 
ATOM      7  C   UNL     1       6.437  -5.792   5.541  0.00  0.00    -0.082 C 
ATOM      8  N   UNL     1       6.374  -7.255   5.645  0.00  0.00    +0.379 N 
ATOM      9  C   UNL     1       5.499  -7.640   6.759  0.00  0.00    -0.082 C 
ATOM     10  C   UNL     1       4.070  -7.167   6.476  0.00  0.00    -0.010 C 
ATOM     11  C   UNL     1       2.779  -4.714   9.547  0.00  0.00    +0.250 C 
ATOM     12  O   UNL     1       1.627  -4.523   9.887  0.00  0.00    -0.270 OA
ATOM     13  H   UNL     1       6.008  -7.637   4.785  0.00  0.00    -0.086 HD
ATOM     14  H   UNL     1       7.301  -7.620   5.805  0.00  0.00    -0.086 HD
ENDROOT
BRANCH  11  15
ATOM     15  C   UNL     1       3.802  -5.033  10.559  0.00  0.00    +0.087 A 
ATOM     16  C   UNL     1       5.253  -5.149  10.350  0.00  0.00    +0.058 A 
ATOM     17  C   UNL     1       5.776  -5.450  11.549  0.00  0.00    +0.103 A 
ATOM     18  O   UNL     1       4.786  -5.527  12.453  0.00  0.00    -0.455 OA
ATOM     19  C   UNL     1       3.602  -5.277  11.886  0.00  0.00    +0.220 A 
ATOM     20  C   UNL     1       7.239  -5.668  11.834  0.00  0.00    +0.086 C 
BRANCH  19  21
ATOM     21  C   UNL     1       2.271  -5.268  12.593  0.00  0.00    +0.451 C 
ATOM     22  F   UNL     1       1.714  -6.551  12.553  0.00  0.00    -0.163 F 
ATOM     23  F   UNL     1       2.453  -4.879  13.924  0.00  0.00    -0.163 F 
ATOM     24  F   UNL     1       1.411  -4.366  11.957  0.00  0.00    -0.163 F 
ENDBRANCH  19  21
ENDBRANCH  11  15
BRANCH   1  26
ATOM     25  N   UNL     1       2.545  -5.102   3.485  0.00  0.00    -0.315 N 
ATOM     26  C   UNL     1       2.656  -4.420   4.643  0.00  0.00    +0.218 C 
ATOM     27  O   UNL     1       2.761  -3.212   4.627  0.00  0.00    -0.275 OA
ATOM     28  H   UNL     1       2.461  -6.068   3.498  0.00  0.00    +0.149 HD
BRANCH  25  29
ATOM     29  C   UNL     1       2.550  -4.383   2.208  0.00  0.00    +0.109 C 
BRANCH  29  30
ATOM     30  C   UNL     1       2.412  -5.384   1.059  0.00  0.00    +0.054 C 
BRANCH  30  36
ATOM     31  C   UNL     1      -0.074  -3.233  -2.714  0.00  0.00    +0.044 C 
ATOM     32  C   UNL     1       1.228  -3.617  -2.060  0.00  0.00    -0.050 A 
ATOM     33  C   UNL     1       2.428  -3.290  -2.664  0.00  0.00    +0.003 A 
ATOM     34  C   UNL     1       3.622  -3.641  -2.063  0.00  0.00    +0.004 A 
ATOM     35  C   UNL     1       3.617  -4.319  -0.858  0.00  0.00    -0.047 A 
ATOM     36  C   UNL     1       2.417  -4.645  -0.254  0.00  0.00    -0.043 A 
ATOM     37  C   UNL     1       1.223  -4.290  -0.852  0.00  0.00    +0.007 A 
ATOM     38  C   UNL     1       4.919  -4.703  -0.204  0.00  0.00    +0.044 C 
ENDBRANCH  30  36
ENDBRANCH  29  30
ENDBRANCH  25  29
ENDBRANCH   1  26
TORSDOF 6
