REMARK  Name = ZINC40015248
REMARK  5 active torsions:
REMARK  status: ('A' for Active; 'I' for Inactive)
REMARK    1  A    between atoms: C_1  and  C_2
REMARK    2  A    between atoms: C_8  and  C_24
REMARK    3  A    between atoms: C_26  and  O_32
REMARK    4  A    between atoms: C_27  and  O_31
REMARK    5  A    between atoms: O_32  and  C_33
REMARK                            x       y       z     vdW  Elec       q    Type
REMARK                         _______ _______ _______ _____ _____    ______ ____
ROOT
ATOM      1  C   UNL     1      -0.018   1.503   0.010  0.00  0.00    +0.089 C 
ATOM      2  C   UNL     1       0.002  -0.004   0.002  0.00  0.00    +0.136 A 
ATOM      3  C   UNL     1      -1.076  -0.807   0.003  0.00  0.00    +0.091 A 
ATOM      4  C   UNL     1      -0.625  -2.147  -0.007  0.00  0.00    +0.172 A 
ATOM      5  N   UNL     1       0.683  -2.130  -0.013  0.00  0.00    -0.063 NA
ATOM      6  O   UNL     1       1.100  -0.776  -0.013  0.00  0.00    -0.358 OA
ATOM      7  N   UNL     1      -1.431  -3.284  -0.009  0.00  0.00    -0.235 N 
ATOM      8  C   UNL     1      -0.963  -4.676   0.091  0.00  0.00    +0.151 C 
ATOM      9  C   UNL     1      -2.192  -5.523   0.043  0.00  0.00    +0.072 A 
ATOM     10  C   UNL     1      -2.365  -6.978   0.090  0.00  0.00    +0.199 A 
ATOM     11  O   UNL     1      -1.461  -7.749   0.359  0.00  0.00    -0.287 OA
ATOM     12  C   UNL     1      -3.747  -7.423  -0.221  0.00  0.00    +0.067 A 
ATOM     13  C   UNL     1      -4.027  -8.776  -0.412  0.00  0.00    +0.053 A 
ATOM     14  C   UNL     1      -5.315  -9.171  -0.706  0.00  0.00    +0.124 A 
ATOM     15  C   UNL     1      -6.326  -8.223  -0.811  0.00  0.00    +0.042 A 
ATOM     16  C   UNL     1      -6.061  -6.886  -0.622  0.00  0.00    +0.050 A 
ATOM     17  C   UNL     1      -4.766  -6.462  -0.321  0.00  0.00    +0.140 A 
ATOM     18  O   UNL     1      -4.536  -5.142  -0.131  0.00  0.00    -0.450 OA
ATOM     19  C   UNL     1      -3.269  -4.689  -0.069  0.00  0.00    +0.199 A 
ATOM     20  C   UNL     1      -2.777  -3.301  -0.098  0.00  0.00    +0.289 C 
ATOM     21  O   UNL     1      -3.481  -2.315  -0.190  0.00  0.00    -0.266 OA
ATOM     22  F   UNL     1      -5.594 -10.480  -0.892  0.00  0.00    -0.205 F 
ENDROOT
BRANCH   8  23
ATOM     23  C   UNL     1      -0.058  -5.005  -1.068  0.00  0.00    -0.017 A 
ATOM     24  C   UNL     1       1.055  -5.802  -0.870  0.00  0.00    +0.055 A 
ATOM     25  C   UNL     1       1.888  -6.105  -1.934  0.00  0.00    +0.163 A 
ATOM     26  C   UNL     1       1.604  -5.606  -3.201  0.00  0.00    +0.173 A 
ATOM     27  C   UNL     1       0.487  -4.808  -3.394  0.00  0.00    +0.063 A 
ATOM     28  C   UNL     1      -0.344  -4.513  -2.328  0.00  0.00    +0.025 A 
ATOM     29 BR   UNL     1       0.096  -4.127  -5.114  0.00  0.00    -0.046 Br
BRANCH  26  30
ATOM     30  O   UNL     1       2.420  -5.901  -4.249  0.00  0.00    -0.503 OA
ATOM     31  H   UNL     1       2.172  -6.705  -4.726  0.00  0.00    +0.292 HD
ENDBRANCH  26  30
BRANCH  25  32
ATOM     32  O   UNL     1       2.983  -6.888  -1.740  0.00  0.00    -0.491 OA
ATOM     33  C   UNL     1       3.213  -7.365  -0.412  0.00  0.00    +0.277 C 
ENDBRANCH  25  32
ENDBRANCH   8  23
TORSDOF 3
