REMARK  Name = ZINC33596873
REMARK  13 active torsions:
REMARK  status: ('A' for Active; 'I' for Inactive)
REMARK    1  A    between atoms: C_4  and  C_7
REMARK    2  A    between atoms: C_7  and  S_8
REMARK    3  A    between atoms: S_8  and  C_9
REMARK    4  A    between atoms: C_9  and  C_10
REMARK    5  A    between atoms: C_10  and  C_12
REMARK    6  A    between atoms: C_10  and  N_24
REMARK    7  A    between atoms: N_14  and  C_15
REMARK    8  A    between atoms: C_18  and  N_21
REMARK    9  A    between atoms: C_25  and  C_27
REMARK   10  A    between atoms: C_30  and  CA_32
REMARK   11  A    between atoms: CA_32  and  C_34
REMARK   12  A    between atoms: CA_32  and  N_36
REMARK   13  A    between atoms: C_34  and  O_35
REMARK                            x       y       z     vdW  Elec       q    Type
REMARK                         _______ _______ _______ _____ _____    ______ ____
ROOT
ATOM      1  C   UNL     1      -1.133  -2.159  -0.005  0.00  0.00    +0.169 C 
ENDROOT
BRANCH   1   2
ATOM      2  C   UNL     1      -2.423  -2.675  -0.589  0.00  0.00    +0.238 C 
ATOM      3  O   UNL     1      -3.276  -1.896  -0.959  0.00  0.00    -0.273 OA
ATOM      4  N   UNL     1      -2.628  -4.003  -0.700  0.00  0.00    -0.284 N 
ATOM      5  H   UNL     1      -1.826  -4.707  -0.436  0.00  0.00    +0.155 HD
BRANCH   4   6
ATOM      6  C   UNL     1      -3.862  -4.484  -1.151  0.00  0.00    +0.034 A 
ATOM      7  C   UNL     1      -4.376  -5.668  -0.639  0.00  0.00    +0.025 A 
ATOM      8  C   UNL     1      -5.597  -6.138  -1.083  0.00  0.00    +0.034 A 
ATOM      9  C   UNL     1      -6.301  -5.437  -2.044  0.00  0.00    +0.126 A 
ATOM     10  C   UNL     1      -5.790  -4.260  -2.560  0.00  0.00    +0.034 A 
ATOM     11  C   UNL     1      -4.572  -3.782  -2.116  0.00  0.00    +0.025 A 
BRANCH   9  12
ATOM     12  N   UNL     1      -7.607  -5.946  -2.522  0.00  0.00    +0.056 N 
ATOM     13  O   UNL     1      -8.229  -5.329  -3.368  0.00  0.00    -0.126 OA
ATOM     14  O   UNL     1      -8.059  -6.983  -2.068  0.00  0.00    -0.126 OA
ENDBRANCH   9  12
ENDBRANCH   4   6
ENDBRANCH   1   2
BRANCH   1  15
ATOM     15  N   UNL     1      -1.154  -0.694   0.006  0.00  0.00    -0.298 N 
ATOM     16  C   UNL     1       0.003  -0.003  -0.007  0.00  0.00    +0.266 C 
ATOM     17  O   UNL     1       1.065  -0.596  -0.028  0.00  0.00    -0.268 OA
ATOM     18  H   UNL     1      -2.115  -0.158   0.026  0.00  0.00    +0.150 HD
BRANCH  16  19
ATOM     19  C   UNL     1      -0.019   1.471   0.005  0.00  0.00    +0.163 A 
ATOM     20  C   UNL     1       1.064   2.295  -0.006  0.00  0.00    +0.230 A 
ATOM     21  O   UNL     1       0.598   3.554   0.011  0.00  0.00    -0.449 OA
ATOM     22  C   UNL     1      -0.742   3.505   0.033  0.00  0.00    +0.184 A 
ATOM     23  N   UNL     1      -1.125   2.263   0.023  0.00  0.00    -0.210 NA
BRANCH  22  24
ATOM     24  CA  UNL     1      -1.659   4.701   0.058  0.00  0.00    +0.039 C 
BRANCH  24  25
ATOM     25  N   UNL     1      -1.163   5.677   1.037  0.00  0.00    +0.387 N 
ATOM     26  H1  UNL     1      -1.833   6.550   1.055  0.00  0.00    -0.089 HD
ATOM     27  H2  UNL     1      -0.150   5.998   0.754  0.00  0.00    -0.089 HD
ATOM     28  H3  UNL     1      -1.136   5.215   2.034  0.00  0.00    -0.089 HD
ENDBRANCH  24  25
BRANCH  24  29
ATOM     29  C   UNL     1      -1.696   5.344  -1.330  0.00  0.00    +0.149 C 
BRANCH  29  30
ATOM     30  O   UNL     1      -2.653   6.405  -1.338  0.00  0.00    -0.396 OA
ATOM     31  H   UNL     1      -2.820   6.988  -2.255  0.00  0.00    +0.209 HD
ENDBRANCH  29  30
ENDBRANCH  24  29
ENDBRANCH  22  24
ENDBRANCH  16  19
ENDBRANCH   1  15
BRANCH   1  32
ATOM     32  C   UNL     1      -0.977  -2.678   1.426  0.00  0.00    +0.101 C 
BRANCH  32  33
ATOM     33  S   UNL     1       0.575  -2.056   2.128  0.00  0.00    -0.154 S 
BRANCH  33  34
ATOM     34  C   UNL     1       0.609  -2.752   3.803  0.00  0.00    +0.104 C 
BRANCH  34  38
ATOM     35  C   UNL     1       4.169  -1.491   5.799  0.00  0.00    +0.000 A 
ATOM     36  C   UNL     1       3.019  -0.729   5.889  0.00  0.00    +0.000 A 
ATOM     37  C   UNL     1       1.867  -1.137   5.243  0.00  0.00    +0.004 A 
ATOM     38  C   UNL     1       1.865  -2.307   4.507  0.00  0.00    -0.038 A 
ATOM     39  C   UNL     1       3.013  -3.072   4.422  0.00  0.00    +0.004 A 
ATOM     40  C   UNL     1       4.167  -2.661   5.063  0.00  0.00    +0.000 A 
ENDBRANCH  34  38
ENDBRANCH  33  34
ENDBRANCH  32  33
ENDBRANCH   1  32
TORSDOF 13
