REMARK  Name = ZINC63138127
REMARK  4 active torsions:
REMARK  status: ('A' for Active; 'I' for Inactive)
REMARK    1  A    between atoms: C_1  and  C_2
REMARK    2  A    between atoms: C_5  and  C_8
REMARK    3  A    between atoms: N_27  and  C_30
REMARK    4  A    between atoms: C_30  and  C_31
REMARK                            x       y       z     vdW  Elec       q    Type
REMARK                         _______ _______ _______ _____ _____    ______ ____
ROOT
ATOM      1  C   UNL     1       0.059  -4.275  -0.021  0.00  0.00    +0.133 C 
ATOM      2  C   UNL     1       1.495  -4.755   0.189  0.00  0.00    +0.131 C 
ATOM      3  C   UNL     1       1.790  -4.548   1.673  0.00  0.00    -0.034 C 
ATOM      4  C   UNL     1       2.805  -3.698   1.746  0.00  0.00    -0.001 A 
ATOM      5  C   UNL     1       3.541  -3.147   2.896  0.00  0.00    +0.010 A 
ATOM      6  C   UNL     1       4.545  -2.278   2.605  0.00  0.00    +0.001 A 
ATOM      7  C   UNL     1       4.887  -1.908   1.301  0.00  0.00    +0.002 A 
ATOM      8  C   UNL     1       4.266  -2.365   0.185  0.00  0.00    +0.026 A 
ATOM      9  C   UNL     1       3.193  -3.287   0.362  0.00  0.00    +0.043 A 
ATOM     10  N   UNL     1       2.438  -3.891  -0.533  0.00  0.00    -0.375 N 
ATOM     11  C   UNL     1       0.971  -5.231   2.734  0.00  0.00    +0.065 C 
ATOM     12  C   UNL     1      -0.486  -5.204   2.350  0.00  0.00    +0.167 C 
ATOM     13  N   UNL     1      -0.835  -4.766   1.017  0.00  0.00    -0.279 N 
ATOM     14  C   UNL     1      -2.178  -4.776   0.729  0.00  0.00    +0.234 C 
ATOM     15  O   UNL     1      -2.593  -4.495  -0.376  0.00  0.00    -0.274 OA
ATOM     16  C   UNL     1      -3.116  -5.154   1.856  0.00  0.00    +0.204 C 
ATOM     17  N   UNL     1      -2.681  -4.458   3.080  0.00  0.00    -0.287 N 
ATOM     18  C   UNL     1      -1.349  -4.491   3.360  0.00  0.00    +0.237 C 
ATOM     19  O   UNL     1      -0.887  -3.980   4.358  0.00  0.00    -0.274 OA
ATOM     20  H   UNL     1       2.485  -3.787  -1.496  0.00  0.00    +0.160 HD
ENDROOT
BRANCH   1  25
ATOM     21  C   UNL     1      -0.018   1.503   0.010  0.00  0.00    +0.044 C 
ATOM     22  C   UNL     1       0.002  -0.004   0.002  0.00  0.00    -0.050 A 
ATOM     23  C   UNL     1       0.006  -0.689  -1.199  0.00  0.00    +0.004 A 
ATOM     24  C   UNL     1       0.025  -2.071  -1.206  0.00  0.00    +0.006 A 
ATOM     25  C   UNL     1       0.040  -2.768  -0.013  0.00  0.00    -0.025 A 
ATOM     26  C   UNL     1       0.037  -2.084   1.188  0.00  0.00    +0.006 A 
ATOM     27  C   UNL     1       0.023  -0.702   1.195  0.00  0.00    +0.004 A 
ENDBRANCH   1  25
BRANCH  17  28
ATOM     28  C   UNL     1      -3.633  -3.765   3.952  0.00  0.00    +0.143 C 
BRANCH  28  29
ATOM     29  C   UNL     1      -4.146  -4.723   4.996  0.00  0.00    -0.026 A 
ATOM     30  C   UNL     1      -5.275  -5.481   4.742  0.00  0.00    +0.009 A 
ATOM     31  C   UNL     1      -5.749  -6.361   5.697  0.00  0.00    +0.050 A 
ATOM     32  C   UNL     1      -5.094  -6.485   6.912  0.00  0.00    +0.166 A 
ATOM     33  C   UNL     1      -3.958  -5.722   7.167  0.00  0.00    +0.167 A 
ATOM     34  C   UNL     1      -3.485  -4.846   6.204  0.00  0.00    +0.054 A 
ATOM     35  O   UNL     1      -3.502  -6.023   8.418  0.00  0.00    -0.453 OA
ATOM     36  C   UNL     1      -4.602  -6.674   9.082  0.00  0.00    +0.466 C 
ATOM     37  O   UNL     1      -5.351  -7.264   8.003  0.00  0.00    -0.453 OA
ENDBRANCH  28  29
ENDBRANCH  17  28
TORSDOF 3
