REMARK  Name = ZINC12674389
REMARK  9 active torsions:
REMARK  status: ('A' for Active; 'I' for Inactive)
REMARK    1  A    between atoms: C_1  and  C_2
REMARK    2  A    between atoms: C_2  and  C_3
REMARK    3  A    between atoms: C_4  and  C_26
REMARK    4  A    between atoms: C_6  and  C_8
REMARK    5  A    between atoms: N_10  and  N_11
REMARK    6  A    between atoms: C_12  and  C_14
REMARK    7  A    between atoms: C_14  and  C_15
REMARK    8  A    between atoms: C_15  and  N_16
REMARK    9  A    between atoms: C_17  and  C_19
REMARK                            x       y       z     vdW  Elec       q    Type
REMARK                         _______ _______ _______ _____ _____    ______ ____
ROOT
ATOM      1  N   UNL     1       1.193   1.683  -0.000  0.00  0.00    -0.234 N 
ATOM      2  C   UNL     1       2.369   1.025  -0.015  0.00  0.00    +0.231 C 
ATOM      3  O   UNL     1       2.385  -0.188  -0.022  0.00  0.00    -0.274 OA
ATOM      4  H   UNL     1       1.179   2.653   0.005  0.00  0.00    +0.173 HD
ENDROOT
BRANCH   1   7
ATOM      5  C   UNL     1      -1.187   1.624   0.017  0.00  0.00    +0.267 C 
ATOM      6  O   UNL     1      -1.204   2.841   0.023  0.00  0.00    -0.268 OA
ATOM      7  N   UNL     1      -0.011   0.966   0.007  0.00  0.00    -0.230 N 
ATOM      8  H   UNL     1       0.002  -0.004   0.002  0.00  0.00    +0.173 HD
BRANCH   5  12
ATOM      9  C   UNL     1      -4.438  -0.902   0.017  0.00  0.00    -0.007 A 
ATOM     10  C   UNL     1      -4.756   0.419   0.026  0.00  0.00    -0.040 A 
ATOM     11  C   UNL     1      -3.748   1.351   0.027  0.00  0.00    +0.024 A 
ATOM     12  C   UNL     1      -2.447   0.874   0.018  0.00  0.00    +0.076 A 
ATOM     13  S   UNL     1      -2.704  -0.892   0.002  0.00  0.00    -0.088 S 
ATOM     14  C   UNL     1      -6.198   0.856   0.036  0.00  0.00    +0.044 C 
BRANCH   9  16
ATOM     15  C   UNL     1      -5.687  -2.481  -1.431  0.00  0.00    +0.009 C 
ATOM     16  C   UNL     1      -5.367  -2.088   0.013  0.00  0.00    +0.039 C 
ENDBRANCH   9  16
ENDBRANCH   5  12
ENDBRANCH   1   7
BRANCH   2  17
ATOM     17  C   UNL     1       3.663   1.796  -0.023  0.00  0.00    +0.116 C 
BRANCH  17  18
ATOM     18  C   UNL     1       4.840   0.818  -0.040  0.00  0.00    +0.114 C 
BRANCH  18  19
ATOM     19  N   UNL     1       6.098   1.567  -0.048  0.00  0.00    -0.311 N 
ATOM     20  C   UNL     1       7.274   0.909  -0.062  0.00  0.00    +0.244 C 
ATOM     21  O   UNL     1       7.291  -0.306  -0.069  0.00  0.00    -0.270 OA
ATOM     22  H   UNL     1       6.085   2.537  -0.042  0.00  0.00    +0.149 HD
BRANCH  20  23
ATOM     23  C   UNL     1       8.544   1.666  -0.071  0.00  0.00    +0.037 A 
ATOM     24  C   UNL     1       8.528   3.062  -0.069  0.00  0.00    +0.014 A 
ATOM     25  C   UNL     1       9.717   3.762  -0.070  0.00  0.00    +0.016 A 
ATOM     26  C   UNL     1      10.924   3.083  -0.086  0.00  0.00    +0.018 A 
ATOM     27  C   UNL     1      10.946   1.698  -0.093  0.00  0.00    +0.016 A 
ATOM     28  C   UNL     1       9.764   0.987  -0.086  0.00  0.00    +0.014 A 
ATOM     29 BR   UNL     1      12.548   4.051  -0.096  0.00  0.00    -0.050 Br
ENDBRANCH  20  23
ENDBRANCH  18  19
ENDBRANCH  17  18
ENDBRANCH   2  17
TORSDOF 7
