REMARK  Name = ZINC35861251
REMARK  8 active torsions:
REMARK  status: ('A' for Active; 'I' for Inactive)
REMARK    1  A    between atoms: C_1  and  C_2
REMARK    2  A    between atoms: C_2  and  C_3
REMARK    3  A    between atoms: C_11  and  O_23
REMARK    4  A    between atoms: C_14  and  C_16
REMARK    5  A    between atoms: C_20  and  C_22
REMARK    6  A    between atoms: O_23  and  C_24
REMARK    7  A    between atoms: C_24  and  C_25
REMARK    8  A    between atoms: C_27  and  C_30
REMARK                            x       y       z     vdW  Elec       q    Type
REMARK                         _______ _______ _______ _____ _____    ______ ____
ROOT
ATOM      1  C   UNL     1      -3.168   0.015  -0.296  0.00  0.00    +0.216 C 
ATOM      2  O   UNL     1      -4.242   0.566  -0.175  0.00  0.00    -0.276 OA
ATOM      3  N   UNL     1      -3.102  -1.331  -0.336  0.00  0.00    -0.290 N 
ATOM      4  C   UNL     1      -1.814  -2.030  -0.476  0.00  0.00    +0.113 C 
ATOM      5  C   UNL     1      -1.579  -2.841   0.797  0.00  0.00    +0.054 C 
ATOM      6  C   UNL     1      -2.811  -3.626   1.169  0.00  0.00    -0.040 A 
ATOM      7  C   UNL     1      -2.648  -4.714   2.018  0.00  0.00    +0.007 A 
ATOM      8  C   UNL     1      -3.732  -5.471   2.406  0.00  0.00    +0.046 A 
ATOM      9  C   UNL     1      -5.000  -5.144   1.947  0.00  0.00    +0.121 A 
ATOM     10  C   UNL     1      -5.163  -4.061   1.099  0.00  0.00    +0.051 A 
ATOM     11  C   UNL     1      -4.067  -3.306   0.706  0.00  0.00    -0.016 A 
ATOM     12  C   UNL     1      -4.310  -2.157  -0.235  0.00  0.00    +0.137 C 
ENDROOT
BRANCH  12  13
ATOM     13  C   UNL     1      -4.664  -2.696  -1.597  0.00  0.00    -0.022 A 
ATOM     14  C   UNL     1      -5.851  -2.325  -2.200  0.00  0.00    +0.006 A 
ATOM     15  C   UNL     1      -6.176  -2.819  -3.449  0.00  0.00    +0.001 A 
ATOM     16  C   UNL     1      -5.314  -3.685  -4.095  0.00  0.00    +0.003 A 
ATOM     17  C   UNL     1      -4.126  -4.056  -3.493  0.00  0.00    -0.050 A 
ATOM     18  C   UNL     1      -3.799  -3.557  -2.245  0.00  0.00    +0.009 A 
ATOM     19  C   UNL     1      -3.186  -5.000  -4.197  0.00  0.00    +0.044 C 
ENDBRANCH  12  13
BRANCH   1  21
ATOM     20  C   UNL     1      -2.260   2.322  -0.332  0.00  0.00    +0.013 C 
ATOM     21  C   UNL     1      -1.908   0.835  -0.403  0.00  0.00    +0.092 C 
ENDBRANCH   1  21
BRANCH   9  22
ATOM     22  O   UNL     1      -6.076  -5.881   2.328  0.00  0.00    -0.485 OA
BRANCH  22  23
ATOM     23  C   UNL     1      -5.831  -6.983   3.204  0.00  0.00    +0.291 C 
BRANCH  23  24
ATOM     24  C   UNL     1      -7.131  -7.678   3.514  0.00  0.00    +0.116 A 
ATOM     25  N   UNL     1      -7.689  -8.667   2.872  0.00  0.00    -0.236 NA
ATOM     26  C   UNL     1      -8.856  -9.139   3.322  0.00  0.00    +0.133 A 
ATOM     27  C   UNL     1      -9.364  -8.525   4.435  0.00  0.00    +0.080 A 
ATOM     28  S   UNL     1      -8.198  -7.364   4.772  0.00  0.00    -0.076 S 
BRANCH  26  29
ATOM     29  C   UNL     1      -9.555 -10.252   2.658  0.00  0.00    +0.266 C 
ATOM     30  O   UNL     1     -10.688 -10.545   2.991  0.00  0.00    -0.268 OA
ATOM     31  N   UNL     1      -8.940 -10.947   1.681  0.00  0.00    -0.295 N 
ATOM     32  C   UNL     1      -9.694 -11.940   0.914  0.00  0.00    +0.119 C 
ATOM     33  C   UNL     1      -9.809 -11.479  -0.544  0.00  0.00    +0.088 C 
ATOM     34  S   UNL     1      -8.135 -11.225  -1.207  0.00  0.00    -0.158 S 
ATOM     35  C   UNL     1      -7.381 -10.092  -0.000  0.00  0.00    +0.088 C 
ATOM     36  C   UNL     1      -7.526 -10.697   1.396  0.00  0.00    +0.119 C 
ENDBRANCH  26  29
ENDBRANCH  23  24
ENDBRANCH  22  23
ENDBRANCH   9  22
TORSDOF 6
