REMARK  Name = ZINC21034669
REMARK  3 active torsions:
REMARK  status: ('A' for Active; 'I' for Inactive)
REMARK    1  A    between atoms: C_6  and  N_7
REMARK    2  A    between atoms: C_8  and  C_15
REMARK    3  A    between atoms: C_10  and  C_12
REMARK                            x       y       z     vdW  Elec       q    Type
REMARK                         _______ _______ _______ _____ _____    ______ ____
ROOT
ATOM      1  N   UNL     1       3.682   2.060  -0.028  0.00  0.00    -0.231 N 
ATOM      2  C   UNL     1       2.546   1.299  -0.015  0.00  0.00    +0.082 A 
ATOM      3  C   UNL     1       2.949  -0.011  -0.026  0.00  0.00    +0.065 A 
ATOM      4  C   UNL     1       4.360   0.031  -0.040  0.00  0.00    +0.174 A 
ATOM      5  N   UNL     1       4.718   1.301  -0.036  0.00  0.00    -0.159 NA
ENDROOT
BRANCH   1  11
ATOM      6  C   UNL     1       2.881   4.173   0.828  0.00  0.00    +0.030 A 
ATOM      7  C   UNL     1       2.914   5.554   0.829  0.00  0.00    +0.040 A 
ATOM      8  C   UNL     1       3.768   6.228  -0.028  0.00  0.00    +0.124 A 
ATOM      9  C   UNL     1       4.593   5.519  -0.885  0.00  0.00    +0.040 A 
ATOM     10  C   UNL     1       4.566   4.138  -0.887  0.00  0.00    +0.030 A 
ATOM     11  C   UNL     1       3.711   3.461  -0.027  0.00  0.00    +0.066 A 
ATOM     12  F   UNL     1       3.795   7.579  -0.029  0.00  0.00    -0.205 F 
ENDBRANCH   1  11
BRANCH   2  13
ATOM     13  C   UNL     1       1.157   1.791   0.002  0.00  0.00    +0.039 A 
ATOM     14  C   UNL     1       0.014   1.138   0.385  0.00  0.00    +0.019 A 
ATOM     15  C   UNL     1      -1.187   1.808   0.308  0.00  0.00    +0.028 A 
ATOM     16  C   UNL     1      -1.201   3.093  -0.134  0.00  0.00    +0.079 A 
ATOM     17  S   UNL     1       0.526   3.392  -0.472  0.00  0.00    -0.075 S 
ATOM     18 CL   UNL     1      -2.552   4.166  -0.326  0.00  0.00    -0.076 Cl
ENDBRANCH   2  13
BRANCH   4  19
ATOM     19  C   UNL     1       5.268  -1.132  -0.055  0.00  0.00    +0.406 C 
ATOM     20  O   UNL     1       4.812  -2.259  -0.056  0.00  0.00    -0.239 OA
ATOM     21  O   UNL     1       6.602  -0.945  -0.067  0.00  0.00    -0.239 OA
ENDBRANCH   4  19
TORSDOF 3
