REMARK  Name = ZINC66972928
REMARK  10 active torsions:
REMARK  status: ('A' for Active; 'I' for Inactive)
REMARK    1  A    between atoms: C_1  and  C_2
REMARK    2  A    between atoms: C_2  and  C_4
REMARK    3  A    between atoms: C_2  and  N_17
REMARK    4  A    between atoms: C_7  and  N_10
REMARK    5  A    between atoms: N_13  and  C_14
REMARK    6  A    between atoms: N_17  and  C_18
REMARK    7  A    between atoms: C_18  and  C_19
REMARK    8  A    between atoms: C_22  and  O_26
REMARK    9  A    between atoms: O_26  and  C_27
REMARK   10  A    between atoms: C_27  and  C_28
REMARK                            x       y       z     vdW  Elec       q    Type
REMARK                         _______ _______ _______ _____ _____    ______ ____
ROOT
ATOM      1  C   UNL     1       0.162   1.539  -0.084  0.00  0.00    -0.009 C 
ATOM      2  C   UNL     1       0.000   0.020   0.013  0.00  0.00    -0.044 C 
ENDROOT
BRANCH   2   3
ATOM      3  C   UNL     1       0.730  -0.485   1.231  0.00  0.00    -0.062 A 
ATOM      4  C   UNL     1       0.143  -0.382   2.479  0.00  0.00    +0.004 A 
ATOM      5  C   UNL     1       0.809  -0.845   3.597  0.00  0.00    +0.023 A 
ATOM      6  C   UNL     1       2.069  -1.414   3.467  0.00  0.00    +0.035 A 
ATOM      7  C   UNL     1       2.655  -1.516   2.213  0.00  0.00    +0.023 A 
ATOM      8  C   UNL     1       1.982  -1.057   1.098  0.00  0.00    +0.004 A 
BRANCH   6   9
ATOM      9  N   UNL     1       2.746  -1.883   4.598  0.00  0.00    -0.269 N 
ATOM     10  C   UNL     1       2.054  -2.412   5.627  0.00  0.00    +0.304 C 
ATOM     11  O   UNL     1       0.853  -2.571   5.534  0.00  0.00    -0.253 OA
ATOM     12  N   UNL     1       2.695  -2.765   6.759  0.00  0.00    -0.296 N 
ATOM     13  H   UNL     1       3.713  -1.827   4.642  0.00  0.00    +0.156 HD
ATOM     14  H   UNL     1       3.654  -2.639   6.833  0.00  0.00    +0.151 HD
BRANCH  12  15
ATOM     15  C   UNL     1       1.943  -3.341   7.877  0.00  0.00    +0.075 C 
ATOM     16  C   UNL     1       2.270  -2.834   9.283  0.00  0.00    +0.024 C 
ATOM     17  C   UNL     1       2.706  -4.237   8.854  0.00  0.00    +0.024 C 
ENDBRANCH  12  15
ENDBRANCH   6   9
ENDBRANCH   2   3
BRANCH   2  18
ATOM     18  N   UNL     1      -1.426  -0.314   0.122  0.00  0.00    +0.386 N 
ATOM     19  H   UNL     1      -1.528  -1.307   0.269  0.00  0.00    -0.085 HD
ATOM     20  H   UNL     1      -1.830   0.184   0.901  0.00  0.00    -0.085 HD
BRANCH  18  21
ATOM     21  C   UNL     1      -2.116   0.072  -1.116  0.00  0.00    -0.046 C 
BRANCH  21  22
ATOM     22  C   UNL     1      -3.579  -0.272  -1.004  0.00  0.00    -0.063 A 
ATOM     23  C   UNL     1      -4.029  -1.515  -1.407  0.00  0.00    +0.005 A 
ATOM     24  C   UNL     1      -5.370  -1.833  -1.306  0.00  0.00    +0.047 A 
ATOM     25  C   UNL     1      -6.265  -0.903  -0.799  0.00  0.00    +0.139 A 
ATOM     26  C   UNL     1      -5.811   0.345  -0.394  0.00  0.00    +0.083 A 
ATOM     27  C   UNL     1      -4.468   0.656  -0.493  0.00  0.00    +0.025 A 
ATOM     28 CL   UNL     1      -6.929   1.512   0.241  0.00  0.00    -0.080 Cl
BRANCH  25  29
ATOM     29  O   UNL     1      -7.585  -1.213  -0.699  0.00  0.00    -0.487 OA
BRANCH  29  30
ATOM     30  C   UNL     1      -7.980  -2.515  -1.135  0.00  0.00    +0.256 C 
BRANCH  30  31
ATOM     31  C   UNL     1      -9.467  -2.676  -0.950  0.00  0.00    +0.006 C 
ATOM     32  C   UNL     1     -10.192  -3.207  -1.903  0.00  0.00    +0.007 C 
ENDBRANCH  30  31
ENDBRANCH  29  30
ENDBRANCH  25  29
ENDBRANCH  21  22
ENDBRANCH  18  21
ENDBRANCH   2  18
TORSDOF 9
