REMARK  Name = ZINC20664515
REMARK  10 active torsions:
REMARK  status: ('A' for Active; 'I' for Inactive)
REMARK    1  A    between atoms: C_1  and  C_2
REMARK    2  A    between atoms: C_2  and  O_3
REMARK    3  A    between atoms: O_3  and  C_4
REMARK    4  A    between atoms: C_7  and  N_10
REMARK    5  A    between atoms: C_11  and  C_13
REMARK    6  A    between atoms: C_13  and  S_14
REMARK    7  A    between atoms: S_14  and  C_15
REMARK    8  A    between atoms: C_19  and  C_23
REMARK    9  A    between atoms: N_26  and  C_27
REMARK   10  A    between atoms: C_31  and  C_33
REMARK                            x       y       z     vdW  Elec       q    Type
REMARK                         _______ _______ _______ _____ _____    ______ ____
ROOT
ATOM      1  C   UNL     1       3.851  -6.557  -0.522  0.00  0.00    +0.177 A 
ATOM      2  N   UNL     1       2.619  -6.988  -0.484  0.00  0.00    -0.201 NA
ATOM      3  C   UNL     1       2.315  -8.311  -0.579  0.00  0.00    +0.187 A 
ATOM      4  C   UNL     1       3.415  -9.277  -0.716  0.00  0.00    +0.082 A 
ATOM      5  C   UNL     1       2.844 -10.521  -0.785  0.00  0.00    +0.046 A 
ATOM      6  N   UNL     1       1.512 -10.366  -0.700  0.00  0.00    -0.279 N 
ATOM      7  H   UNL     1       0.852 -11.245  -0.735  0.00  0.00    +0.189 HD
ATOM      8  N   UNL     1       1.202  -9.007  -0.574  0.00  0.00    -0.153 NA
ATOM      9  C   UNL     1       3.579 -11.829  -0.931  0.00  0.00    +0.066 C 
ATOM     10  C   UNL     1       4.790  -8.749  -0.749  0.00  0.00    +0.124 A 
ATOM     11  N   UNL     1       5.822  -9.542  -0.868  0.00  0.00    -0.384 N 
ATOM     12  N   UNL     1       4.943  -7.375  -0.647  0.00  0.00    -0.275 N 
ATOM     13  H   UNL     1       6.838  -9.123  -0.890  0.00  0.00    +0.157 HD
ATOM     14  H   UNL     1       5.673 -10.629  -0.947  0.00  0.00    +0.157 HD
ENDROOT
BRANCH  12  15
ATOM     15  C   UNL     1       6.228  -6.816  -0.672  0.00  0.00    +0.051 A 
ATOM     16  C   UNL     1       7.009  -6.922  -1.816  0.00  0.00    +0.028 A 
ATOM     17  C   UNL     1       8.273  -6.366  -1.840  0.00  0.00    +0.022 A 
ATOM     18  C   UNL     1       8.766  -5.715  -0.723  0.00  0.00    +0.044 A 
ATOM     19  C   UNL     1       7.991  -5.613   0.419  0.00  0.00    -0.030 A 
ATOM     20  C   UNL     1       6.724  -6.162   0.447  0.00  0.00    +0.031 A 
ATOM     21  C   UNL     1       8.530  -4.902   1.634  0.00  0.00    +0.045 C 
ATOM     22 CL   UNL     1      10.358  -5.024  -0.754  0.00  0.00    -0.083 Cl
ENDBRANCH  12  15
BRANCH   1  23
ATOM     23  S   UNL     1       4.126  -4.821  -0.398  0.00  0.00    -0.078 S 
BRANCH  23  24
ATOM     24  C   UNL     1       2.417  -4.241  -0.258  0.00  0.00    +0.173 C 
BRANCH  24  26
ATOM     25  N   UNL     1       1.234  -2.083  -0.020  0.00  0.00    -0.285 N 
ATOM     26  C   UNL     1       2.405  -2.739  -0.137  0.00  0.00    +0.227 C 
ATOM     27  O   UNL     1       3.449  -2.122  -0.144  0.00  0.00    -0.275 OA
ATOM     28  H   UNL     1       0.294  -2.646   0.073  0.00  0.00    +0.155 HD
BRANCH  25  32
ATOM     29  C   UNL     1       1.173   2.087  -0.017  0.00  0.00    +0.121 A 
ATOM     30  C   UNL     1       2.117   1.408  -0.773  0.00  0.00    +0.047 A 
ATOM     31  C   UNL     1       2.138   0.027  -0.775  0.00  0.00    +0.027 A 
ATOM     32  C   UNL     1       1.213  -0.681  -0.019  0.00  0.00    +0.034 A 
ATOM     33  C   UNL     1       0.269  -0.001   0.738  0.00  0.00    +0.027 A 
ATOM     34  C   UNL     1       0.249   1.379   0.739  0.00  0.00    +0.047 A 
BRANCH  29  35
ATOM     35  O   UNL     1       1.153   3.446  -0.015  0.00  0.00    -0.492 OA
BRANCH  35  37
ATOM     36  C   UNL     1       0.288   5.599   0.662  0.00  0.00    +0.048 C 
ATOM     37  C   UNL     1       0.154   4.080   0.786  0.00  0.00    +0.225 C 
ENDBRANCH  35  37
ENDBRANCH  29  35
ENDBRANCH  25  32
ENDBRANCH  24  26
ENDBRANCH  23  24
ENDBRANCH   1  23
TORSDOF 7
