REMARK  Name = ZINC38583130
REMARK  6 active torsions:
REMARK  status: ('A' for Active; 'I' for Inactive)
REMARK    1  A    between atoms: C_1  and  O_2
REMARK    2  A    between atoms: O_2  and  C_3
REMARK    3  A    between atoms: C_3  and  C_5
REMARK    4  A    between atoms: C_7  and  N_15
REMARK    5  A    between atoms: C_16  and  C_18
REMARK    6  A    between atoms: C_18  and  N_19
REMARK                            x       y       z     vdW  Elec       q    Type
REMARK                         _______ _______ _______ _____ _____    ______ ____
ROOT
ATOM      1  C   UNL     1      -2.281  -3.505  -1.695  0.00  0.00    +0.234 C 
ATOM      2  C   UNL     1      -1.071  -2.698  -1.281  0.00  0.00    +0.053 C 
ATOM      3  C   UNL     1      -1.371  -2.184  -0.032  0.00  0.00    +0.018 A 
ATOM      4  C   UNL     1      -0.645  -1.359   0.861  0.00  0.00    +0.011 A 
ATOM      5  C   UNL     1      -1.199  -1.002   2.047  0.00  0.00    +0.001 A 
ATOM      6  C   UNL     1      -2.477  -1.429   2.416  0.00  0.00    +0.002 A 
ATOM      7  C   UNL     1      -3.229  -2.220   1.613  0.00  0.00    +0.026 A 
ATOM      8  C   UNL     1      -2.719  -2.635   0.355  0.00  0.00    +0.045 A 
ATOM      9  N   UNL     1      -3.242  -3.389  -0.593  0.00  0.00    -0.367 N 
ATOM     10  H   UNL     1      -4.120  -3.801  -0.566  0.00  0.00    +0.161 HD
ENDROOT
BRANCH   2  11
ATOM     11  N   UNL     1       0.077  -2.515  -1.992  0.00  0.00    -0.288 N 
ATOM     12  C   UNL     1       0.153  -2.936  -3.270  0.00  0.00    +0.200 C 
ATOM     13  O   UNL     1      -0.830  -3.384  -3.820  0.00  0.00    -0.278 OA
ATOM     14  H   UNL     1       0.840  -2.081  -1.578  0.00  0.00    +0.155 HD
BRANCH  12  15
ATOM     15  C   UNL     1       1.460  -2.850  -4.015  0.00  0.00    +0.019 C 
BRANCH  15  16
ATOM     16  N   UNL     1       1.282  -3.368  -5.378  0.00  0.00    +0.386 N 
ATOM     17  C   UNL     1       0.943  -4.794  -5.316  0.00  0.00    -0.071 C 
ATOM     18  C   UNL     1       0.587  -5.297  -6.720  0.00  0.00    +0.056 C 
ATOM     19  C   UNL     1       1.737  -4.962  -7.648  0.00  0.00    +0.130 C 
ATOM     20  O   UNL     1       2.199  -5.791  -8.395  0.00  0.00    -0.298 OA
ATOM     21  C   UNL     1       2.287  -3.551  -7.605  0.00  0.00    +0.056 C 
ATOM     22  C   UNL     1       2.522  -3.173  -6.138  0.00  0.00    -0.071 C 
ATOM     23  H   UNL     1       0.531  -2.867  -5.830  0.00  0.00    -0.081 HD
ENDBRANCH  15  16
ENDBRANCH  12  15
ENDBRANCH   2  11
BRANCH   1  24
ATOM     24  C   UNL     1      -1.898  -4.948  -1.899  0.00  0.00    +0.335 C 
ATOM     25  O   UNL     1      -2.000  -5.735  -0.988  0.00  0.00    -0.248 OA
BRANCH  24  27
ATOM     26  C   UNL     1      -1.098  -6.740  -3.216  0.00  0.00    +0.280 C 
ATOM     27  O   UNL     1      -1.443  -5.359  -3.094  0.00  0.00    -0.466 OA
ENDBRANCH  24  27
ENDBRANCH   1  24
TORSDOF 5
