REMARK  Name = ZINC51736269
REMARK  12 active torsions:
REMARK  status: ('A' for Active; 'I' for Inactive)
REMARK    1  A    between atoms: C_1  and  C_2
REMARK    2  A    between atoms: C_2  and  C_3
REMARK    3  A    between atoms: C_6  and  C_8
REMARK    4  A    between atoms: C_8  and  N_9
REMARK    5  A    between atoms: C_10  and  C_12
REMARK    6  A    between atoms: C_12  and  N_13
REMARK    7  A    between atoms: N_13  and  C_14
REMARK    8  A    between atoms: N_13  and  C_15
REMARK    9  A    between atoms: C_15  and  C_17
REMARK   10  A    between atoms: C_15  and  C_18
REMARK   11  A    between atoms: C_21  and  S_24
REMARK   12  A    between atoms: S_24  and  N_27
REMARK                            x       y       z     vdW  Elec       q    Type
REMARK                         _______ _______ _______ _____ _____    ______ ____
ROOT
ATOM      1  N   UNL     1       1.816  -5.848  -7.775  0.00  0.00    +0.388 N 
ATOM      2  C   UNL     1       3.204  -5.577  -8.174  0.00  0.00    -0.095 C 
ATOM      3  H   UNL     1       1.187  -5.352  -8.387  0.00  0.00    -0.081 HD
ENDROOT
BRANCH   1   4
ATOM      4  C   UNL     1       1.553  -7.291  -7.867  0.00  0.00    -0.041 C 
ATOM      5  C   UNL     1       0.108  -7.573  -7.452  0.00  0.00    -0.008 C 
BRANCH   4   6
ATOM      6  C   UNL     1       1.766  -7.750  -9.287  0.00  0.00    -0.061 A 
ATOM      7  C   UNL     1       1.350  -6.957 -10.340  0.00  0.00    +0.004 A 
ATOM      8  C   UNL     1       1.546  -7.379 -11.642  0.00  0.00    +0.029 A 
ATOM      9  C   UNL     1       2.158  -8.593 -11.891  0.00  0.00    +0.105 A 
ATOM     10  C   UNL     1       2.574  -9.386 -10.838  0.00  0.00    +0.029 A 
ATOM     11  C   UNL     1       2.383  -8.962  -9.536  0.00  0.00    +0.004 A 
BRANCH   9  12
ATOM     12  S   UNL     1       2.406  -9.131 -13.550  0.00  0.00    +0.056 S 
ATOM     13  O   UNL     1       2.507 -10.547 -13.507  0.00  0.00    -0.153 OA
ATOM     14  O   UNL     1       1.437  -8.460 -14.344  0.00  0.00    -0.153 OA
BRANCH  12  15
ATOM     15  N   UNL     1       3.886  -8.565 -14.032  0.00  0.00    -0.204 NA
ATOM     16  H   UNL     1       4.428  -8.042 -13.421  0.00  0.00    +0.144 HD
ATOM     17  H   UNL     1       4.211  -8.757 -14.926  0.00  0.00    +0.144 HD
ENDBRANCH  12  15
ENDBRANCH   9  12
ENDBRANCH   4   6
ENDBRANCH   1   4
BRANCH   1  18
ATOM     18  C   UNL     1       1.609  -5.400  -6.391  0.00  0.00    +0.019 C 
BRANCH  18  20
ATOM     19  N   UNL     1       1.609  -3.265  -5.142  0.00  0.00    -0.312 N 
ATOM     20  C   UNL     1       1.759  -3.903  -6.321  0.00  0.00    +0.197 C 
ATOM     21  O   UNL     1       2.014  -3.271  -7.324  0.00  0.00    -0.278 OA
ATOM     22  H   UNL     1       1.405  -3.771  -4.340  0.00  0.00    +0.149 HD
BRANCH  19  23
ATOM     23  C   UNL     1       1.755  -1.809  -5.073  0.00  0.00    +0.146 C 
BRANCH  23  27
ATOM     24  C   UNL     1       0.707  -0.490  -1.238  0.00  0.00    -0.010 A 
ATOM     25  C   UNL     1       2.023  -0.761  -1.421  0.00  0.00    +0.011 A 
ATOM     26  C   UNL     1       2.451  -1.202  -2.659  0.00  0.00    +0.013 A 
ATOM     27  C   UNL     1       1.542  -1.350  -3.654  0.00  0.00    +0.007 A 
ATOM     28  S   UNL     1       0.026  -0.866  -2.845  0.00  0.00    -0.097 S 
BRANCH  24  30
ATOM     29  C   UNL     1      -0.019   1.526   0.010  0.00  0.00    +0.009 C 
ATOM     30  C   UNL     1       0.002  -0.004   0.002  0.00  0.00    +0.039 C 
ENDBRANCH  24  30
ENDBRANCH  23  27
ENDBRANCH  19  23
ENDBRANCH  18  20
ENDBRANCH   1  18
TORSDOF 9
