REMARK  Name = ZINC55980667
REMARK  3 active torsions:
REMARK  status: ('A' for Active; 'I' for Inactive)
REMARK    1  A    between atoms: C_1  and  C_2
REMARK    2  A    between atoms: C_5  and  N_9
REMARK    3  A    between atoms: C_10  and  C_12
REMARK                            x       y       z     vdW  Elec       q    Type
REMARK                         _______ _______ _______ _____ _____    ______ ____
ROOT
ATOM      1  N   UNL     1       0.081  -4.173  -0.027  0.00  0.00    -0.279 N 
ATOM      2  C   UNL     1      -0.040  -4.839  -1.192  0.00  0.00    +0.255 C 
ATOM      3  O   UNL     1      -0.075  -4.226  -2.243  0.00  0.00    -0.270 OA
ATOM      4  H   UNL     1       0.173  -4.664   0.805  0.00  0.00    +0.155 HD
ENDROOT
BRANCH   2   5
ATOM      5  C   UNL     1      -0.132  -6.303  -1.194  0.00  0.00    +0.120 A 
ATOM      6  C   UNL     1      -0.130  -7.020  -2.398  0.00  0.00    +0.131 A 
ATOM      7  N   UNL     1      -0.212  -8.334  -2.378  0.00  0.00    -0.237 NA
ATOM      8  C   UNL     1      -0.298  -9.015  -1.232  0.00  0.00    +0.140 A 
ATOM      9  C   UNL     1      -0.383 -10.417  -1.272  0.00  0.00    +0.048 A 
ATOM     10  C   UNL     1      -0.471 -11.118  -0.105  0.00  0.00    +0.020 A 
ATOM     11  C   UNL     1      -0.475 -10.431   1.116  0.00  0.00    +0.035 A 
ATOM     12  C   UNL     1      -0.392  -9.079   1.133  0.00  0.00    +0.111 A 
ATOM     13  N   UNL     1      -0.304  -8.372  -0.027  0.00  0.00    -0.267 N 
ATOM     14  C   UNL     1      -0.217  -7.025   0.021  0.00  0.00    +0.271 A 
ATOM     15  O   UNL     1      -0.217  -6.442   1.091  0.00  0.00    -0.266 OA
ATOM     16 BR   UNL     1      -0.597 -11.390   2.741  0.00  0.00    -0.049 Br
ENDBRANCH   2   5
BRANCH   1  21
ATOM     17  C   UNL     1       0.053   1.502   0.011  0.00  0.00    +0.044 C 
ATOM     18  C   UNL     1       0.060  -0.005   0.003  0.00  0.00    -0.048 A 
ATOM     19  C   UNL     1       0.532  -0.686  -1.105  0.00  0.00    +0.005 A 
ATOM     20  C   UNL     1       0.540  -2.067  -1.117  0.00  0.00    +0.026 A 
ATOM     21  C   UNL     1       0.075  -2.773  -0.017  0.00  0.00    +0.069 A 
ATOM     22  C   UNL     1      -0.399  -2.087   1.096  0.00  0.00    +0.145 A 
ATOM     23  C   UNL     1      -0.399  -0.704   1.104  0.00  0.00    +0.043 A 
ATOM     24  F   UNL     1      -0.853  -2.769   2.170  0.00  0.00    -0.204 F 
ENDBRANCH   1  21
TORSDOF 2
