REMARK  Name = ZINC64392501
REMARK  6 active torsions:
REMARK  status: ('A' for Active; 'I' for Inactive)
REMARK    1  A    between atoms: C_1  and  O_2
REMARK    2  A    between atoms: O_2  and  C_3
REMARK    3  A    between atoms: C_6  and  C_9
REMARK    4  A    between atoms: C_9  and  N_10
REMARK    5  A    between atoms: C_16  and  C_23
REMARK    6  A    between atoms: C_26  and  C_29
REMARK                            x       y       z     vdW  Elec       q    Type
REMARK                         _______ _______ _______ _____ _____    ______ ____
ROOT
ATOM      1  N   UNL     1      -5.423  -2.855  -1.343  0.00  0.00    -0.256 N 
ATOM      2  C   UNL     1      -6.167  -1.913  -1.963  0.00  0.00    +0.265 A 
ATOM      3  O   UNL     1      -6.473  -0.884  -1.392  0.00  0.00    -0.267 OA
ATOM      4  C   UNL     1      -6.598  -2.165  -3.350  0.00  0.00    +0.063 A 
ATOM      5  C   UNL     1      -7.367  -1.244  -4.057  0.00  0.00    +0.016 A 
ATOM      6  C   UNL     1      -7.745  -1.526  -5.353  0.00  0.00    +0.009 A 
ATOM      7  C   UNL     1      -7.365  -2.719  -5.950  0.00  0.00    +0.006 A 
ATOM      8  C   UNL     1      -6.604  -3.640  -5.261  0.00  0.00    +0.034 A 
ATOM      9  C   UNL     1      -6.214  -3.373  -3.957  0.00  0.00    +0.056 A 
ATOM     10  N   UNL     1      -5.448  -4.272  -3.229  0.00  0.00    -0.307 N 
ATOM     11  H   UNL     1      -5.175  -5.110  -3.635  0.00  0.00    +0.170 HD
ATOM     12  C   UNL     1      -5.077  -3.992  -1.968  0.00  0.00    +0.330 A 
ATOM     13  O   UNL     1      -4.402  -4.804  -1.365  0.00  0.00    -0.246 OA
ENDROOT
BRANCH   7  14
ATOM     14  C   UNL     1      -7.788  -3.011  -7.367  0.00  0.00    +0.274 C 
ATOM     15  N   UNL     1      -9.057  -2.337  -7.668  0.00  0.00    -0.339 N 
ATOM     16  C   UNL     1      -8.864  -1.505  -8.645  0.00  0.00    +0.134 C 
ATOM     17  N   UNL     1      -7.559  -1.526  -9.072  0.00  0.00    -0.247 N 
ATOM     18  O   UNL     1      -6.835  -2.467  -8.293  0.00  0.00    -0.243 OA
ATOM     19  H   UNL     1      -7.192  -0.986  -9.789  0.00  0.00    +0.196 HD
ATOM     20  H   UNL     1      -9.899  -2.489  -7.212  0.00  0.00    +0.164 HD
BRANCH  16  21
ATOM     21  C   UNL     1      -9.917  -0.642  -9.225  0.00  0.00    +0.021 A 
ATOM     22  C   UNL     1     -10.970  -0.192  -8.428  0.00  0.00    +0.015 A 
ATOM     23  C   UNL     1     -11.951   0.611  -8.970  0.00  0.00    +0.050 A 
ATOM     24  C   UNL     1     -11.895   0.975 -10.308  0.00  0.00    +0.166 A 
ATOM     25  C   UNL     1     -10.845   0.528 -11.110  0.00  0.00    +0.167 A 
ATOM     26  C   UNL     1      -9.857  -0.273 -10.570  0.00  0.00    +0.061 A 
ATOM     27  O   UNL     1     -11.020   1.020 -12.371  0.00  0.00    -0.453 OA
ATOM     28  C   UNL     1     -12.398   1.432 -12.435  0.00  0.00    +0.466 C 
ATOM     29  O   UNL     1     -12.725   1.746 -11.068  0.00  0.00    -0.453 OA
ENDBRANCH  16  21
ENDBRANCH   7  14
BRANCH   1  30
ATOM     30  C   UNL     1      -4.981  -2.629   0.035  0.00  0.00    +0.165 C 
BRANCH  30  34
ATOM     31  C   UNL     1      -1.200  -0.637   0.010  0.00  0.00    +0.120 A 
ATOM     32  C   UNL     1      -2.375   0.101   0.019  0.00  0.00    +0.046 A 
ATOM     33  C   UNL     1      -3.596  -0.545   0.027  0.00  0.00    +0.009 A 
ATOM     34  C   UNL     1      -3.648  -1.927   0.026  0.00  0.00    -0.027 A 
ATOM     35  C   UNL     1      -2.479  -2.665   0.017  0.00  0.00    +0.009 A 
ATOM     36  C   UNL     1      -1.255  -2.024   0.003  0.00  0.00    +0.046 A 
BRANCH  31  38
ATOM     37  C   UNL     1      -0.017   1.425   0.010  0.00  0.00    +0.277 C 
ATOM     38  O   UNL     1       0.002  -0.004   0.002  0.00  0.00    -0.495 OA
ENDBRANCH  31  38
ENDBRANCH  30  34
ENDBRANCH   1  30
TORSDOF 5
