REMARK  Name = ZINC39325199
REMARK  6 active torsions:
REMARK  status: ('A' for Active; 'I' for Inactive)
REMARK    1  A    between atoms: C_3  and  C_7
REMARK    2  A    between atoms: C_7  and  N_8
REMARK    3  A    between atoms: N_8  and  C_9
REMARK    4  A    between atoms: N_8  and  S_26
REMARK    5  A    between atoms: C_9  and  C_10
REMARK    6  A    between atoms: S_26  and  C_29
REMARK                            x       y       z     vdW  Elec       q    Type
REMARK                         _______ _______ _______ _____ _____    ______ ____
ROOT
ATOM      1  N   UNL     1       4.324   2.440   1.569  0.00  0.00    -0.171 NA
ENDROOT
BRANCH   1   2
ATOM      2  S   UNL     1       3.688   3.756   2.347  0.00  0.00    +0.061 S 
ATOM      3  O   UNL     1       4.429   3.914   3.549  0.00  0.00    -0.153 OA
ATOM      4  O   UNL     1       3.581   4.789   1.376  0.00  0.00    -0.153 OA
BRANCH   2   5
ATOM      5  C   UNL     1       2.043   3.338   2.820  0.00  0.00    +0.109 A 
ATOM      6  C   UNL     1       0.980   3.706   2.017  0.00  0.00    +0.032 A 
ATOM      7  C   UNL     1      -0.312   3.380   2.385  0.00  0.00    +0.051 A 
ATOM      8  C   UNL     1      -0.545   2.683   3.561  0.00  0.00    +0.162 A 
ATOM      9  C   UNL     1       0.525   2.311   4.367  0.00  0.00    +0.164 A 
ATOM     10  C   UNL     1       1.819   2.638   3.990  0.00  0.00    +0.078 A 
ATOM     11  O   UNL     1       0.320   1.619   5.521  0.00  0.00    -0.485 OA
ATOM     12  C   UNL     1      -1.010   1.630   6.050  0.00  0.00    +0.270 C 
ATOM     13  C   UNL     1      -1.988   1.349   4.901  0.00  0.00    +0.270 C 
ATOM     14  O   UNL     1      -1.822   2.372   3.913  0.00  0.00    -0.485 OA
ENDBRANCH   2   5
ENDBRANCH   1   2
BRANCH   1  15
ATOM     15  C   UNL     1       4.107   2.263   0.131  0.00  0.00    +0.146 C 
BRANCH  15  18
ATOM     16  C   UNL     1       0.675   0.828  -0.505  0.00  0.00    +0.020 A 
ATOM     17  C   UNL     1       1.685   1.757  -0.305  0.00  0.00    +0.008 A 
ATOM     18  C   UNL     1       2.974   1.294  -0.091  0.00  0.00    -0.014 A 
ATOM     19  C   UNL     1       3.208  -0.069  -0.084  0.00  0.00    +0.115 A 
ATOM     20  N   UNL     1       2.223  -0.923  -0.278  0.00  0.00    -0.263 NA
ATOM     21  C   UNL     1       0.984  -0.518  -0.484  0.00  0.00    +0.111 A 
ENDBRANCH  15  18
ENDBRANCH   1  15
BRANCH   1  22
ATOM     22  C   UNL     1       5.103   1.452   2.319  0.00  0.00    +0.126 C 
BRANCH  22  23
ATOM     23  C   UNL     1       6.548   1.452   1.815  0.00  0.00    +0.114 C 
ATOM     24  C   UNL     1       7.237   0.225   2.377  0.00  0.00    -0.003 C 
ATOM     25  C   UNL     1       8.350   0.425   3.134  0.00  0.00    -0.003 A 
ATOM     26  C   UNL     1       9.073  -0.706   3.715  0.00  0.00    +0.059 A 
ATOM     27  C   UNL     1      10.184  -0.474   4.466  0.00  0.00    +0.163 A 
ATOM     28  C   UNL     1      10.649   0.838   4.691  0.00  0.00    +0.164 A 
ATOM     29  C   UNL     1      10.001   1.938   4.167  0.00  0.00    +0.073 A 
ATOM     30  C   UNL     1       8.850   1.790   3.383  0.00  0.00    +0.044 A 
ATOM     31  N   UNL     1       8.239   2.868   2.886  0.00  0.00    -0.284 N 
ATOM     32  C   UNL     1       7.152   2.800   2.139  0.00  0.00    +0.225 C 
ATOM     33  O   UNL     1       6.639   3.818   1.714  0.00  0.00    -0.275 OA
ATOM     34  O   UNL     1      11.767   1.048   5.437  0.00  0.00    -0.485 OA
ATOM     35  C   UNL     1      12.197  -0.027   6.276  0.00  0.00    +0.270 C 
ATOM     36  C   UNL     1      12.178  -1.320   5.450  0.00  0.00    +0.270 C 
ATOM     37  O   UNL     1      10.838  -1.544   5.001  0.00  0.00    -0.485 OA
ATOM     38  H   UNL     1       8.611   3.742   3.083  0.00  0.00    +0.155 HD
ENDBRANCH  22  23
ENDBRANCH   1  22
TORSDOF 6
