REMARK  Name = ZINC36029638
REMARK  7 active torsions:
REMARK  status: ('A' for Active; 'I' for Inactive)
REMARK    1  A    between atoms: C_1  and  C_2
REMARK    2  A    between atoms: C_2  and  C_3
REMARK    3  A    between atoms: C_3  and  C_5
REMARK    4  A    between atoms: C_3  and  C_6
REMARK    5  A    between atoms: N_10  and  C_23
REMARK    6  A    between atoms: C_18  and  C_20
REMARK    7  A    between atoms: C_23  and  C_24
REMARK                            x       y       z     vdW  Elec       q    Type
REMARK                         _______ _______ _______ _____ _____    ______ ____
ROOT
ATOM      1  C   UNL     1      -2.134  -2.378  -0.286  0.00  0.00    +0.022 C 
ATOM      2  C   UNL     1      -1.346  -2.759   0.948  0.00  0.00    +0.201 C 
ATOM      3  O   UNL     1      -0.419  -2.134   1.419  0.00  0.00    -0.277 OA
ATOM      4  N   UNL     1      -1.849  -3.912   1.437  0.00  0.00    -0.311 N 
ATOM      5  C   UNL     1      -2.958  -4.360   0.590  0.00  0.00    +0.006 C 
ATOM      6  N   UNL     1      -3.373  -3.189  -0.213  0.00  0.00    +0.401 N 
ATOM      7  C   UNL     1      -4.125  -4.835   1.454  0.00  0.00    +0.025 C 
ATOM      8  C   UNL     1      -3.674  -6.024   2.308  0.00  0.00    +0.108 C 
ATOM      9  N   UNL     1      -3.108  -7.053   1.425  0.00  0.00    -0.301 N 
ATOM     10  C   UNL     1      -2.029  -6.676   0.501  0.00  0.00    +0.108 C 
ATOM     11  C   UNL     1      -2.494  -5.481  -0.338  0.00  0.00    +0.025 C 
ATOM     12  C   UNL     1      -3.570  -8.318   1.462  0.00  0.00    +0.219 C 
ATOM     13  O   UNL     1      -4.460  -8.617   2.228  0.00  0.00    -0.275 OA
ATOM     14  H   UNL     1      -4.106  -2.678   0.255  0.00  0.00    -0.082 HD
ATOM     15  H   UNL     1      -3.667  -3.474  -1.135  0.00  0.00    -0.082 HD
ENDROOT
BRANCH  12  16
ATOM     16  C   UNL     1      -2.979  -9.362   0.549  0.00  0.00    +0.075 C 
ATOM     17  C   UNL     1      -3.867  -9.903  -0.573  0.00  0.00    +0.013 C 
ATOM     18  C   UNL     1      -3.546 -10.781   0.638  0.00  0.00    +0.013 C 
ENDBRANCH  12  16
BRANCH   1  19
ATOM     19  C   UNL     1      -2.472  -0.885  -0.263  0.00  0.00    -0.020 C 
ATOM     20  C   UNL     1      -3.134  -0.534   1.071  0.00  0.00    +0.006 C 
BRANCH  19  22
ATOM     21  C   UNL     1      -1.538   1.417  -0.526  0.00  0.00    +0.004 C 
ATOM     22  C   UNL     1      -1.188  -0.069  -0.425  0.00  0.00    -0.001 C 
ENDBRANCH  19  22
ENDBRANCH   1  19
BRANCH   4  23
ATOM     23  C   UNL     1      -1.362  -4.608   2.631  0.00  0.00    +0.137 C 
BRANCH  23  24
ATOM     24  C   UNL     1      -1.984  -3.976   3.878  0.00  0.00    +0.136 C 
ATOM     25  C   UNL     1      -1.536  -4.752   5.136  0.00  0.00    +0.035 C 
ATOM     26  C   UNL     1      -2.831  -4.765   5.994  0.00  0.00    +0.031 C 
ATOM     27  C   UNL     1      -3.914  -4.857   4.889  0.00  0.00    +0.160 C 
ATOM     28  O   UNL     1      -3.412  -4.057   3.804  0.00  0.00    -0.375 OA
ENDBRANCH  23  24
ENDBRANCH   4  23
TORSDOF 5
