REMARK  Name = ZINC50698916
REMARK  4 active torsions:
REMARK  status: ('A' for Active; 'I' for Inactive)
REMARK    1  A    between atoms: C_5  and  N_7
REMARK    2  A    between atoms: C_8  and  C_10
REMARK    3  A    between atoms: C_13  and  N_20
REMARK    4  A    between atoms: C_14  and  C_16
REMARK                            x       y       z     vdW  Elec       q    Type
REMARK                         _______ _______ _______ _____ _____    ______ ____
ROOT
ATOM      1  C   UNL     1       0.118  -4.243   0.190  0.00  0.00    +0.038 A 
ATOM      2  C   UNL     1       1.342  -4.920   0.180  0.00  0.00    +0.015 A 
ATOM      3  C   UNL     1       1.368  -6.292   0.277  0.00  0.00    +0.024 A 
ATOM      4  C   UNL     1       0.178  -7.007   0.384  0.00  0.00    +0.036 A 
ATOM      5  C   UNL     1      -1.042  -6.337   0.394  0.00  0.00    +0.076 A 
ATOM      6  C   UNL     1      -1.075  -4.964   0.303  0.00  0.00    +0.027 A 
ENDROOT
BRANCH   1   8
ATOM      7  N   UNL     1       1.237  -2.079  -0.021  0.00  0.00    -0.281 N 
ATOM      8  C   UNL     1       0.086  -2.772   0.088  0.00  0.00    +0.248 C 
ATOM      9  O   UNL     1      -0.978  -2.185   0.102  0.00  0.00    -0.270 OA
ATOM     10  H   UNL     1       2.080  -2.550  -0.113  0.00  0.00    +0.155 HD
BRANCH   7  15
ATOM     11  C   UNL     1       0.153   1.372   0.637  0.00  0.00    +0.002 A 
ATOM     12  C   UNL     1       1.173   2.086   0.036  0.00  0.00    +0.001 A 
ATOM     13  C   UNL     1       2.215   1.421  -0.585  0.00  0.00    +0.017 A 
ATOM     14  C   UNL     1       2.239   0.040  -0.606  0.00  0.00    +0.039 A 
ATOM     15  C   UNL     1       1.216  -0.681  -0.002  0.00  0.00    +0.048 A 
ATOM     16  C   UNL     1       0.172  -0.009   0.621  0.00  0.00    +0.024 A 
ATOM     17 BR   UNL     1       3.663  -0.869  -1.456  0.00  0.00    -0.048 Br
ENDBRANCH   7  15
ENDBRANCH   1   8
BRANCH   5  18
ATOM     18  C   UNL     1      -2.327  -7.114   0.509  0.00  0.00    +0.419 C 
ATOM     19  F   UNL     1      -3.410  -6.229   0.497  0.00  0.00    -0.166 F 
ATOM     20  F   UNL     1      -2.436  -7.999  -0.569  0.00  0.00    -0.166 F 
ATOM     21  F   UNL     1      -2.329  -7.837   1.707  0.00  0.00    -0.166 F 
ENDBRANCH   5  18
BRANCH   4  22
ATOM     22  N   UNL     1       0.208  -8.394   0.481  0.00  0.00    -0.358 N 
ATOM     23  H   UNL     1       1.058  -8.862   0.474  0.00  0.00    +0.142 HD
ATOM     24  H   UNL     1      -0.620  -8.893   0.556  0.00  0.00    +0.142 HD
ENDBRANCH   4  22
TORSDOF 4
