REMARK  Name = ZINC57807562
REMARK  4 active torsions:
REMARK  status: ('A' for Active; 'I' for Inactive)
REMARK    1  A    between atoms: C_1  and  C_2
REMARK    2  A    between atoms: C_2  and  C_4
REMARK    3  A    between atoms: C_2  and  N_10
REMARK    4  A    between atoms: C_12  and  C_17
REMARK                            x       y       z     vdW  Elec       q    Type
REMARK                         _______ _______ _______ _____ _____    ______ ____
ROOT
ATOM      1  N   UNL     1       0.808  -0.455   1.135  0.00  0.00    -0.294 N 
ATOM      2  C   UNL     1       0.289  -1.427   2.105  0.00  0.00    +0.121 C 
ATOM      3  C   UNL     1       1.529  -1.966   2.852  0.00  0.00    +0.101 C 
ATOM      4  C   UNL     1       2.527  -0.796   2.691  0.00  0.00    +0.110 C 
ATOM      5  C   UNL     1       2.063  -0.084   1.440  0.00  0.00    +0.217 C 
ATOM      6  O   UNL     1       2.726   0.709   0.805  0.00  0.00    -0.276 OA
ENDROOT
BRANCH   3   7
ATOM      7  C   UNL     1       2.052  -3.217   2.195  0.00  0.00    +0.223 C 
ATOM      8  O   UNL     1       1.500  -3.662   1.211  0.00  0.00    -0.275 OA
ATOM      9  N   UNL     1       3.134  -3.842   2.700  0.00  0.00    -0.270 N 
ATOM     10  C   UNL     1       3.683  -4.936   2.033  0.00  0.00    +0.125 A 
ATOM     11  C   UNL     1       4.868  -5.500   2.492  0.00  0.00    +0.045 A 
ATOM     12  C   UNL     1       5.401  -6.585   1.821  0.00  0.00    +0.020 A 
ATOM     13  C   UNL     1       4.728  -7.073   0.708  0.00  0.00    +0.036 A 
ATOM     14  C   UNL     1       3.554  -6.464   0.308  0.00  0.00    +0.128 A 
ATOM     15  N   UNL     1       3.067  -5.433   0.971  0.00  0.00    -0.239 NA
ATOM     16 BR   UNL     1       5.410  -8.555  -0.249  0.00  0.00    -0.049 Br
ATOM     17  H   UNL     1       3.531  -3.530   3.528  0.00  0.00    +0.156 HD
ENDBRANCH   3   7
BRANCH   1  19
ATOM     18  C   UNL     1      -0.165   1.548   0.124  0.00  0.00    +0.033 C 
ATOM     19  C   UNL     1       0.056   0.041  -0.021  0.00  0.00    +0.103 C 
BRANCH  19  20
ATOM     20  C   UNL     1       0.834  -0.234  -1.282  0.00  0.00    -0.027 A 
ATOM     21  C   UNL     1       1.651  -1.346  -1.361  0.00  0.00    +0.005 A 
ATOM     22  C   UNL     1       2.365  -1.598  -2.518  0.00  0.00    +0.000 A 
ATOM     23  C   UNL     1       2.261  -0.738  -3.595  0.00  0.00    +0.000 A 
ATOM     24  C   UNL     1       1.443   0.374  -3.516  0.00  0.00    +0.000 A 
ATOM     25  C   UNL     1       0.727   0.624  -2.361  0.00  0.00    +0.005 A 
ENDBRANCH  19  20
ENDBRANCH   1  19
TORSDOF 3
