REMARK  Name = ZINC40376071
REMARK  7 active torsions:
REMARK  status: ('A' for Active; 'I' for Inactive)
REMARK    1  A    between atoms: C_1  and  C_2
REMARK    2  A    between atoms: C_6  and  N_8
REMARK    3  A    between atoms: C_14  and  C_19
REMARK    4  A    between atoms: C_19  and  C_20
REMARK    5  A    between atoms: N_22  and  C_23
REMARK    6  A    between atoms: C_28  and  O_29
REMARK    7  A    between atoms: O_29  and  C_30
REMARK                            x       y       z     vdW  Elec       q    Type
REMARK                         _______ _______ _______ _____ _____    ______ ____
ROOT
ATOM      1  N   UNL     1      -3.447  -5.056   0.014  0.00  0.00    -0.215 NA
ATOM      2  C   UNL     1      -2.849  -4.114   0.705  0.00  0.00    +0.202 C 
ATOM      3  N   UNL     1      -2.483  -2.942   0.092  0.00  0.00    -0.369 N 
ATOM      4  N   UNL     1      -2.587  -4.302   2.043  0.00  0.00    -0.295 N 
ATOM      5  C   UNL     1      -3.028  -5.448   2.679  0.00  0.00    +0.230 C 
ATOM      6  N   UNL     1      -2.885  -5.665   3.957  0.00  0.00    -0.236 NA
ATOM      7  C   UNL     1      -3.484  -6.984   4.224  0.00  0.00    +0.208 C 
ATOM      8  C   UNL     1      -3.971  -7.429   2.859  0.00  0.00    +0.274 C 
ATOM      9  O   UNL     1      -4.599  -8.579   2.553  0.00  0.00    -0.268 OA
ATOM     10  N   UNL     1      -3.657  -6.460   2.044  0.00  0.00    -0.176 NA
ATOM     11  H   UNL     1      -2.185  -2.188   0.626  0.00  0.00    +0.159 HD
ATOM     12  H   UNL     1      -2.094  -3.631   2.540  0.00  0.00    +0.172 HD
ATOM     13  H   UNL     1      -2.522  -2.866  -0.874  0.00  0.00    +0.159 HD
ENDROOT
BRANCH   1  19
ATOM     14  C   UNL     1      -3.130  -6.239  -4.727  0.00  0.00    +0.044 C 
ATOM     15  C   UNL     1      -3.680  -5.380  -3.617  0.00  0.00    -0.048 A 
ATOM     16  C   UNL     1      -4.561  -4.354  -3.910  0.00  0.00    +0.003 A 
ATOM     17  C   UNL     1      -5.071  -3.562  -2.897  0.00  0.00    +0.002 A 
ATOM     18  C   UNL     1      -4.704  -3.790  -1.587  0.00  0.00    +0.028 A 
ATOM     19  C   UNL     1      -3.816  -4.824  -1.284  0.00  0.00    +0.068 A 
ATOM     20  C   UNL     1      -3.310  -5.624  -2.311  0.00  0.00    +0.031 A 
ENDBRANCH   1  19
BRANCH   7  21
ATOM     21  C   UNL     1      -2.433  -7.954   4.769  0.00  0.00    +0.132 C 
BRANCH  21  22
ATOM     22  C   UNL     1      -1.978  -7.489   6.129  0.00  0.00    +0.220 C 
ATOM     23  O   UNL     1      -2.448  -6.482   6.614  0.00  0.00    -0.275 OA
ATOM     24  N   UNL     1      -1.049  -8.193   6.805  0.00  0.00    -0.282 N 
ATOM     25  H   UNL     1      -0.615  -8.952   6.385  0.00  0.00    +0.155 HD
BRANCH  24  26
ATOM     26  C   UNL     1      -0.711  -7.829   8.116  0.00  0.00    +0.077 A 
ATOM     27  C   UNL     1      -1.556  -7.009   8.849  0.00  0.00    +0.047 A 
ATOM     28  C   UNL     1      -1.220  -6.652  10.143  0.00  0.00    +0.043 A 
ATOM     29  C   UNL     1      -0.043  -7.110  10.706  0.00  0.00    +0.024 A 
ATOM     30  C   UNL     1       0.804  -7.926   9.980  0.00  0.00    +0.049 A 
ATOM     31  C   UNL     1       0.471  -8.294   8.686  0.00  0.00    +0.141 A 
ATOM     32 CL   UNL     1      -2.279  -5.626  11.060  0.00  0.00    -0.083 Cl
BRANCH  31  33
ATOM     33  O   UNL     1       1.300  -9.102   7.973  0.00  0.00    -0.493 OA
ATOM     34  C   UNL     1       2.496  -9.541   8.622  0.00  0.00    +0.277 C 
ENDBRANCH  31  33
ENDBRANCH  24  26
ENDBRANCH  21  22
ENDBRANCH   7  21
TORSDOF 5
