REMARK  Name = ZINC40729812
REMARK  5 active torsions:
REMARK  status: ('A' for Active; 'I' for Inactive)
REMARK    1  A    between atoms: C_4  and  C_7
REMARK    2  A    between atoms: C_7  and  C_8
REMARK    3  A    between atoms: C_7  and  N_14
REMARK    4  A    between atoms: C_21  and  N_36
REMARK    5  A    between atoms: C_22  and  N_26
REMARK                            x       y       z     vdW  Elec       q    Type
REMARK                         _______ _______ _______ _____ _____    ______ ____
ROOT
ATOM      1  N   UNL     1       3.565  -1.824  -0.976  0.00  0.00    -0.289 NA
ATOM      2  C   UNL     1       3.149  -1.434  -2.330  0.00  0.00    +0.104 C 
ATOM      3  C   UNL     1       2.895  -2.693  -3.165  0.00  0.00    +0.122 C 
ATOM      4  N   UNL     1       4.093  -3.544  -3.104  0.00  0.00    -0.311 N 
ATOM      5  C   UNL     1       4.651  -3.866  -1.781  0.00  0.00    +0.122 C 
ATOM      6  C   UNL     1       4.836  -2.561  -1.000  0.00  0.00    +0.104 C 
ATOM      7  C   UNL     1       4.682  -4.032  -4.264  0.00  0.00    +0.147 A 
ATOM      8  C   UNL     1       4.328  -5.286  -4.766  0.00  0.00    +0.104 A 
ATOM      9  C   UNL     1       4.950  -5.728  -5.934  0.00  0.00    +0.129 A 
ATOM     10  N   UNL     1       5.850  -4.943  -6.522  0.00  0.00    -0.332 N 
ATOM     11  C   UNL     1       6.156  -3.766  -6.016  0.00  0.00    +0.200 A 
ATOM     12  N   UNL     1       5.588  -3.309  -4.918  0.00  0.00    -0.221 NA
ATOM     13  H   UNL     1       6.288  -5.242  -7.335  0.00  0.00    +0.168 HD
ENDROOT
BRANCH   9  14
ATOM     14  N   UNL     1       4.635  -6.969  -6.476  0.00  0.00    -0.285 N 
ATOM     15  C   UNL     1       3.597  -7.092  -7.508  0.00  0.00    +0.113 C 
ATOM     16  C   UNL     1       2.717  -8.296  -7.148  0.00  0.00    +0.024 C 
ATOM     17  C   UNL     1       3.571  -9.562  -7.190  0.00  0.00    +0.038 C 
ATOM     18  C   UNL     1       4.821  -9.383  -6.368  0.00  0.00    -0.026 A 
ATOM     19  C   UNL     1       5.306  -8.122  -6.052  0.00  0.00    +0.038 A 
ATOM     20  C   UNL     1       6.468  -7.991  -5.299  0.00  0.00    +0.024 A 
ATOM     21  C   UNL     1       7.143  -9.116  -4.868  0.00  0.00    +0.002 A 
ATOM     22  C   UNL     1       6.661 -10.373  -5.186  0.00  0.00    +0.000 A 
ATOM     23  C   UNL     1       5.499 -10.506  -5.927  0.00  0.00    +0.005 A 
ENDBRANCH   9  14
BRANCH   8  24
ATOM     24  N   UNL     1       3.373  -6.082  -4.112  0.00  0.00    -0.353 N 
ATOM     25  H   UNL     1       2.885  -5.727  -3.353  0.00  0.00    +0.143 HD
ATOM     26  H   UNL     1       3.202  -6.985  -4.420  0.00  0.00    +0.143 HD
ENDBRANCH   8  24
BRANCH   1  27
ATOM     27  C   UNL     1       3.652  -0.653  -0.094  0.00  0.00    +0.117 C 
BRANCH  27  31
ATOM     28  C   UNL     1      -0.086   1.413  -0.098  0.00  0.00    +0.000 A 
ATOM     29  C   UNL     1       1.097   2.127  -0.105  0.00  0.00    +0.000 A 
ATOM     30  C   UNL     1       2.307   1.458  -0.104  0.00  0.00    +0.005 A 
ATOM     31  C   UNL     1       2.333   0.076  -0.095  0.00  0.00    -0.026 A 
ATOM     32  C   UNL     1       1.150  -0.638  -0.086  0.00  0.00    +0.005 A 
ATOM     33  C   UNL     1      -0.060   0.031  -0.089  0.00  0.00    +0.000 A 
ENDBRANCH  27  31
BRANCH  27  34
ATOM     34  C   UNL     1       3.978  -1.102   1.307  0.00  0.00    -0.026 A 
ATOM     35  C   UNL     1       3.392  -2.244   1.820  0.00  0.00    +0.005 A 
ATOM     36  C   UNL     1       3.690  -2.657   3.106  0.00  0.00    +0.000 A 
ATOM     37  C   UNL     1       4.574  -1.927   3.878  0.00  0.00    +0.000 A 
ATOM     38  C   UNL     1       5.161  -0.785   3.365  0.00  0.00    +0.000 A 
ATOM     39  C   UNL     1       4.866  -0.375   2.078  0.00  0.00    +0.005 A 
ENDBRANCH  27  34
ENDBRANCH   1  27
TORSDOF 5
