REMARK  Name = ZINC37934027
REMARK  13 active torsions:
REMARK  status: ('A' for Active; 'I' for Inactive)
REMARK    1  A    between atoms: C_1  and  C_2
REMARK    2  A    between atoms: C_2  and  C_3
REMARK    3  A    between atoms: C_2  and  N_4
REMARK    4  A    between atoms: N_4  and  C_5
REMARK    5  A    between atoms: N_4  and  C_19
REMARK    6  A    between atoms: C_5  and  C_6
REMARK    7  A    between atoms: C_6  and  N_7
REMARK    8  A    between atoms: N_7  and  C_8
REMARK    9  A    between atoms: C_10  and  N_18
REMARK   10  A    between atoms: C_12  and  S_14
REMARK   11  A    between atoms: S_14  and  N_17
REMARK   12  A    between atoms: C_19  and  C_20
REMARK   13  A    between atoms: C_19  and  C_21
REMARK                            x       y       z     vdW  Elec       q    Type
REMARK                         _______ _______ _______ _____ _____    ______ ____
ROOT
ATOM      1  C   UNL     1      -3.297   3.384  -2.412  0.00  0.00    +0.031 A 
ATOM      2  C   UNL     1      -2.792   4.311  -1.511  0.00  0.00    +0.045 A 
ATOM      3  C   UNL     1      -3.048   5.663  -1.694  0.00  0.00    +0.028 A 
ATOM      4  C   UNL     1      -3.809   6.084  -2.777  0.00  0.00    +0.051 A 
ATOM      5  C   UNL     1      -4.311   5.159  -3.672  0.00  0.00    +0.108 A 
ATOM      6  C   UNL     1      -4.053   3.812  -3.496  0.00  0.00    +0.051 A 
ENDROOT
BRANCH   5   7
ATOM      7  S   UNL     1      -5.276   5.697  -5.045  0.00  0.00    +0.056 S 
ATOM      8  O   UNL     1      -6.085   4.594  -5.430  0.00  0.00    -0.153 OA
ATOM      9  O   UNL     1      -5.826   6.957  -4.686  0.00  0.00    -0.153 OA
BRANCH   7  10
ATOM     10  N   UNL     1      -4.230   5.977  -6.298  0.00  0.00    -0.204 NA
ATOM     11  H   UNL     1      -4.527   5.855  -7.214  0.00  0.00    +0.144 HD
ATOM     12  H   UNL     1      -3.321   6.263  -6.117  0.00  0.00    +0.144 HD
ENDBRANCH   7  10
ENDBRANCH   5   7
BRANCH   3  13
ATOM     13  N   UNL     1      -2.541   6.599  -0.789  0.00  0.00    -0.358 N 
ATOM     14  H   UNL     1      -2.010   6.304  -0.033  0.00  0.00    +0.142 HD
ATOM     15  H   UNL     1      -2.720   7.543  -0.918  0.00  0.00    +0.142 HD
ENDBRANCH   3  13
BRANCH   1  16
ATOM     16  N   UNL     1      -3.042   2.023  -2.231  0.00  0.00    -0.346 N 
ATOM     17  H   UNL     1      -3.392   1.376  -2.863  0.00  0.00    +0.146 HD
BRANCH  16  18
ATOM     18  C   UNL     1      -2.245   1.573  -1.087  0.00  0.00    +0.083 C 
BRANCH  18  19
ATOM     19  C   UNL     1      -2.116   0.048  -1.124  0.00  0.00    -0.059 C 
BRANCH  19  20
ATOM     20  N   UNL     1      -1.448  -0.416   0.099  0.00  0.00    +0.384 N 
ATOM     21  H   UNL     1      -1.932  -0.052   0.905  0.00  0.00    -0.081 HD
BRANCH  20  23
ATOM     22  C   UNL     1       0.438   0.208  -1.333  0.00  0.00    -0.014 C 
ATOM     23  C   UNL     1      -0.057   0.057   0.107  0.00  0.00    -0.074 C 
ATOM     24  C   UNL     1       0.017   1.410   0.817  0.00  0.00    -0.014 C 
ENDBRANCH  20  23
BRANCH  20  25
ATOM     25  C   UNL     1      -1.466  -1.885   0.139  0.00  0.00    -0.074 C 
ATOM     26  C   UNL     1      -0.882  -2.366   1.469  0.00  0.00    -0.014 C 
ATOM     27  C   UNL     1      -2.907  -2.381   0.005  0.00  0.00    -0.014 C 
ENDBRANCH  20  25
ENDBRANCH  19  20
ENDBRANCH  18  19
ENDBRANCH  16  18
ENDBRANCH   1  16
TORSDOF 9
