REMARK  Name = ZINC04843071
REMARK  3 active torsions:
REMARK  status: ('A' for Active; 'I' for Inactive)
REMARK    1  A    between atoms: C_1  and  C_2
REMARK    2  A    between atoms: N_4  and  C_5
REMARK    3  A    between atoms: C_8  and  C_11
REMARK                            x       y       z     vdW  Elec       q    Type
REMARK                         _______ _______ _______ _____ _____    ______ ____
ROOT
ATOM      1  C   UNL     1       1.154   3.170   0.013  0.00  0.00    +0.033 A 
ATOM      2  C   UNL     1       1.169   1.790   0.189  0.00  0.00    +0.024 A 
ATOM      3  C   UNL     1      -0.012   1.083   0.203  0.00  0.00    +0.015 A 
ATOM      4  C   UNL     1      -1.227   1.751   0.033  0.00  0.00    +0.037 A 
ATOM      5  C   UNL     1      -1.240   3.138  -0.137  0.00  0.00    +0.015 A 
ATOM      6  C   UNL     1      -0.054   3.839  -0.149  0.00  0.00    +0.024 A 
ENDROOT
BRANCH   4   7
ATOM      7  C   UNL     1      -2.495   0.995   0.041  0.00  0.00    +0.228 A 
ATOM      8  N   UNL     1      -2.595  -0.302   0.192  0.00  0.00    -0.209 NA
ATOM      9  C   UNL     1      -3.908  -0.646   0.149  0.00  0.00    +0.113 A 
ATOM     10  C   UNL     1      -4.590  -1.861   0.256  0.00  0.00    +0.051 A 
ATOM     11  C   UNL     1      -5.965  -1.884   0.162  0.00  0.00    +0.045 A 
ATOM     12  C   UNL     1      -6.675  -0.708  -0.037  0.00  0.00    +0.043 A 
ATOM     13  C   UNL     1      -6.014   0.499  -0.143  0.00  0.00    +0.087 A 
ATOM     14  C   UNL     1      -4.630   0.541  -0.051  0.00  0.00    +0.174 A 
ATOM     15  O   UNL     1      -3.718   1.537  -0.113  0.00  0.00    -0.434 OA
ATOM     16 CL   UNL     1      -6.913   1.963  -0.391  0.00  0.00    -0.080 Cl
ATOM     17 CL   UNL     1      -6.813  -3.393   0.293  0.00  0.00    -0.083 Cl
ENDBRANCH   4   7
BRANCH   1  21
ATOM     18  C   UNL     1       4.787   4.043  -0.413  0.00  0.00    +0.109 C 
ATOM     19  C   UNL     1       3.468   3.321  -0.506  0.00  0.00    +0.214 C 
ATOM     20  O   UNL     1       3.409   2.232  -1.038  0.00  0.00    -0.276 OA
ATOM     21  N   UNL     1       2.353   3.884   0.001  0.00  0.00    -0.286 N 
ATOM     22  H   UNL     1       2.385   4.786   0.356  0.00  0.00    +0.155 HD
ENDBRANCH   1  21
TORSDOF 2
