REMARK  Name = ZINC38989800
REMARK  8 active torsions:
REMARK  status: ('A' for Active; 'I' for Inactive)
REMARK    1  A    between atoms: C_6  and  C_7
REMARK    2  A    between atoms: C_9  and  C_13
REMARK    3  A    between atoms: C_17  and  S_21
REMARK    4  A    between atoms: N_19  and  N_20
REMARK    5  A    between atoms: S_21  and  C_22
REMARK    6  A    between atoms: C_22  and  C_23
REMARK    7  A    between atoms: N_25  and  C_26
REMARK    8  A    between atoms: C_28  and  C_33
REMARK                            x       y       z     vdW  Elec       q    Type
REMARK                         _______ _______ _______ _____ _____    ______ ____
ROOT
ATOM      1  C   UNL     1      -3.233  -3.172   1.300  0.00  0.00    +0.185 C 
ATOM      2  N   UNL     1      -2.520  -4.474   1.374  0.00  0.00    -0.234 NA
ATOM      3  N   UNL     1      -3.381  -5.316   2.209  0.00  0.00    -0.228 NA
ATOM      4  C   UNL     1      -4.745  -4.758   2.118  0.00  0.00    +0.214 C 
ATOM      5  N   UNL     1      -4.662  -3.576   1.226  0.00  0.00    -0.197 NA
ATOM      6  H   UNL     1      -1.608  -4.364   1.790  0.00  0.00    +0.143 HD
ATOM      7  H   UNL     1      -3.361  -6.275   1.898  0.00  0.00    +0.143 HD
ENDROOT
BRANCH   1  10
ATOM      8  C   UNL     1      -1.223  -0.805   0.042  0.00  0.00    +0.091 C 
ATOM      9  C   UNL     1      -1.325  -2.148   0.035  0.00  0.00    +0.034 C 
ATOM     10  C   UNL     1      -2.822  -2.400   0.044  0.00  0.00    +0.187 C 
ATOM     11  N   UNL     1      -3.390  -1.042   0.055  0.00  0.00    -0.176 NA
ATOM     12  N   UNL     1      -2.457  -0.236   0.059  0.00  0.00    -0.154 NA
BRANCH   8  18
ATOM     13  C   UNL     1       0.046   1.341   0.050  0.00  0.00    +0.013 A 
ATOM     14  C   UNL     1       1.238   2.037   0.046  0.00  0.00    +0.039 A 
ATOM     15  C   UNL     1       2.442   1.352   0.029  0.00  0.00    +0.123 A 
ATOM     16  C   UNL     1       2.456  -0.034   0.015  0.00  0.00    +0.039 A 
ATOM     17  C   UNL     1       1.269  -0.737   0.020  0.00  0.00    +0.013 A 
ATOM     18  C   UNL     1       0.056  -0.053   0.037  0.00  0.00    +0.002 A 
ATOM     19  F   UNL     1       3.607   2.037   0.025  0.00  0.00    -0.205 F 
ENDBRANCH   8  18
ENDBRANCH   1  10
BRANCH   5  20
ATOM     20  N   UNL     1      -5.530  -2.506   1.689  0.00  0.00    -0.264 NA
ATOM     21  H   UNL     1      -6.500  -2.780   1.638  0.00  0.00    +0.137 HD
ATOM     22  H   UNL     1      -5.284  -2.219   2.624  0.00  0.00    +0.137 HD
ENDBRANCH   5  20
BRANCH   4  23
ATOM     23  S   UNL     1      -5.875  -5.992   1.417  0.00  0.00    -0.115 S 
BRANCH  23  24
ATOM     24  C   UNL     1      -5.154  -6.379  -0.202  0.00  0.00    +0.168 C 
BRANCH  24  25
ATOM     25  C   UNL     1      -6.007  -7.406  -0.899  0.00  0.00    +0.227 C 
ATOM     26  O   UNL     1      -7.004  -7.835  -0.358  0.00  0.00    -0.275 OA
ATOM     27  N   UNL     1      -5.663  -7.849  -2.125  0.00  0.00    -0.284 N 
ATOM     28  H   UNL     1      -4.912  -7.449  -2.592  0.00  0.00    +0.155 HD
BRANCH  27  29
ATOM     29  C   UNL     1      -6.388  -8.885  -2.724  0.00  0.00    +0.052 A 
ATOM     30  C   UNL     1      -7.086  -9.791  -1.938  0.00  0.00    +0.037 A 
ATOM     31  C   UNL     1      -7.801 -10.813  -2.532  0.00  0.00    +0.057 A 
ATOM     32  C   UNL     1      -7.822 -10.934  -3.910  0.00  0.00    +0.014 A 
ATOM     33  C   UNL     1      -7.128 -10.034  -4.697  0.00  0.00    +0.022 A 
ATOM     34  C   UNL     1      -6.415  -9.006  -4.109  0.00  0.00    +0.062 A 
ATOM     35 CL   UNL     1      -5.550  -7.872  -5.097  0.00  0.00    -0.082 Cl
BRANCH  31  36
ATOM     36  C   UNL     1      -8.559 -11.796  -1.679  0.00  0.00    +0.417 C 
ATOM     37  F   UNL     1      -9.859 -11.325  -1.466  0.00  0.00    -0.166 F 
ATOM     38  F   UNL     1      -8.613 -13.034  -2.329  0.00  0.00    -0.166 F 
ATOM     39  F   UNL     1      -7.910 -11.944  -0.448  0.00  0.00    -0.166 F 
ENDBRANCH  31  36
ENDBRANCH  27  29
ENDBRANCH  24  25
ENDBRANCH  23  24
ENDBRANCH   4  23
TORSDOF 8
