REMARK  Name = ZINC13058029
REMARK  12 active torsions:
REMARK  status: ('A' for Active; 'I' for Inactive)
REMARK    1  A    between atoms: C_1  and  C_2
REMARK    2  A    between atoms: C_2  and  C_4
REMARK    3  A    between atoms: C_2  and  N_13
REMARK    4  A    between atoms: C_7  and  C_10
REMARK    5  A    between atoms: C_10  and  C_11
REMARK    6  A    between atoms: C_10  and  C_12
REMARK    7  A    between atoms: C_14  and  C_16
REMARK    8  A    between atoms: C_16  and  N_17
REMARK    9  A    between atoms: N_17  and  C_18
REMARK   10  A    between atoms: N_17  and  C_19
REMARK   11  A    between atoms: C_19  and  C_20
REMARK   12  A    between atoms: N_22  and  C_23
REMARK                            x       y       z     vdW  Elec       q    Type
REMARK                         _______ _______ _______ _____ _____    ______ ____
ROOT
ATOM      1  C   UNL     1      -3.473  -1.137  -1.130  0.00  0.00    +0.019 C 
ENDROOT
BRANCH   1   3
ATOM      2  N   UNL     1      -1.385  -0.472   0.017  0.00  0.00    -0.310 N 
ATOM      3  C   UNL     1      -2.060  -0.614  -1.141  0.00  0.00    +0.197 C 
ATOM      4  O   UNL     1      -1.530  -0.319  -2.191  0.00  0.00    -0.278 OA
ATOM      5  H   UNL     1      -1.808  -0.708   0.857  0.00  0.00    +0.149 HD
BRANCH   2   7
ATOM      6  C   UNL     1      -0.034   1.566   0.003  0.00  0.00    +0.033 C 
ATOM      7  C   UNL     1      -0.011   0.036   0.006  0.00  0.00    +0.100 C 
BRANCH   7   8
ATOM      8  C   UNL     1       0.716  -0.453   1.233  0.00  0.00    -0.027 A 
ATOM      9  C   UNL     1       0.062  -0.499   2.450  0.00  0.00    +0.006 A 
ATOM     10  C   UNL     1       0.729  -0.948   3.575  0.00  0.00    +0.004 A 
ATOM     11  C   UNL     1       2.048  -1.350   3.483  0.00  0.00    -0.045 A 
ATOM     12  C   UNL     1       2.701  -1.304   2.265  0.00  0.00    +0.004 A 
ATOM     13  C   UNL     1       2.033  -0.860   1.139  0.00  0.00    +0.006 A 
BRANCH  11  14
ATOM     14  C   UNL     1       2.775  -1.838   4.710  0.00  0.00    +0.013 C 
ATOM     15  C   UNL     1       3.242  -3.278   4.487  0.00  0.00    +0.012 C 
ATOM     16  C   UNL     1       3.987  -0.944   4.973  0.00  0.00    +0.012 C 
ENDBRANCH  11  14
ENDBRANCH   7   8
ENDBRANCH   2   7
ENDBRANCH   1   3
BRANCH   1  17
ATOM     17  N   UNL     1      -3.984  -1.197  -2.506  0.00  0.00    +0.389 N 
ATOM     18  C   UNL     1      -3.211  -2.183  -3.273  0.00  0.00    -0.095 C 
ATOM     19  H   UNL     1      -3.894  -0.289  -2.938  0.00  0.00    -0.081 HD
BRANCH  17  20
ATOM     20  C   UNL     1      -5.399  -1.592  -2.486  0.00  0.00    +0.019 C 
BRANCH  20  21
ATOM     21  C   UNL     1      -5.955  -1.535  -3.885  0.00  0.00    +0.201 C 
ATOM     22  O   UNL     1      -5.244  -1.198  -4.808  0.00  0.00    -0.278 OA
ATOM     23  N   UNL     1      -7.244  -1.858  -4.111  0.00  0.00    -0.286 N 
ATOM     24  H   UNL     1      -7.791  -2.204  -3.389  0.00  0.00    +0.155 HD
BRANCH  23  25
ATOM     25  C   UNL     1      -7.793  -1.695  -5.388  0.00  0.00    +0.052 A 
ATOM     26  C   UNL     1      -7.248  -0.768  -6.267  0.00  0.00    +0.025 A 
ATOM     27  C   UNL     1      -7.791  -0.609  -7.527  0.00  0.00    +0.002 A 
ATOM     28  C   UNL     1      -8.878  -1.372  -7.914  0.00  0.00    +0.002 A 
ATOM     29  C   UNL     1      -9.424  -2.296  -7.043  0.00  0.00    +0.022 A 
ATOM     30  C   UNL     1      -8.882  -2.464  -5.782  0.00  0.00    +0.062 A 
ATOM     31 CL   UNL     1      -9.563  -3.629  -4.691  0.00  0.00    -0.082 Cl
ENDBRANCH  23  25
ENDBRANCH  20  21
ENDBRANCH  17  20
ENDBRANCH   1  17
TORSDOF 8
