REMARK  Name = ZINC58441636
REMARK  2 active torsions:
REMARK  status: ('A' for Active; 'I' for Inactive)
REMARK    1  A    between atoms: C_12  and  C_14
REMARK    2  A    between atoms: N_16  and  C_17
REMARK                            x       y       z     vdW  Elec       q    Type
REMARK                         _______ _______ _______ _____ _____    ______ ____
ROOT
ATOM      1  C   UNL     1      -0.015   1.360   0.036  0.00  0.00    +0.002 A 
ATOM      2  C   UNL     1       1.161   2.088   0.038  0.00  0.00    +0.001 A 
ATOM      3  C   UNL     1       2.372   1.417  -0.023  0.00  0.00    +0.016 A 
ATOM      4  C   UNL     1       2.386   0.044  -0.066  0.00  0.00    +0.032 A 
ATOM      5  C   UNL     1       1.212  -0.719   0.010  0.00  0.00    +0.052 A 
ATOM      6  C   UNL     1       0.001  -0.017   0.018  0.00  0.00    +0.025 A 
ATOM      7  N   UNL     1       1.377  -2.111   0.175  0.00  0.00    -0.246 N 
ATOM      8  C   UNL     1       0.776  -3.147   0.808  0.00  0.00    +0.221 C 
ATOM      9  O   UNL     1      -0.355  -3.127   1.246  0.00  0.00    -0.275 OA
ATOM     10  C   UNL     1       1.713  -4.330   0.892  0.00  0.00    +0.100 C 
ATOM     11  C   UNL     1       3.073  -3.780   0.397  0.00  0.00    +0.056 C 
ATOM     12  C   UNL     1       2.604  -2.619  -0.496  0.00  0.00    +0.169 C 
ATOM     13  S   UNL     1       3.690  -1.156  -0.253  0.00  0.00    -0.088 S 
ENDROOT
BRANCH  12  14
ATOM     14  C   UNL     1       2.398  -3.013  -1.936  0.00  0.00    +0.252 C 
ATOM     15  O   UNL     1       1.327  -2.816  -2.472  0.00  0.00    -0.272 OA
ATOM     16  N   UNL     1       3.403  -3.583  -2.630  0.00  0.00    -0.282 N 
ATOM     17  H   UNL     1       4.282  -3.667  -2.228  0.00  0.00    +0.155 HD
BRANCH  16  18
ATOM     18  C   UNL     1       3.179  -4.054  -3.929  0.00  0.00    +0.053 A 
ATOM     19  C   UNL     1       1.899  -4.418  -4.325  0.00  0.00    +0.046 A 
ATOM     20  C   UNL     1       1.680  -4.882  -5.609  0.00  0.00    +0.061 A 
ATOM     21  C   UNL     1       2.736  -4.985  -6.499  0.00  0.00    +0.061 A 
ATOM     22  C   UNL     1       4.012  -4.623  -6.106  0.00  0.00    +0.043 A 
ATOM     23  C   UNL     1       4.235  -4.152  -4.826  0.00  0.00    +0.064 A 
ATOM     24 CL   UNL     1       5.836  -3.691  -4.336  0.00  0.00    -0.082 Cl
ATOM     25 CL   UNL     1       2.458  -5.569  -8.110  0.00  0.00    -0.082 Cl
ATOM     26 CL   UNL     1       0.080  -5.338  -6.105  0.00  0.00    -0.082 Cl
ENDBRANCH  16  18
ENDBRANCH  12  14
TORSDOF 2
