REMARK  Name = ZINC02200570
REMARK  5 active torsions:
REMARK  status: ('A' for Active; 'I' for Inactive)
REMARK    1  A    between atoms: C_4  and  C_7
REMARK    2  A    between atoms: C_8  and  C_25
REMARK    3  A    between atoms: C_9  and  C_17
REMARK    4  A    between atoms: C_11  and  C_15
REMARK    5  A    between atoms: C_12  and  N_14
REMARK                            x       y       z     vdW  Elec       q    Type
REMARK                         _______ _______ _______ _____ _____    ______ ____
ROOT
ATOM      1  C   UNL     1      -0.016   1.344   0.009  0.00  0.00    +0.151 C 
ATOM      2  C   UNL     1       1.111   2.039   0.288  0.00  0.00    +0.085 C 
ATOM      3  C   UNL     1       2.457   1.367   0.284  0.00  0.00    +0.110 C 
ATOM      4  C   UNL     1       2.370   0.045  -0.428  0.00  0.00    +0.099 C 
ATOM      5  C   UNL     1       1.173  -0.542  -0.667  0.00  0.00    +0.199 C 
ATOM      6  O   UNL     1       0.017   0.028  -0.282  0.00  0.00    -0.440 OA
ENDROOT
BRANCH   3   7
ATOM      7  C   UNL     1       2.907   1.142   1.705  0.00  0.00    -0.014 A 
ATOM      8  C   UNL     1       2.151   0.353   2.552  0.00  0.00    +0.006 A 
ATOM      9  C   UNL     1       2.563   0.145   3.855  0.00  0.00    +0.002 A 
ATOM     10  C   UNL     1       3.731   0.727   4.312  0.00  0.00    +0.021 A 
ATOM     11  C   UNL     1       4.488   1.517   3.466  0.00  0.00    +0.060 A 
ATOM     12  C   UNL     1       4.078   1.719   2.159  0.00  0.00    +0.063 A 
ATOM     13 CL   UNL     1       5.031   2.704   1.093  0.00  0.00    -0.082 Cl
ATOM     14 CL   UNL     1       5.954   2.248   4.040  0.00  0.00    -0.082 Cl
ENDBRANCH   3   7
BRANCH   1  18
ATOM     15  C   UNL     1      -3.751   3.362   0.038  0.00  0.00    +0.000 A 
ATOM     16  C   UNL     1      -2.683   3.900  -0.657  0.00  0.00    +0.001 A 
ATOM     17  C   UNL     1      -1.466   3.250  -0.671  0.00  0.00    +0.011 A 
ATOM     18  C   UNL     1      -1.315   2.045   0.019  0.00  0.00    +0.018 A 
ATOM     19  C   UNL     1      -2.399   1.504   0.714  0.00  0.00    +0.011 A 
ATOM     20  C   UNL     1      -3.608   2.169   0.725  0.00  0.00    +0.001 A 
ENDBRANCH   1  18
BRANCH   5  21
ATOM     21  N   UNL     1       1.139  -1.750  -1.319  0.00  0.00    -0.328 N 
ATOM     22  H   UNL     1       0.288  -2.181  -1.497  0.00  0.00    +0.145 HD
ATOM     23  H   UNL     1       1.965  -2.172  -1.602  0.00  0.00    +0.145 HD
ENDBRANCH   5  21
BRANCH   4  24
ATOM     24  C   UNL     1       3.572  -0.603  -0.860  0.00  0.00    +0.101 C 
ATOM     25  N   UNL     1       4.526  -1.117  -1.202  0.00  0.00    -0.191 NA
ENDBRANCH   4  24
BRANCH   2  26
ATOM     26  C   UNL     1       1.020   3.435   0.591  0.00  0.00    +0.099 C 
ATOM     27  N   UNL     1       0.949   4.543   0.831  0.00  0.00    -0.191 NA
ENDBRANCH   2  26
TORSDOF 5
