REMARK  Name = ZINC35317944
REMARK  3 active torsions:
REMARK  status: ('A' for Active; 'I' for Inactive)
REMARK    1  A    between atoms: C_6  and  C_7
REMARK    2  A    between atoms: C_9  and  C_12
REMARK    3  A    between atoms: N_21  and  C_22
REMARK                            x       y       z     vdW  Elec       q    Type
REMARK                         _______ _______ _______ _____ _____    ______ ____
ROOT
ATOM      1  C   UNL     1      -3.600  -4.373  -0.306  0.00  0.00    +0.095 C 
ATOM      2  C   UNL     1      -4.861  -4.302  -1.171  0.00  0.00    +0.016 C 
ATOM      3  C   UNL     1      -5.810  -5.439  -0.786  0.00  0.00    +0.020 C 
ATOM      4  C   UNL     1      -6.221  -5.280   0.681  0.00  0.00    +0.109 C 
ATOM      5  N   UNL     1      -5.008  -5.201   1.506  0.00  0.00    -0.285 N 
ATOM      6  C   UNL     1      -3.986  -4.202   1.167  0.00  0.00    +0.122 C 
ATOM      7  C   UNL     1      -4.836  -6.029   2.556  0.00  0.00    +0.306 C 
ATOM      8  O   UNL     1      -5.724  -6.795   2.877  0.00  0.00    -0.252 OA
ATOM      9  N   UNL     1      -3.681  -6.007   3.249  0.00  0.00    -0.269 N 
ATOM     10  H   UNL     1      -3.014  -5.328   3.060  0.00  0.00    +0.156 HD
ENDROOT
BRANCH   9  11
ATOM     11  C   UNL     1      -3.442  -6.965   4.243  0.00  0.00    +0.038 A 
ATOM     12  C   UNL     1      -3.938  -8.254   4.098  0.00  0.00    +0.026 A 
ATOM     13  C   UNL     1      -3.702  -9.199   5.079  0.00  0.00    +0.043 A 
ATOM     14  C   UNL     1      -2.971  -8.861   6.205  0.00  0.00    +0.159 A 
ATOM     15  C   UNL     1      -2.475  -7.575   6.352  0.00  0.00    +0.160 A 
ATOM     16  C   UNL     1      -2.705  -6.628   5.370  0.00  0.00    +0.064 A 
ATOM     17  F   UNL     1      -1.762  -7.247   7.452  0.00  0.00    -0.202 F 
ATOM     18  F   UNL     1      -2.742  -9.787   7.162  0.00  0.00    -0.202 F 
ENDBRANCH   9  11
BRANCH   1  21
ATOM     19  C   UNL     1      -0.878  -2.245  -1.418  0.00  0.00    +0.202 A 
ATOM     20  N   UNL     1      -1.440  -3.439  -1.156  0.00  0.00    -0.191 NA
ATOM     21  C   UNL     1      -2.652  -3.273  -0.709  0.00  0.00    +0.232 A 
ATOM     22  O   UNL     1      -2.913  -1.960  -0.668  0.00  0.00    -0.337 OA
ATOM     23  N   UNL     1      -1.742  -1.303  -1.129  0.00  0.00    -0.056 NA
BRANCH  19  29
ATOM     24  C   UNL     1       0.962  -0.737  -2.166  0.00  0.00    +0.013 A 
ATOM     25  C   UNL     1       2.238  -0.542  -2.652  0.00  0.00    +0.016 A 
ATOM     26  C   UNL     1       3.054  -1.629  -2.917  0.00  0.00    +0.018 A 
ATOM     27  C   UNL     1       2.594  -2.915  -2.695  0.00  0.00    +0.016 A 
ATOM     28  C   UNL     1       1.319  -3.121  -2.209  0.00  0.00    +0.013 A 
ATOM     29  C   UNL     1       0.494  -2.030  -1.941  0.00  0.00    +0.023 A 
ATOM     30 BR   UNL     1       4.802  -1.355  -3.584  0.00  0.00    -0.050 Br
ENDBRANCH  19  29
ENDBRANCH   1  21
TORSDOF 3
