REMARK  Name = ZINC14948988
REMARK  6 active torsions:
REMARK  status: ('A' for Active; 'I' for Inactive)
REMARK    1  A    between atoms: C_4  and  C_8
REMARK    2  A    between atoms: C_8  and  C_9
REMARK    3  A    between atoms: C_9  and  C_11
REMARK    4  A    between atoms: C_9  and  N_28
REMARK    5  A    between atoms: C_11  and  C_12
REMARK    6  A    between atoms: C_20  and  C_24
REMARK                            x       y       z     vdW  Elec       q    Type
REMARK                         _______ _______ _______ _____ _____    ______ ____
ROOT
ATOM      1  C   UNL     1       6.512  -1.111   2.595  0.00  0.00    +0.218 C 
ATOM      2  O   UNL     1       5.739  -0.836   3.489  0.00  0.00    -0.275 OA
ATOM      3  N   UNL     1       7.696  -1.687   2.882  0.00  0.00    -0.268 N 
ATOM      4  C   UNL     1       8.596  -2.192   1.827  0.00  0.00    +0.114 C 
ATOM      5  C   UNL     1       9.113  -3.576   2.230  0.00  0.00    +0.026 C 
ATOM      6  C   UNL     1       9.993  -3.471   3.481  0.00  0.00    +0.061 C 
ATOM      7  C   UNL     1       9.242  -2.682   4.526  0.00  0.00    +0.085 A 
ATOM      8  C   UNL     1       8.153  -1.839   4.210  0.00  0.00    +0.089 A 
ATOM      9  C   UNL     1       7.705  -1.283   5.350  0.00  0.00    +0.160 A 
ATOM     10  N   UNL     1       8.489  -1.746   6.363  0.00  0.00    -0.271 N 
ATOM     11  N   UNL     1       9.437  -2.627   5.810  0.00  0.00    -0.176 NA
ATOM     12  H   UNL     1       8.404  -1.515   7.301  0.00  0.00    +0.189 HD
ENDROOT
BRANCH   9  13
ATOM     13  C   UNL     1       6.550  -0.324   5.481  0.00  0.00    +0.435 C 
ATOM     14  F   UNL     1       6.609   0.309   6.728  0.00  0.00    -0.164 F 
ATOM     15  F   UNL     1       6.624   0.637   4.467  0.00  0.00    -0.164 F 
ATOM     16  F   UNL     1       5.346  -1.027   5.372  0.00  0.00    -0.164 F 
ENDBRANCH   9  13
BRANCH   1  17
ATOM     17  C   UNL     1       6.147  -0.809   1.164  0.00  0.00    +0.080 C 
BRANCH  17  18
ATOM     18  C   UNL     1       4.762  -0.161   1.117  0.00  0.00    -0.062 C 
BRANCH  18  19
ATOM     19  N   UNL     1       3.755  -1.125   1.579  0.00  0.00    +0.381 N 
ATOM     20  H   UNL     1       3.767  -1.938   0.980  0.00  0.00    -0.090 HD
ATOM     21  H   UNL     1       3.964  -1.403   2.526  0.00  0.00    -0.090 HD
ATOM     22  H   UNL     1       2.841  -0.699   1.547  0.00  0.00    -0.090 HD
ENDBRANCH  18  19
BRANCH  18  23
ATOM     23  C   UNL     1       4.445   0.259  -0.320  0.00  0.00    +0.022 C 
BRANCH  23  27
ATOM     24  C   UNL     1       0.734   2.379  -0.399  0.00  0.00    +0.041 A 
ATOM     25  C   UNL     1       1.907   3.051  -0.111  0.00  0.00    +0.041 A 
ATOM     26  C   UNL     1       3.109   2.365  -0.085  0.00  0.00    +0.127 A 
ATOM     27  C   UNL     1       3.136   1.005  -0.348  0.00  0.00    -0.011 A 
ATOM     28  C   UNL     1       1.963   0.334  -0.635  0.00  0.00    +0.044 A 
ATOM     29  C   UNL     1       0.761   1.020  -0.661  0.00  0.00    +0.124 A 
ATOM     30  F   UNL     1      -0.386   0.363  -0.942  0.00  0.00    -0.205 F 
ATOM     31  F   UNL     1       4.256   3.021   0.196  0.00  0.00    -0.205 F 
ENDBRANCH  23  27
ENDBRANCH  18  23
ENDBRANCH  17  18
ENDBRANCH   1  17
TORSDOF 6
