REMARK  Name = ZINC41077529
REMARK  5 active torsions:
REMARK  status: ('A' for Active; 'I' for Inactive)
REMARK    1  A    between atoms: C_1  and  C_2
REMARK    2  A    between atoms: C_5  and  C_8
REMARK    3  A    between atoms: C_14  and  C_18
REMARK    4  A    between atoms: C_18  and  N_19
REMARK    5  A    between atoms: N_27  and  C_28
REMARK                            x       y       z     vdW  Elec       q    Type
REMARK                         _______ _______ _______ _____ _____    ______ ____
ROOT
ATOM      1  C   UNL     1       0.423 -10.928  -0.386  0.00  0.00    +0.140 C 
ENDROOT
BRANCH   1   8
ATOM      2  C   UNL     1       0.473  -4.755   0.989  0.00  0.00    +0.132 A 
ATOM      3  N   UNL     1       0.605  -5.739   1.840  0.00  0.00    -0.154 NA
ATOM      4  N   UNL     1       0.578  -7.067   1.423  0.00  0.00    -0.171 N 
ATOM      5  C   UNL     1       0.704  -8.179   2.205  0.00  0.00    +0.275 A 
ATOM      6  O   UNL     1       0.858  -8.065   3.411  0.00  0.00    -0.266 OA
ATOM      7  C   UNL     1       0.654  -9.447   1.624  0.00  0.00    +0.096 A 
ATOM      8  C   UNL     1       0.479  -9.568   0.262  0.00  0.00    +0.063 A 
ATOM      9  N   UNL     1       0.359  -8.464  -0.471  0.00  0.00    -0.225 NA
ATOM     10  C   UNL     1       0.407  -7.278   0.082  0.00  0.00    +0.199 A 
ATOM     11  S   UNL     1       0.281  -5.623  -0.559  0.00  0.00    -0.028 S 
BRANCH   2  16
ATOM     12  C   UNL     1       0.480   0.914   1.984  0.00  0.00    +0.044 C 
ATOM     13  C   UNL     1       0.478  -0.570   1.724  0.00  0.00    -0.050 A 
ATOM     14  C   UNL     1       0.315  -1.043   0.434  0.00  0.00    +0.004 A 
ATOM     15  C   UNL     1       0.312  -2.401   0.189  0.00  0.00    +0.011 A 
ATOM     16  C   UNL     1       0.475  -3.298   1.245  0.00  0.00    +0.009 A 
ATOM     17  C   UNL     1       0.640  -2.815   2.543  0.00  0.00    +0.011 A 
ATOM     18  C   UNL     1       0.646  -1.454   2.774  0.00  0.00    +0.004 A 
ENDBRANCH   2  16
ENDBRANCH   1   8
BRANCH   1  19
ATOM     19  N   UNL     1      -0.913 -11.145  -0.956  0.00  0.00    -0.294 NA
ATOM     20  C   UNL     1      -1.932 -11.211   0.100  0.00  0.00    +0.104 C 
ATOM     21  C   UNL     1      -3.324 -11.255  -0.540  0.00  0.00    +0.124 C 
ATOM     22  N   UNL     1      -3.358 -12.361  -1.508  0.00  0.00    -0.283 N 
ATOM     23  C   UNL     1      -2.289 -12.440  -2.514  0.00  0.00    +0.124 C 
ATOM     24  C   UNL     1      -0.938 -12.349  -1.797  0.00  0.00    +0.104 C 
ATOM     25  C   UNL     1      -4.344 -13.280  -1.474  0.00  0.00    +0.307 C 
ATOM     26  O   UNL     1      -5.168 -13.254  -0.580  0.00  0.00    -0.252 OA
ATOM     27  N   UNL     1      -4.417 -14.226  -2.430  0.00  0.00    -0.267 N 
ATOM     28  H   UNL     1      -3.724 -14.287  -3.106  0.00  0.00    +0.156 HD
BRANCH  27  29
ATOM     29  C   UNL     1      -5.494 -15.122  -2.449  0.00  0.00    +0.070 A 
ATOM     30  C   UNL     1      -6.654 -14.830  -1.744  0.00  0.00    +0.026 A 
ATOM     31  C   UNL     1      -7.714 -15.715  -1.764  0.00  0.00    +0.002 A 
ATOM     32  C   UNL     1      -7.622 -16.892  -2.485  0.00  0.00    +0.003 A 
ATOM     33  C   UNL     1      -6.469 -17.187  -3.188  0.00  0.00    +0.040 A 
ATOM     34  C   UNL     1      -5.406 -16.303  -3.177  0.00  0.00    +0.145 A 
ATOM     35  F   UNL     1      -4.281 -16.588  -3.869  0.00  0.00    -0.204 F 
ENDBRANCH  27  29
ENDBRANCH   1  19
TORSDOF 4
