REMARK  Name = ZINC21319911
REMARK  9 active torsions:
REMARK  status: ('A' for Active; 'I' for Inactive)
REMARK    1  A    between atoms: C_1  and  C_2
REMARK    2  A    between atoms: C_5  and  N_8
REMARK    3  A    between atoms: C_9  and  C_11
REMARK    4  A    between atoms: C_11  and  S_12
REMARK    5  A    between atoms: S_12  and  C_13
REMARK    6  A    between atoms: N_17  and  N_18
REMARK    7  A    between atoms: N_19  and  N_20
REMARK    8  A    between atoms: C_21  and  C_22
REMARK    9  A    between atoms: C_27  and  O_28
REMARK                            x       y       z     vdW  Elec       q    Type
REMARK                         _______ _______ _______ _____ _____    ______ ____
ROOT
ATOM      1  C   UNL     1       3.989  -6.564  -0.530  0.00  0.00    +0.210 A 
ATOM      2  N   UNL     1       2.869  -7.245  -0.518  0.00  0.00    -0.119 NA
ATOM      3  N   UNL     1       3.186  -8.604  -0.648  0.00  0.00    -0.109 NA
ATOM      4  C   UNL     1       4.490  -8.709  -0.729  0.00  0.00    +0.254 A 
ATOM      5  N   UNL     1       5.021  -7.451  -0.657  0.00  0.00    -0.211 N 
ATOM      6  N   UNL     1       5.206  -9.890  -0.861  0.00  0.00    -0.204 N 
ATOM      7  H   UNL     1       6.304  -9.864  -0.919  0.00  0.00    +0.177 HD
ENDROOT
BRANCH   5   8
ATOM      8  N   UNL     1       6.349  -7.136  -0.706  0.00  0.00    -0.294 N 
ATOM      9  H   UNL     1       7.100  -7.933  -0.810  0.00  0.00    +0.163 HD
ATOM     10  H   UNL     1       6.668  -6.085  -0.640  0.00  0.00    +0.163 HD
ENDBRANCH   5   8
BRANCH   6  11
ATOM     11  N   UNL     1       4.531 -11.116  -0.922  0.00  0.00    -0.187 NA
ATOM     12  C   UNL     1       5.201 -12.221  -1.046  0.00  0.00    +0.142 C 
BRANCH  12  13
ATOM     13  C   UNL     1       4.491 -13.511  -1.110  0.00  0.00    +0.037 A 
ATOM     14  C   UNL     1       5.208 -14.702  -1.244  0.00  0.00    +0.033 A 
ATOM     15  C   UNL     1       4.536 -15.906  -1.303  0.00  0.00    +0.042 A 
ATOM     16  C   UNL     1       3.153 -15.938  -1.230  0.00  0.00    +0.023 A 
ATOM     17  C   UNL     1       2.433 -14.765  -1.098  0.00  0.00    +0.047 A 
ATOM     18  C   UNL     1       3.092 -13.549  -1.031  0.00  0.00    +0.126 A 
ATOM     19 CL   UNL     1       5.428 -17.386  -1.469  0.00  0.00    -0.084 Cl
BRANCH  18  20
ATOM     20  O   UNL     1       2.385 -12.397  -0.895  0.00  0.00    -0.506 OA
ATOM     21  H   UNL     1       1.287 -12.430  -0.833  0.00  0.00    +0.292 HD
ENDBRANCH  18  20
ENDBRANCH  12  13
ENDBRANCH   6  11
BRANCH   1  22
ATOM     22  S   UNL     1       4.139  -4.814  -0.398  0.00  0.00    -0.075 S 
BRANCH  22  23
ATOM     23  C   UNL     1       2.425  -4.236  -0.258  0.00  0.00    +0.173 C 
BRANCH  23  25
ATOM     24  N   UNL     1       1.237  -2.079  -0.020  0.00  0.00    -0.285 N 
ATOM     25  C   UNL     1       2.410  -2.734  -0.137  0.00  0.00    +0.227 C 
ATOM     26  O   UNL     1       3.452  -2.114  -0.144  0.00  0.00    -0.275 OA
ATOM     27  H   UNL     1       0.298  -2.645   0.073  0.00  0.00    +0.155 HD
BRANCH  24  32
ATOM     28  C   UNL     1       1.143   3.593  -0.015  0.00  0.00    +0.044 C 
ATOM     29  C   UNL     1       1.168   2.086  -0.017  0.00  0.00    -0.050 A 
ATOM     30  C   UNL     1       2.111   1.412  -0.771  0.00  0.00    +0.005 A 
ATOM     31  C   UNL     1       2.137   0.031  -0.774  0.00  0.00    +0.023 A 
ATOM     32  C   UNL     1       1.214  -0.680  -0.019  0.00  0.00    +0.033 A 
ATOM     33  C   UNL     1       0.268  -0.001   0.737  0.00  0.00    +0.023 A 
ATOM     34  C   UNL     1       0.248   1.380   0.736  0.00  0.00    +0.005 A 
ENDBRANCH  24  32
ENDBRANCH  23  25
ENDBRANCH  22  23
ENDBRANCH   1  22
TORSDOF 8
