REMARK  Name = ZINC04657021
REMARK  11 active torsions:
REMARK  status: ('A' for Active; 'I' for Inactive)
REMARK    1  A    between atoms: C_4  and  C_31
REMARK    2  A    between atoms: C_6  and  C_9
REMARK    3  A    between atoms: N_11  and  C_12
REMARK    4  A    between atoms: C_12  and  C_13
REMARK    5  A    between atoms: C_13  and  C_14
REMARK    6  A    between atoms: C_14  and  C_15
REMARK    7  A    between atoms: C_15  and  C_16
REMARK    8  A    between atoms: C_16  and  C_17
REMARK    9  A    between atoms: C_17  and  N_18
REMARK   10  A    between atoms: C_19  and  C_21
REMARK   11  A    between atoms: C_27  and  C_29
REMARK                            x       y       z     vdW  Elec       q    Type
REMARK                         _______ _______ _______ _____ _____    ______ ____
ROOT
ATOM      1  C   UNL     1      -2.805   7.728   4.829  0.00  0.00    +0.002 C 
ENDROOT
BRANCH   1   2
ATOM      2  C   UNL     1      -2.826   9.258   4.838  0.00  0.00    +0.019 C 
BRANCH   2   3
ATOM      3  C   UNL     1      -3.542   9.751   6.096  0.00  0.00    +0.104 C 
BRANCH   3   6
ATOM      4  C   UNL     1      -4.145  11.877   7.124  0.00  0.00    +0.217 C 
ATOM      5  O   UNL     1      -4.653  11.258   8.036  0.00  0.00    -0.275 OA
ATOM      6  N   UNL     1      -3.562  11.216   6.104  0.00  0.00    -0.315 N 
ATOM      7  H   UNL     1      -3.155  11.711   5.376  0.00  0.00    +0.149 HD
BRANCH   4  12
ATOM      8  C   UNL     1      -4.926  15.420   5.902  0.00  0.00    +0.001 C 
ATOM      9  C   UNL     1      -5.642  15.914   7.160  0.00  0.00    +0.001 C 
ATOM     10  C   UNL     1      -4.902  15.407   8.400  0.00  0.00    +0.015 C 
ATOM     11  C   UNL     1      -4.881  13.877   8.392  0.00  0.00    +0.114 C 
ATOM     12  C   UNL     1      -4.165  13.383   7.133  0.00  0.00    +0.089 C 
ATOM     13  C   UNL     1      -4.905  13.890   5.893  0.00  0.00    +0.013 C 
BRANCH  11  14
ATOM     14  C   UNL     1      -4.153  13.378   9.612  0.00  0.00    +0.360 C 
ATOM     15  O   UNL     1      -3.162  12.697   9.488  0.00  0.00    -0.246 OA
ATOM     16  O   UNL     1      -4.604  13.689  10.838  0.00  0.00    -0.246 OA
ENDBRANCH  11  14
ENDBRANCH   4  12
ENDBRANCH   3   6
ENDBRANCH   2   3
ENDBRANCH   1   2
BRANCH   1  17
ATOM     17  C   UNL     1      -2.089   7.235   3.570  0.00  0.00    +0.002 C 
BRANCH  17  18
ATOM     18  C   UNL     1      -2.068   5.705   3.562  0.00  0.00    +0.019 C 
BRANCH  18  19
ATOM     19  C   UNL     1      -1.352   5.211   2.303  0.00  0.00    +0.104 C 
BRANCH  19  20
ATOM     20  N   UNL     1      -1.332   3.747   2.295  0.00  0.00    -0.315 N 
ATOM     21  C   UNL     1      -0.749   3.086   1.275  0.00  0.00    +0.217 C 
ATOM     22  O   UNL     1      -0.241   3.704   0.364  0.00  0.00    -0.275 OA
ATOM     23  H   UNL     1      -1.739   3.252   3.024  0.00  0.00    +0.149 HD
BRANCH  21  24
ATOM     24  C   UNL     1      -0.729   1.579   1.267  0.00  0.00    +0.089 C 
ATOM     25  C   UNL     1       0.011   1.072   2.506  0.00  0.00    +0.013 C 
ATOM     26  C   UNL     1       1.446   1.602   2.495  0.00  0.00    +0.001 C 
ATOM     27  C   UNL     1       2.163   1.109   1.237  0.00  0.00    +0.001 C 
ATOM     28  C   UNL     1       1.423   1.615  -0.003  0.00  0.00    +0.015 C 
ATOM     29  C   UNL     1      -0.013   1.086   0.008  0.00  0.00    +0.114 C 
BRANCH  29  30
ATOM     30  C   UNL     1      -0.742   1.585  -1.213  0.00  0.00    +0.360 C 
ATOM     31  O   UNL     1      -1.732   2.266  -1.089  0.00  0.00    -0.246 OA
ATOM     32  O   UNL     1      -0.290   1.274  -2.438  0.00  0.00    -0.246 OA
ENDBRANCH  29  30
ENDBRANCH  21  24
ENDBRANCH  19  20
ENDBRANCH  18  19
ENDBRANCH  17  18
ENDBRANCH   1  17
TORSDOF 11
