REMARK  Name = ZINC40815677
REMARK  6 active torsions:
REMARK  status: ('A' for Active; 'I' for Inactive)
REMARK    1  A    between atoms: C_1  and  C_2
REMARK    2  A    between atoms: C_6  and  C_7
REMARK    3  A    between atoms: N_12  and  C_15
REMARK    4  A    between atoms: N_25  and  N_26
REMARK    5  A    between atoms: C_27  and  C_29
REMARK    6  A    between atoms: C_29  and  C_30
REMARK                            x       y       z     vdW  Elec       q    Type
REMARK                         _______ _______ _______ _____ _____    ______ ____
ROOT
ATOM      1  C   UNL     1       0.493   1.491   0.055  0.00  0.00    +0.048 C 
ATOM      2  C   UNL     1       0.078   0.042   0.058  0.00  0.00    +0.009 A 
ATOM      3  C   UNL     1      -0.173  -0.762  -1.061  0.00  0.00    +0.042 A 
ATOM      4  C   UNL     1      -0.522  -2.010  -0.602  0.00  0.00    +0.115 A 
ATOM      5  O   UNL     1      -0.487  -1.983   0.728  0.00  0.00    -0.454 OA
ATOM      6  C   UNL     1      -0.122  -0.752   1.152  0.00  0.00    +0.193 A 
ATOM      7  C   UNL     1      -0.873  -3.153  -1.520  0.00  0.00    +0.075 C 
ATOM      8  C   UNL     1      -1.274  -2.600  -2.891  0.00  0.00    +0.014 C 
ATOM      9  C   UNL     1      -0.194  -1.657  -3.431  0.00  0.00    +0.058 C 
ATOM     10  C   UNL     1      -0.108  -0.451  -2.507  0.00  0.00    +0.070 C 
ATOM     11  N   UNL     1       0.012   0.761  -2.954  0.00  0.00    -0.184 NA
ENDROOT
BRANCH   6  12
ATOM     12  C   UNL     1       0.029  -0.337   2.551  0.00  0.00    +0.282 C 
ATOM     13  O   UNL     1       0.227   0.833   2.821  0.00  0.00    -0.267 OA
ATOM     14  N   UNL     1      -0.050  -1.252   3.537  0.00  0.00    -0.292 N 
ATOM     15  C   UNL     1      -0.117  -2.687   3.224  0.00  0.00    +0.127 C 
ATOM     16  C   UNL     1       1.018  -3.404   3.965  0.00  0.00    +0.124 C 
ATOM     17  N   UNL     1       0.998  -2.985   5.373  0.00  0.00    -0.327 N 
ATOM     18  C   UNL     1       1.065  -1.551   5.687  0.00  0.00    +0.124 C 
ATOM     19  C   UNL     1      -0.065  -0.834   4.946  0.00  0.00    +0.127 C 
BRANCH  17  20
ATOM     20  C   UNL     1       0.915  -3.934   6.395  0.00  0.00    +0.030 A 
ATOM     21  C   UNL     1       1.047  -5.285   6.103  0.00  0.00    +0.023 A 
ATOM     22  C   UNL     1       0.966  -6.220   7.117  0.00  0.00    +0.002 A 
ATOM     23  C   UNL     1       0.753  -5.812   8.421  0.00  0.00    +0.000 A 
ATOM     24  C   UNL     1       0.621  -4.467   8.715  0.00  0.00    +0.002 A 
ATOM     25  C   UNL     1       0.707  -3.527   7.707  0.00  0.00    +0.023 A 
ENDBRANCH  17  20
ENDBRANCH   6  12
BRANCH  11  26
ATOM     26  N   UNL     1       0.068   0.996  -4.333  0.00  0.00    -0.206 N 
ATOM     27  C   UNL     1       0.193   2.255  -4.798  0.00  0.00    +0.237 C 
ATOM     28  O   UNL     1       0.257   3.185  -4.021  0.00  0.00    -0.274 OA
ATOM     29  H   UNL     1       0.017   0.253  -4.955  0.00  0.00    +0.177 HD
BRANCH  27  30
ATOM     30  C   UNL     1       0.253   2.509  -6.282  0.00  0.00    +0.132 C 
BRANCH  30  31
ATOM     31  C   UNL     1       0.392   3.988  -6.534  0.00  0.00    -0.039 A 
ATOM     32  C   UNL     1      -0.736   4.774  -6.674  0.00  0.00    +0.004 A 
ATOM     33  C   UNL     1      -0.608   6.131  -6.905  0.00  0.00    +0.000 A 
ATOM     34  C   UNL     1       0.648   6.702  -6.996  0.00  0.00    +0.000 A 
ATOM     35  C   UNL     1       1.776   5.915  -6.855  0.00  0.00    +0.000 A 
ATOM     36  C   UNL     1       1.648   4.559  -6.620  0.00  0.00    +0.004 A 
ENDBRANCH  30  31
ENDBRANCH  27  30
ENDBRANCH  11  26
TORSDOF 5
