REMARK  Name = ZINC54624570
REMARK  15 active torsions:
REMARK  status: ('A' for Active; 'I' for Inactive)
REMARK    1  A    between atoms: C_1  and  C_2
REMARK    2  A    between atoms: C_2  and  C_3
REMARK    3  A    between atoms: C_3  and  C_4
REMARK    4  A    between atoms: C_4  and  O_5
REMARK    5  A    between atoms: O_5  and  C_6
REMARK    6  A    between atoms: C_9  and  C_15
REMARK    7  A    between atoms: C_11  and  O_12
REMARK    8  A    between atoms: O_12  and  C_13
REMARK    9  A    between atoms: C_13  and  C_14
REMARK   10  A    between atoms: C_16  and  C_17
REMARK   11  A    between atoms: N_19  and  C_20
REMARK   12  A    between atoms: C_21  and  C_29
REMARK   13  A    between atoms: C_29  and  O_31
REMARK   14  A    between atoms: O_31  and  C_32
REMARK   15  A    between atoms: C_32  and  C_33
REMARK                            x       y       z     vdW  Elec       q    Type
REMARK                         _______ _______ _______ _____ _____    ______ ____
ROOT
ATOM      1  C   UNL     1       1.483 -10.338   2.212  0.00  0.00    +0.241 C 
ATOM      2  O   UNL     1       2.056 -10.804   3.180  0.00  0.00    -0.270 OA
ATOM      3  N   UNL     1       0.954 -11.159   1.283  0.00  0.00    -0.276 N 
ATOM      4  H   UNL     1       0.497 -10.787   0.512  0.00  0.00    +0.156 HD
ENDROOT
BRANCH   3   5
ATOM      5  C   UNL     1       1.062 -12.531   1.429  0.00  0.00    +0.087 A 
ATOM      6  C   UNL     1       0.588 -13.519   0.578  0.00  0.00    +0.091 A 
ATOM      7  C   UNL     1       0.834 -14.899   0.962  0.00  0.00    -0.021 A 
ATOM      8  C   UNL     1       1.508 -15.037   2.124  0.00  0.00    -0.004 A 
ATOM      9  S   UNL     1       1.803 -13.382   2.672  0.00  0.00    -0.077 S 
ATOM     10  C   UNL     1       1.910 -16.320   2.784  0.00  0.00    +0.043 C 
ATOM     11  C   UNL     1       1.115 -17.465   2.137  0.00  0.00    +0.005 C 
ATOM     12  C   UNL     1       1.199 -17.327   0.614  0.00  0.00    +0.005 C 
ATOM     13  C   UNL     1       0.391 -16.111   0.155  0.00  0.00    +0.037 C 
BRANCH   6  14
ATOM     14  C   UNL     1      -0.130 -13.187  -0.654  0.00  0.00    +0.342 C 
ATOM     15  O   UNL     1       0.483 -13.032  -1.693  0.00  0.00    -0.245 OA
BRANCH  14  16
ATOM     16  O   UNL     1      -1.472 -13.051  -0.636  0.00  0.00    -0.461 OA
BRANCH  16  17
ATOM     17  C   UNL     1      -2.107 -12.726  -1.874  0.00  0.00    +0.229 C 
ATOM     18  C   UNL     1      -3.618 -12.614  -1.659  0.00  0.00    +0.048 C 
ENDBRANCH  16  17
ENDBRANCH  14  16
ENDBRANCH   6  14
ENDBRANCH   3   5
BRANCH   1  20
ATOM     19  C   UNL     1       1.899  -8.067   2.989  0.00  0.00    +0.013 C 
ATOM     20  C   UNL     1       1.368  -8.889   2.058  0.00  0.00    +0.068 C 
BRANCH  19  24
ATOM     21  C   UNL     1       1.563  -3.860   2.537  0.00  0.00    +0.162 A 
ATOM     22  C   UNL     1       1.019  -4.706   1.579  0.00  0.00    +0.050 A 
ATOM     23  C   UNL     1       1.125  -6.072   1.722  0.00  0.00    +0.012 A 
ATOM     24  C   UNL     1       1.784  -6.610   2.834  0.00  0.00    -0.021 A 
ATOM     25  C   UNL     1       2.332  -5.756   3.798  0.00  0.00    +0.057 A 
ATOM     26  C   UNL     1       2.225  -4.388   3.644  0.00  0.00    +0.162 A 
BRANCH  21  27
ATOM     27  O   UNL     1       1.454  -2.514   2.391  0.00  0.00    -0.488 OA
BRANCH  27  28
ATOM     28  C   UNL     1       0.763  -2.041   1.233  0.00  0.00    +0.229 C 
BRANCH  28  29
ATOM     29  C   UNL     1       0.742  -0.511   1.242  0.00  0.00    +0.041 C 
BRANCH  29  31
ATOM     30  C   UNL     1      -0.019   1.526   0.010  0.00  0.00    +0.004 C 
ATOM     31  C   UNL     1       0.002  -0.004   0.002  0.00  0.00    -0.000 C 
ENDBRANCH  29  31
ENDBRANCH  28  29
ENDBRANCH  27  28
ENDBRANCH  21  27
BRANCH  26  32
ATOM     32  O   UNL     1       2.761  -3.555   4.576  0.00  0.00    -0.489 OA
BRANCH  32  33
ATOM     33  C   UNL     1       3.426  -4.165   5.685  0.00  0.00    +0.226 C 
ATOM     34  C   UNL     1       3.959  -3.077   6.620  0.00  0.00    +0.048 C 
ENDBRANCH  32  33
ENDBRANCH  26  32
ENDBRANCH  19  24
ENDBRANCH   1  20
TORSDOF 12
