REMARK  Name = ZINC11099505
REMARK  7 active torsions:
REMARK  status: ('A' for Active; 'I' for Inactive)
REMARK    1  A    between atoms: C_1  and  C_2
REMARK    2  A    between atoms: N_4  and  C_5
REMARK    3  A    between atoms: C_8  and  N_11
REMARK    4  A    between atoms: C_13  and  C_18
REMARK    5  A    between atoms: N_20  and  C_21
REMARK    6  A    between atoms: C_24  and  S_27
REMARK    7  A    between atoms: S_27  and  N_30
REMARK                            x       y       z     vdW  Elec       q    Type
REMARK                         _______ _______ _______ _____ _____    ______ ____
ROOT
ATOM      1  C   UNL     1      -4.089   6.519   7.805  0.00  0.00    +0.222 C 
ATOM      2  O   UNL     1      -4.080   6.745   6.614  0.00  0.00    -0.275 OA
ATOM      3  N   UNL     1      -4.205   7.535   8.683  0.00  0.00    -0.285 N 
ATOM      4  H   UNL     1      -4.297   7.350   9.630  0.00  0.00    +0.155 HD
ENDROOT
BRANCH   1   7
ATOM      5  N   UNL     1      -2.406   3.938   6.907  0.00  0.00    -0.271 N 
ATOM      6  C   UNL     1      -3.847   4.110   7.127  0.00  0.00    +0.127 C 
ATOM      7  C   UNL     1      -3.969   5.102   8.305  0.00  0.00    +0.102 C 
ATOM      8  C   UNL     1      -2.626   4.886   9.040  0.00  0.00    +0.110 C 
ATOM      9  C   UNL     1      -1.697   4.356   7.970  0.00  0.00    +0.221 C 
ATOM     10  O   UNL     1      -0.488   4.315   8.057  0.00  0.00    -0.275 OA
BRANCH   5  14
ATOM     11  C   UNL     1      -0.729   2.346   3.437  0.00  0.00    +0.033 A 
ATOM     12  C   UNL     1       0.081   2.648   4.525  0.00  0.00    +0.025 A 
ATOM     13  C   UNL     1      -0.474   3.180   5.671  0.00  0.00    +0.025 A 
ATOM     14  C   UNL     1      -1.843   3.403   5.742  0.00  0.00    +0.036 A 
ATOM     15  C   UNL     1      -2.653   3.096   4.657  0.00  0.00    +0.025 A 
ATOM     16  C   UNL     1      -2.098   2.569   3.508  0.00  0.00    +0.025 A 
BRANCH  11  20
ATOM     17  C   UNL     1      -0.001   1.649  -0.191  0.00  0.00    +0.109 C 
ATOM     18  C   UNL     1      -0.671   2.140   1.067  0.00  0.00    +0.214 C 
ATOM     19  O   UNL     1      -1.665   2.832   0.994  0.00  0.00    -0.276 OA
ATOM     20  N   UNL     1      -0.165   1.811   2.272  0.00  0.00    -0.286 N 
ATOM     21  H   UNL     1       0.589   1.204   2.332  0.00  0.00    +0.155 HD
ENDBRANCH  11  20
ENDBRANCH   5  14
ENDBRANCH   1   7
BRANCH   3  22
ATOM     22  C   UNL     1      -4.194   8.858   8.227  0.00  0.00    +0.034 A 
ATOM     23  C   UNL     1      -3.546   9.180   7.041  0.00  0.00    +0.025 A 
ATOM     24  C   UNL     1      -3.541  10.486   6.591  0.00  0.00    +0.030 A 
ATOM     25  C   UNL     1      -4.170  11.474   7.326  0.00  0.00    +0.109 A 
ATOM     26  C   UNL     1      -4.811  11.158   8.510  0.00  0.00    +0.030 A 
ATOM     27  C   UNL     1      -4.824   9.853   8.962  0.00  0.00    +0.025 A 
BRANCH  25  28
ATOM     28  S   UNL     1      -4.156  13.140   6.752  0.00  0.00    +0.074 S 
ATOM     29  O   UNL     1      -3.960  13.083   5.346  0.00  0.00    -0.150 OA
ATOM     30  O   UNL     1      -5.279  13.782   7.339  0.00  0.00    -0.150 OA
BRANCH  28  31
ATOM     31  N   UNL     1      -2.810  13.866   7.388  0.00  0.00    -0.194 N 
ATOM     32  C   UNL     1      -1.547  13.431   7.017  0.00  0.00    +0.177 A 
ATOM     33  N   UNL     1      -0.369  13.876   7.409  0.00  0.00    -0.232 NA
ATOM     34  C   UNL     1       0.749  13.344   6.953  0.00  0.00    +0.120 A 
ATOM     35  C   UNL     1       0.663  12.323   6.066  0.00  0.00    +0.068 A 
ATOM     36  S   UNL     1      -1.110  12.156   5.923  0.00  0.00    -0.059 S 
ATOM     37  H   UNL     1      -2.906  14.595   8.021  0.00  0.00    +0.176 HD
ENDBRANCH  28  31
ENDBRANCH  25  28
ENDBRANCH   3  22
TORSDOF 6
