REMARK  Name = ZINC36340893
REMARK  6 active torsions:
REMARK  status: ('A' for Active; 'I' for Inactive)
REMARK    1  A    between atoms: C_1  and  C_2
REMARK    2  A    between atoms: C_5  and  C_8
REMARK    3  A    between atoms: C_11  and  C_30
REMARK    4  A    between atoms: C_14  and  C_16
REMARK    5  A    between atoms: C_16  and  N_17
REMARK    6  A    between atoms: N_20  and  C_23
REMARK                            x       y       z     vdW  Elec       q    Type
REMARK                         _______ _______ _______ _____ _____    ______ ____
ROOT
ATOM      1  C   UNL     1       0.059  -4.275  -0.021  0.00  0.00    +0.137 C 
ATOM      2  C   UNL     1       1.479  -4.801   0.271  0.00  0.00    +0.087 C 
ATOM      3  C   UNL     1       1.317  -5.594   1.548  0.00  0.00    +0.070 C 
ATOM      4  N   UNL     1       0.087  -5.551   1.929  0.00  0.00    -0.181 NA
ATOM      5  N   UNL     1      -0.746  -4.810   1.088  0.00  0.00    -0.187 N 
ATOM      6  C   UNL     1      -2.068  -4.613   1.263  0.00  0.00    +0.219 C 
ATOM      7  O   UNL     1      -2.693  -3.946   0.465  0.00  0.00    -0.276 OA
ENDROOT
BRANCH   1  12
ATOM      8  C   UNL     1      -0.018   1.503   0.010  0.00  0.00    +0.044 C 
ATOM      9  C   UNL     1       0.002  -0.004   0.002  0.00  0.00    -0.050 A 
ATOM     10  C   UNL     1       0.006  -0.689  -1.199  0.00  0.00    +0.004 A 
ATOM     11  C   UNL     1       0.025  -2.071  -1.206  0.00  0.00    +0.006 A 
ATOM     12  C   UNL     1       0.040  -2.768  -0.013  0.00  0.00    -0.025 A 
ATOM     13  C   UNL     1       0.037  -2.084   1.188  0.00  0.00    +0.006 A 
ATOM     14  C   UNL     1       0.023  -0.702   1.195  0.00  0.00    +0.004 A 
ENDBRANCH   1  12
BRANCH   3  15
ATOM     15  C   UNL     1       2.400  -6.308   2.250  0.00  0.00    +0.016 A 
ATOM     16  C   UNL     1       3.702  -6.279   1.744  0.00  0.00    +0.011 A 
ATOM     17  C   UNL     1       4.710  -6.949   2.405  0.00  0.00    +0.001 A 
ATOM     18  C   UNL     1       4.435  -7.648   3.568  0.00  0.00    +0.001 A 
ATOM     19  C   UNL     1       3.149  -7.681   4.075  0.00  0.00    +0.020 A 
ATOM     20  C   UNL     1       2.131  -7.011   3.428  0.00  0.00    +0.050 A 
ATOM     21 CL   UNL     1       0.518  -7.047   4.070  0.00  0.00    -0.083 Cl
ENDBRANCH   3  15
BRANCH   6  22
ATOM     22  C   UNL     1      -2.770  -5.222   2.449  0.00  0.00    +0.021 C 
BRANCH  22  23
ATOM     23  N   UNL     1      -4.194  -4.863   2.413  0.00  0.00    +0.387 N 
ATOM     24  C   UNL     1      -4.818  -5.466   1.228  0.00  0.00    -0.059 C 
ATOM     25  C   UNL     1      -6.274  -4.999   1.126  0.00  0.00    +0.086 C 
ATOM     26  N   UNL     1      -6.953  -5.310   2.394  0.00  0.00    -0.331 N 
ATOM     27  C   UNL     1      -6.310  -4.884   3.647  0.00  0.00    +0.086 C 
ATOM     28  C   UNL     1      -4.852  -5.356   3.630  0.00  0.00    -0.059 C 
ATOM     29  H   UNL     1      -4.286  -3.860   2.365  0.00  0.00    -0.081 HD
BRANCH  26  30
ATOM     30  C   UNL     1      -8.174  -5.991   2.408  0.00  0.00    +0.065 A 
ATOM     31  C   UNL     1      -8.197  -7.377   2.477  0.00  0.00    +0.026 A 
ATOM     32  C   UNL     1      -9.405  -8.047   2.491  0.00  0.00    +0.002 A 
ATOM     33  C   UNL     1     -10.592  -7.339   2.436  0.00  0.00    +0.003 A 
ATOM     34  C   UNL     1     -10.574  -5.958   2.367  0.00  0.00    +0.040 A 
ATOM     35  C   UNL     1      -9.369  -5.280   2.358  0.00  0.00    +0.144 A 
ATOM     36  F   UNL     1      -9.352  -3.931   2.297  0.00  0.00    -0.204 F 
ENDBRANCH  26  30
ENDBRANCH  22  23
ENDBRANCH   6  22
TORSDOF 5
