REMARK  Name = ZINC35542186
REMARK  12 active torsions:
REMARK  status: ('A' for Active; 'I' for Inactive)
REMARK    1  A    between atoms: C_1  and  C_2
REMARK    2  A    between atoms: C_5  and  N_9
REMARK    3  A    between atoms: C_6  and  C_8
REMARK    4  A    between atoms: C_10  and  N_30
REMARK    5  A    between atoms: C_11  and  N_18
REMARK    6  A    between atoms: C_12  and  C_14
REMARK    7  A    between atoms: C_14  and  C_15
REMARK    8  A    between atoms: C_14  and  C_16
REMARK    9  A    between atoms: C_14  and  C_17
REMARK   10  A    between atoms: N_21  and  C_22
REMARK   11  A    between atoms: C_27  and  O_28
REMARK   12  A    between atoms: O_28  and  C_29
REMARK                            x       y       z     vdW  Elec       q    Type
REMARK                         _______ _______ _______ _____ _____    ______ ____
ROOT
ATOM      1  N   UNL     1       0.109  -4.402   0.036  0.00  0.00    -0.239 N 
ATOM      2  C   UNL     1      -0.855  -5.222   0.540  0.00  0.00    +0.139 A 
ATOM      3  C   UNL     1      -0.596  -6.483   0.086  0.00  0.00    +0.096 A 
ATOM      4  C   UNL     1       0.553  -6.423  -0.713  0.00  0.00    +0.063 A 
ATOM      5  N   UNL     1       0.970  -5.181  -0.747  0.00  0.00    -0.293 N 
ATOM      6  H   UNL     1       1.745  -4.858  -1.231  0.00  0.00    +0.187 HD
ENDROOT
BRANCH   1  11
ATOM      7  C   UNL     1       0.544   1.186   0.928  0.00  0.00    +0.044 C 
ATOM      8  C   UNL     1       0.429  -0.298   0.691  0.00  0.00    -0.050 A 
ATOM      9  C   UNL     1       0.168  -0.775  -0.580  0.00  0.00    +0.005 A 
ATOM     10  C   UNL     1       0.062  -2.134  -0.801  0.00  0.00    +0.028 A 
ATOM     11  C   UNL     1       0.217  -3.022   0.256  0.00  0.00    +0.068 A 
ATOM     12  C   UNL     1       0.478  -2.539   1.531  0.00  0.00    -0.025 A 
ATOM     13  C   UNL     1       0.589  -1.179   1.744  0.00  0.00    +0.008 A 
ATOM     14  C   UNL     1       0.647  -3.499   2.681  0.00  0.00    +0.046 C 
ENDBRANCH   1  11
BRANCH   3  15
ATOM     15  N   UNL     1      -1.352  -7.642   0.371  0.00  0.00    -0.265 N 
ATOM     16  C   UNL     1      -2.689  -7.555   0.518  0.00  0.00    +0.308 C 
ATOM     17  O   UNL     1      -3.254  -6.496   0.326  0.00  0.00    -0.252 OA
ATOM     18  N   UNL     1      -3.399  -8.642   0.879  0.00  0.00    -0.266 N 
ATOM     19  H   UNL     1      -0.909  -8.500   0.461  0.00  0.00    +0.157 HD
ATOM     20  H   UNL     1      -2.957  -9.500   0.976  0.00  0.00    +0.156 HD
BRANCH  18  21
ATOM     21  C   UNL     1      -4.776  -8.534   1.114  0.00  0.00    +0.077 A 
ATOM     22  C   UNL     1      -5.538  -7.636   0.380  0.00  0.00    +0.027 A 
ATOM     23  C   UNL     1      -6.896  -7.530   0.614  0.00  0.00    +0.002 A 
ATOM     24  C   UNL     1      -7.499  -8.318   1.577  0.00  0.00    +0.004 A 
ATOM     25  C   UNL     1      -6.746  -9.214   2.313  0.00  0.00    +0.047 A 
ATOM     26  C   UNL     1      -5.385  -9.330   2.081  0.00  0.00    +0.141 A 
BRANCH  26  27
ATOM     27  O   UNL     1      -4.644 -10.216   2.799  0.00  0.00    -0.493 OA
ATOM     28  C   UNL     1      -5.335 -11.000   3.773  0.00  0.00    +0.277 C 
ENDBRANCH  26  27
ENDBRANCH  18  21
ENDBRANCH   3  15
BRANCH   4  29
ATOM     29  C   UNL     1       1.197  -7.588  -1.418  0.00  0.00    +0.006 C 
ATOM     30  C   UNL     1       2.429  -7.102  -2.184  0.00  0.00    +0.017 C 
ATOM     31  C   UNL     1       1.618  -8.638  -0.388  0.00  0.00    +0.017 C 
ATOM     32  C   UNL     1       0.198  -8.207  -2.398  0.00  0.00    +0.017 C 
ENDBRANCH   4  29
BRANCH   2  33
ATOM     33  N   UNL     1      -1.912  -4.843   1.369  0.00  0.00    -0.342 N 
ATOM     34  H   UNL     1      -1.998  -3.920   1.654  0.00  0.00    +0.144 HD
ATOM     35  H   UNL     1      -2.561  -5.503   1.659  0.00  0.00    +0.144 HD
ENDBRANCH   2  33
TORSDOF 6
