REMARK  Name = ZINC32635010
REMARK  5 active torsions:
REMARK  status: ('A' for Active; 'I' for Inactive)
REMARK    1  A    between atoms: C_1  and  C_2
REMARK    2  A    between atoms: C_2  and  C_3
REMARK    3  A    between atoms: C_2  and  C_4
REMARK    4  A    between atoms: C_4  and  N_6
REMARK    5  A    between atoms: N_8  and  C_19
REMARK                            x       y       z     vdW  Elec       q    Type
REMARK                         _______ _______ _______ _____ _____    ______ ____
ROOT
ATOM      1  N   UNL     1      -1.709  -1.791  -0.477  0.00  0.00    -0.159 NA
ATOM      2  C   UNL     1      -2.893  -2.275  -0.120  0.00  0.00    +0.154 C 
ATOM      3  N   UNL     1      -4.060  -1.562   0.143  0.00  0.00    -0.273 N 
ATOM      4  C   UNL     1      -5.236  -2.360   0.265  0.00  0.00    +0.116 C 
ATOM      5  C   UNL     1      -6.563  -1.870   0.830  0.00  0.00    +0.190 C 
ATOM      6  S   UNL     1      -7.479  -3.484   0.753  0.00  0.00    -0.028 S 
ATOM      7  O   UNL     1      -8.220  -3.653   1.953  0.00  0.00    -0.174 OA
ATOM      8  O   UNL     1      -8.142  -3.581  -0.500  0.00  0.00    -0.174 OA
ATOM      9  C   UNL     1      -6.036  -4.643   0.766  0.00  0.00    +0.182 C 
ATOM     10  C   UNL     1      -4.887  -3.667   1.071  0.00  0.00    +0.097 C 
ATOM     11  S   UNL     1      -3.348  -3.999   0.125  0.00  0.00    -0.086 S 
ENDROOT
BRANCH   3  12
ATOM     12  C   UNL     1      -4.078  -0.169   0.279  0.00  0.00    +0.071 A 
ATOM     13  C   UNL     1      -4.151   0.639  -0.847  0.00  0.00    +0.027 A 
ATOM     14  C   UNL     1      -4.168   2.013  -0.711  0.00  0.00    +0.017 A 
ATOM     15  C   UNL     1      -4.113   2.587   0.547  0.00  0.00    +0.021 A 
ATOM     16  C   UNL     1      -4.039   1.786   1.673  0.00  0.00    +0.055 A 
ATOM     17  C   UNL     1      -4.028   0.409   1.543  0.00  0.00    +0.146 A 
ATOM     18  F   UNL     1      -3.962  -0.374   2.643  0.00  0.00    -0.204 F 
ATOM     19 BR   UNL     1      -4.137   4.469   0.728  0.00  0.00    -0.050 Br
ENDBRANCH   3  12
BRANCH   1  20
ATOM     20  C   UNL     1      -1.493  -0.478  -0.456  0.00  0.00    +0.241 C 
ATOM     21  O   UNL     1      -1.714   0.158   0.556  0.00  0.00    -0.273 OA
BRANCH  20  23
ATOM     22  C   UNL     1      -0.817   1.714  -1.397  0.00  0.00    +0.017 C 
ATOM     23  C   UNL     1      -0.976   0.221  -1.687  0.00  0.00    +0.071 C 
ATOM     24  C   UNL     1       0.381  -0.370  -2.076  0.00  0.00    +0.017 C 
ENDBRANCH  20  23
ENDBRANCH   1  20
TORSDOF 3
