REMARK  Name = ZINC22974465
REMARK  9 active torsions:
REMARK  status: ('A' for Active; 'I' for Inactive)
REMARK    1  A    between atoms: C_1  and  C_2
REMARK    2  A    between atoms: C_2  and  C_3
REMARK    3  A    between atoms: C_2  and  C_4
REMARK    4  A    between atoms: N_6  and  C_7
REMARK    5  A    between atoms: C_10  and  N_13
REMARK    6  A    between atoms: C_14  and  C_16
REMARK    7  A    between atoms: C_18  and  S_23
REMARK    8  A    between atoms: S_23  and  N_26
REMARK    9  A    between atoms: N_26  and  C_27
REMARK                            x       y       z     vdW  Elec       q    Type
REMARK                         _______ _______ _______ _____ _____    ______ ____
ROOT
ATOM      1  N   UNL     1      -1.263   7.716  -0.369  0.00  0.00    -0.281 N 
ATOM      2  C   UNL     1      -0.114   8.392  -0.574  0.00  0.00    +0.249 C 
ATOM      3  O   UNL     1       0.947   7.798  -0.582  0.00  0.00    -0.270 OA
ATOM      4  H   UNL     1      -2.214   8.262  -0.285  0.00  0.00    +0.155 HD
ENDROOT
BRANCH   2   5
ATOM      5  C   UNL     1      -0.145   9.854  -0.787  0.00  0.00    +0.053 A 
ATOM      6  C   UNL     1      -1.362  10.538  -0.778  0.00  0.00    +0.042 A 
ATOM      7  C   UNL     1      -1.383  11.903  -0.978  0.00  0.00    +0.106 A 
ATOM      8  C   UNL     1      -0.202  12.594  -1.187  0.00  0.00    +0.029 A 
ATOM      9  C   UNL     1       1.007  11.923  -1.198  0.00  0.00    +0.018 A 
ATOM     10  C   UNL     1       1.044  10.557  -0.993  0.00  0.00    +0.030 A 
ATOM     11 BR   UNL     1       2.699   9.643  -1.000  0.00  0.00    -0.050 Br
BRANCH   7  12
ATOM     12  S   UNL     1      -2.918  12.768  -0.967  0.00  0.00    +0.059 S 
ATOM     13  O   UNL     1      -2.719  13.957  -1.719  0.00  0.00    -0.153 OA
ATOM     14  O   UNL     1      -3.922  11.818  -1.294  0.00  0.00    -0.153 OA
BRANCH  12  15
ATOM     15  N   UNL     1      -3.203  13.239   0.595  0.00  0.00    -0.187 NA
ATOM     16  H   UNL     1      -3.957  12.703   1.189  0.00  0.00    +0.148 HD
BRANCH  15  17
ATOM     17  C   UNL     1      -2.313  14.206   1.243  0.00  0.00    +0.077 C 
ATOM     18  C   UNL     1      -2.074  14.050   2.746  0.00  0.00    +0.022 C 
ATOM     19  C   UNL     1      -2.941  15.197   2.224  0.00  0.00    +0.022 C 
ENDBRANCH  15  17
ENDBRANCH  12  15
ENDBRANCH   7  12
ENDBRANCH   2   5
BRANCH   1  23
ATOM     20  C   UNL     1      -1.209   3.559  -0.056  0.00  0.00    +0.034 A 
ATOM     21  C   UNL     1      -2.282   4.196  -0.667  0.00  0.00    +0.025 A 
ATOM     22  C   UNL     1      -2.302   5.573  -0.766  0.00  0.00    +0.025 A 
ATOM     23  C   UNL     1      -1.245   6.321  -0.265  0.00  0.00    +0.034 A 
ATOM     24  C   UNL     1      -0.170   5.684   0.342  0.00  0.00    +0.025 A 
ATOM     25  C   UNL     1      -0.152   4.307   0.445  0.00  0.00    +0.025 A 
BRANCH  20  28
ATOM     26  C   UNL     1      -2.349   1.473   0.067  0.00  0.00    +0.220 C 
ATOM     27  O   UNL     1      -3.407   2.066   0.102  0.00  0.00    -0.275 OA
ATOM     28  N   UNL     1      -1.191   2.163   0.049  0.00  0.00    -0.285 N 
ATOM     29  H   UNL     1      -0.232   1.629   0.116  0.00  0.00    +0.155 HD
BRANCH  26  31
ATOM     30  C   UNL     1      -1.568  -0.546   1.275  0.00  0.00    +0.017 C 
ATOM     31  C   UNL     1      -2.329  -0.033   0.051  0.00  0.00    +0.069 C 
ATOM     32  C   UNL     1      -3.765  -0.563   0.085  0.00  0.00    +0.017 C 
ENDBRANCH  26  31
ENDBRANCH  20  28
ENDBRANCH   1  23
TORSDOF 7
