REMARK  Name = ZINC13448631
REMARK  11 active torsions:
REMARK  status: ('A' for Active; 'I' for Inactive)
REMARK    1  A    between atoms: C_1  and  C_2
REMARK    2  A    between atoms: C_3  and  C_24
REMARK    3  A    between atoms: C_7  and  S_9
REMARK    4  A    between atoms: S_9  and  C_10
REMARK    5  A    between atoms: C_10  and  C_12
REMARK    6  A    between atoms: C_10  and  C_13
REMARK    7  A    between atoms: N_15  and  C_16
REMARK    8  A    between atoms: C_16  and  C_17
REMARK    9  A    between atoms: C_17  and  C_18
REMARK   10  A    between atoms: C_24  and  C_25
REMARK   11  A    between atoms: C_25  and  C_26
REMARK                            x       y       z     vdW  Elec       q    Type
REMARK                         _______ _______ _______ _____ _____    ______ ____
ROOT
ATOM      1  S   UNL     1       0.211   2.566  -4.886  0.00  0.00    -0.073 S 
ENDROOT
BRANCH   1   8
ATOM      2  C   UNL     1      -0.013   1.086   0.008  0.00  0.00    +0.066 C 
ATOM      3  C   UNL     1      -0.742   1.585  -1.213  0.00  0.00    +0.049 A 
ATOM      4  C   UNL     1      -2.106   1.799  -1.173  0.00  0.00    +0.040 A 
ATOM      5  C   UNL     1      -2.742   2.262  -2.325  0.00  0.00    +0.277 A 
ATOM      6  O   UNL     1      -4.078   2.486  -2.329  0.00  0.00    -0.265 OA
ATOM      7  N   UNL     1      -2.019   2.481  -3.416  0.00  0.00    -0.183 NA
ATOM      8  C   UNL     1      -0.712   2.263  -3.415  0.00  0.00    +0.193 A 
ATOM      9  N   UNL     1      -0.080   1.829  -2.334  0.00  0.00    -0.227 NA
BRANCH   4  10
ATOM     10  C   UNL     1      -2.890   1.538   0.087  0.00  0.00    +0.054 C 
BRANCH  10  11
ATOM     11  C   UNL     1      -2.930   2.810   0.936  0.00  0.00    +0.130 C 
BRANCH  11  12
ATOM     12  C   UNL     1      -3.714   2.549   2.197  0.00  0.00    +0.356 C 
ATOM     13  O   UNL     1      -4.197   1.447   2.397  0.00  0.00    -0.246 OA
ATOM     14  O   UNL     1      -3.866   3.439   3.016  0.00  0.00    -0.246 OA
ENDBRANCH  11  12
ENDBRANCH  10  11
ENDBRANCH   4  10
ENDBRANCH   1   8
BRANCH   1  15
ATOM     15  C   UNL     1      -1.034   3.142  -6.074  0.00  0.00    +0.137 C 
ATOM     16  C   UNL     1      -2.021   2.010  -6.366  0.00  0.00    +0.029 C 
BRANCH  15  17
ATOM     17  C   UNL     1      -0.353   3.557  -7.353  0.00  0.00    +0.226 C 
ATOM     18  O   UNL     1       0.724   3.083  -7.648  0.00  0.00    -0.275 OA
ATOM     19  N   UNL     1      -0.941   4.454  -8.168  0.00  0.00    -0.314 N 
ATOM     20  H   UNL     1      -1.802   4.833  -7.932  0.00  0.00    +0.149 HD
BRANCH  19  21
ATOM     21  C   UNL     1      -0.279   4.858  -9.412  0.00  0.00    +0.108 C 
BRANCH  21  22
ATOM     22  C   UNL     1      -1.152   5.878 -10.146  0.00  0.00    +0.049 C 
BRANCH  22  23
ATOM     23  C   UNL     1      -0.471   6.293 -11.424  0.00  0.00    -0.072 C 
ATOM     24  C   UNL     1      -0.801   5.678 -12.515  0.00  0.00    -0.028 C 
ATOM     25  C   UNL     1      -0.204   5.973 -13.860  0.00  0.00    +0.027 C 
ATOM     26  C   UNL     1       0.495   7.334 -13.839  0.00  0.00    +0.004 C 
ATOM     27  C   UNL     1       1.416   7.388 -12.614  0.00  0.00    +0.005 C 
ATOM     28  C   UNL     1       0.543   7.398 -11.356  0.00  0.00    +0.030 C 
ENDBRANCH  22  23
ENDBRANCH  21  22
ENDBRANCH  19  21
ENDBRANCH  15  17
ENDBRANCH   1  15
TORSDOF 9
