REMARK  Name = ZINC08126665
REMARK  7 active torsions:
REMARK  status: ('A' for Active; 'I' for Inactive)
REMARK    1  A    between atoms: C_1  and  N_59
REMARK    2  A    between atoms: C_2  and  C_3
REMARK    3  A    between atoms: C_2  and  N_59
REMARK    4  A    between atoms: N_5  and  C_6
REMARK    5  A    between atoms: C_10  and  S_12
REMARK    6  A    between atoms: S_12  and  N_15
REMARK    7  A    between atoms: C_20  and  N_59
REMARK                            x       y       z     vdW  Elec       q    Type
REMARK                         _______ _______ _______ _____ _____    ______ ____
ROOT
ATOM      1  C   UNL     1      -0.205   1.496   0.263  0.00  0.00    +0.201 C 
ATOM      2  O   UNL     1      -0.347   0.295   0.168  0.00  0.00    -0.278 OA
ATOM      3  N   UNL     1      -1.274   2.285   0.492  0.00  0.00    -0.287 N 
ATOM      4  H   UNL     1      -1.152   3.235   0.643  0.00  0.00    +0.155 HD
ENDROOT
BRANCH   3   5
ATOM      5  C   UNL     1      -2.559   1.732   0.513  0.00  0.00    +0.035 A 
ATOM      6  C   UNL     1      -2.870   0.662  -0.316  0.00  0.00    +0.023 A 
ATOM      7  C   UNL     1      -4.138   0.116  -0.290  0.00  0.00    +0.004 A 
ATOM      8  C   UNL     1      -5.101   0.641   0.552  0.00  0.00    +0.028 A 
ATOM      9  C   UNL     1      -4.796   1.710   1.375  0.00  0.00    +0.107 A 
ATOM     10  C   UNL     1      -3.528   2.257   1.357  0.00  0.00    +0.051 A 
BRANCH   9  11
ATOM     11  S   UNL     1      -6.027   2.375   2.446  0.00  0.00    +0.061 S 
ATOM     12  O   UNL     1      -6.973   1.338   2.671  0.00  0.00    -0.153 OA
ATOM     13  O   UNL     1      -5.336   3.019   3.508  0.00  0.00    -0.153 OA
BRANCH  11  14
ATOM     14  N   UNL     1      -6.818   3.563   1.606  0.00  0.00    -0.177 NA
ATOM     15  C   UNL     1      -6.445   4.985   1.578  0.00  0.00    +0.109 C 
ATOM     16  C   UNL     1      -7.477   5.711   0.689  0.00  0.00    +0.018 C 
ATOM     17  C   UNL     1      -8.702   4.759   0.733  0.00  0.00    +0.018 C 
ATOM     18  C   UNL     1      -8.015   3.371   0.768  0.00  0.00    +0.109 C 
ENDBRANCH  11  14
ENDBRANCH   9  11
ENDBRANCH   3   5
BRANCH   1  19
ATOM     19  C   UNL     1       1.165   2.107   0.120  0.00  0.00    +0.019 C 
BRANCH  19  21
ATOM     20  C   UNL     1       2.069   0.566  -1.515  0.00  0.00    -0.095 C 
ATOM     21  N   UNL     1       2.144   1.024  -0.112  0.00  0.00    +0.388 N 
ATOM     22  H   UNL     1       1.923   0.236   0.509  0.00  0.00    -0.081 HD
BRANCH  21  23
ATOM     23  C   UNL     1       3.509   1.504   0.190  0.00  0.00    -0.037 C 
ATOM     24  C   UNL     1       3.914   2.603  -0.791  0.00  0.00    -0.010 C 
ATOM     25  C   UNL     1       5.401   2.914  -0.582  0.00  0.00    +0.003 C 
ATOM     26  C   UNL     1       6.216   1.723  -1.082  0.00  0.00    +0.035 C 
ATOM     27  C   UNL     1       5.705   0.441  -0.479  0.00  0.00    -0.046 A 
ATOM     28  C   UNL     1       4.460   0.339   0.102  0.00  0.00    -0.058 A 
ATOM     29  C   UNL     1       4.046  -0.875   0.633  0.00  0.00    +0.002 A 
ATOM     30  C   UNL     1       4.873  -1.979   0.588  0.00  0.00    +0.000 A 
ATOM     31  C   UNL     1       6.124  -1.876   0.008  0.00  0.00    +0.000 A 
ATOM     32  C   UNL     1       6.536  -0.671  -0.523  0.00  0.00    +0.004 A 
ENDBRANCH  21  23
ENDBRANCH  19  21
ENDBRANCH   1  19
TORSDOF 6
