REMARK  Name = ZINC09915618
REMARK  12 active torsions:
REMARK  status: ('A' for Active; 'I' for Inactive)
REMARK    1  A    between atoms: C_1  and  C_2
REMARK    2  A    between atoms: C_2  and  C_28
REMARK    3  A    between atoms: C_3  and  C_26
REMARK    4  A    between atoms: C_3  and  O_27
REMARK    5  A    between atoms: C_4  and  C_24
REMARK    6  A    between atoms: C_4  and  O_25
REMARK    7  A    between atoms: C_5  and  C_22
REMARK    8  A    between atoms: C_5  and  O_23
REMARK    9  A    between atoms: C_6  and  C_8
REMARK   10  A    between atoms: C_6  and  O_9
REMARK   11  A    between atoms: O_9  and  C_10
REMARK   12  A    between atoms: C_28  and  O_29
REMARK                            x       y       z     vdW  Elec       q    Type
REMARK                         _______ _______ _______ _____ _____    ______ ____
ROOT
ATOM      1  C   UNL     1       0.384   3.472   1.288  0.00  0.00    +0.047 C 
ATOM      2  C   UNL     1       1.143   3.102   0.008  0.00  0.00    +0.125 C 
ATOM      3  C   UNL     1       2.546   3.692   0.038  0.00  0.00    +0.125 C 
ATOM      4  C   UNL     1       2.657   5.106  -0.506  0.00  0.00    +0.129 C 
ATOM      5  C   UNL     1       1.783   5.364  -1.724  0.00  0.00    +0.159 C 
ATOM      6  C   UNL     1       0.367   4.825  -1.539  0.00  0.00    +0.242 C 
ATOM      7  O   UNL     1       0.402   3.469  -1.138  0.00  0.00    -0.326 OA
ATOM      8  C   UNL     1      -0.362   4.915  -2.894  0.00  0.00    +0.092 C 
ATOM      9  C   UNL     1       1.706   6.880  -1.973  0.00  0.00    +0.051 C 
ATOM     10  C   UNL     1       2.352   6.130   0.594  0.00  0.00    +0.047 C 
ATOM     11  C   UNL     1       3.491   2.768  -0.748  0.00  0.00    +0.047 C 
ENDROOT
BRANCH   5  12
ATOM     12  O   UNL     1       2.371   4.753  -2.881  0.00  0.00    -0.379 OA
ATOM     13  H   UNL     1       1.863   4.880  -3.694  0.00  0.00    +0.211 HD
ENDBRANCH   5  12
BRANCH   4  14
ATOM     14  O   UNL     1       4.032   5.315  -0.904  0.00  0.00    -0.383 OA
ATOM     15  H   UNL     1       4.207   6.194  -1.267  0.00  0.00    +0.210 HD
ENDBRANCH   4  14
BRANCH   3  16
ATOM     16  O   UNL     1       2.998   3.699   1.408  0.00  0.00    -0.383 OA
ATOM     17  H   UNL     1       3.034   2.823   1.815  0.00  0.00    +0.210 HD
ENDBRANCH   3  16
BRANCH   6  18
ATOM     18  O   UNL     1      -0.352   5.626  -0.602  0.00  0.00    -0.456 OA
BRANCH  18  19
ATOM     19  C   UNL     1      -1.600   5.203  -0.256  0.00  0.00    +0.151 A 
ATOM     20  C   UNL     1      -2.228   4.106  -0.714  0.00  0.00    +0.130 A 
ATOM     21  N   UNL     1      -3.471   4.005  -0.136  0.00  0.00    -0.358 N 
ATOM     22  H   UNL     1      -4.110   3.296  -0.307  0.00  0.00    +0.165 HD
ATOM     23  C   UNL     1      -3.676   5.066   0.719  0.00  0.00    +0.052 A 
ATOM     24  C   UNL     1      -2.516   5.861   0.682  0.00  0.00    +0.061 A 
ATOM     25  C   UNL     1      -2.439   7.019   1.460  0.00  0.00    +0.068 A 
ATOM     26  C   UNL     1      -3.504   7.374   2.260  0.00  0.00    +0.037 A 
ATOM     27  C   UNL     1      -4.648   6.588   2.295  0.00  0.00    +0.019 A 
ATOM     28  C   UNL     1      -4.738   5.444   1.534  0.00  0.00    +0.027 A 
ATOM     29 BR   UNL     1      -3.405   8.940   3.315  0.00  0.00    -0.049 Br
ATOM     30 CL   UNL     1      -1.011   8.005   1.418  0.00  0.00    -0.082 Cl
ENDBRANCH  18  19
ENDBRANCH   6  18
BRANCH   2  31
ATOM     31  C   UNL     1       1.286   1.562  -0.002  0.00  0.00    +0.193 C 
BRANCH  31  32
ATOM     32  O   UNL     1      -0.011   0.963   0.007  0.00  0.00    -0.392 OA
ATOM     33  H   UNL     1       0.002  -0.004   0.002  0.00  0.00    +0.210 HD
ENDBRANCH  31  32
ENDBRANCH   2  31
TORSDOF 7
