REMARK  Name = ZINC33170992
REMARK  8 active torsions:
REMARK  status: ('A' for Active; 'I' for Inactive)
REMARK    1  A    between atoms: C_1  and  C_2
REMARK    2  A    between atoms: C_3  and  N_25
REMARK    3  A    between atoms: C_4  and  C_7
REMARK    4  A    between atoms: C_8  and  C_9
REMARK    5  A    between atoms: C_12  and  S_15
REMARK    6  A    between atoms: S_15  and  N_18
REMARK    7  A    between atoms: N_18  and  C_19
REMARK    8  A    between atoms: C_26  and  C_28
REMARK                            x       y       z     vdW  Elec       q    Type
REMARK                         _______ _______ _______ _____ _____    ______ ____
ROOT
ATOM      1  C   UNL     1      -6.298   2.244   0.785  0.00  0.00    -0.025 A 
ATOM      2  C   UNL     1      -6.125   0.857   0.783  0.00  0.00    +0.010 A 
ATOM      3  C   UNL     1      -7.209   0.030   0.990  0.00  0.00    +0.029 A 
ATOM      4  C   UNL     1      -8.468   0.570   1.186  0.00  0.00    +0.105 A 
ATOM      5  C   UNL     1      -8.648   1.942   1.184  0.00  0.00    +0.029 A 
ATOM      6  C   UNL     1      -7.573   2.782   0.985  0.00  0.00    +0.010 A 
ENDROOT
BRANCH   4   7
ATOM      7  S   UNL     1      -9.848  -0.495   1.442  0.00  0.00    +0.059 S 
ATOM      8  O   UNL     1      -9.329  -1.720   1.943  0.00  0.00    -0.153 OA
ATOM      9  O   UNL     1     -10.822   0.264   2.145  0.00  0.00    -0.153 OA
BRANCH   7  10
ATOM     10  N   UNL     1     -10.492  -0.828  -0.047  0.00  0.00    -0.187 NA
ATOM     11  H   UNL     1     -11.431  -0.341  -0.348  0.00  0.00    +0.148 HD
BRANCH  10  12
ATOM     12  C   UNL     1      -9.712  -1.585  -1.030  0.00  0.00    +0.077 C 
ATOM     13  C   UNL     1      -8.989  -0.614  -1.964  0.00  0.00    +0.020 C 
ATOM     14  C   UNL     1      -8.174  -1.405  -2.990  0.00  0.00    +0.002 C 
ATOM     15  C   UNL     1      -9.111  -2.296  -3.808  0.00  0.00    +0.000 C 
ATOM     16  C   UNL     1      -9.835  -3.268  -2.873  0.00  0.00    +0.002 C 
ATOM     17  C   UNL     1     -10.649  -2.477  -1.847  0.00  0.00    +0.020 C 
ENDBRANCH  10  12
ENDBRANCH   7  10
ENDBRANCH   4   7
BRANCH   1  19
ATOM     18  C   UNL     1      -3.982   2.896   1.211  0.00  0.00    +0.051 C 
ATOM     19  C   UNL     1      -5.145   3.134   0.571  0.00  0.00    +0.011 C 
BRANCH  18  23
ATOM     20  C   UNL     1      -2.507  -0.330   4.837  0.00  0.00    +0.071 C 
ATOM     21  C   UNL     1      -3.301   0.487   3.852  0.00  0.00    +0.102 A 
ATOM     22  C   UNL     1      -2.792   1.444   2.944  0.00  0.00    +0.103 A 
ATOM     23  C   UNL     1      -3.924   1.893   2.275  0.00  0.00    +0.182 A 
ATOM     24  O   UNL     1      -4.959   1.212   2.809  0.00  0.00    -0.353 OA
ATOM     25  N   UNL     1      -4.591   0.452   3.673  0.00  0.00    -0.081 NA
BRANCH  22  26
ATOM     26  N   UNL     1      -1.461   1.842   2.759  0.00  0.00    -0.281 N 
ATOM     27  C   UNL     1      -0.609   1.848   3.802  0.00  0.00    +0.214 C 
ATOM     28  O   UNL     1      -1.008   1.571   4.913  0.00  0.00    -0.276 OA
ATOM     29  C   UNL     1       0.843   2.194   3.588  0.00  0.00    +0.109 C 
ATOM     30  H   UNL     1      -1.112   2.149   1.761  0.00  0.00    +0.155 HD
ENDBRANCH  22  26
ENDBRANCH  18  23
ENDBRANCH   1  19
TORSDOF 6
