REMARK  Name = ZINC66168873
REMARK  10 active torsions:
REMARK  status: ('A' for Active; 'I' for Inactive)
REMARK    1  A    between atoms: C_4  and  C_7
REMARK    2  A    between atoms: C_7  and  C_8
REMARK    3  A    between atoms: C_8  and  C_9
REMARK    4  A    between atoms: C_9  and  O_10
REMARK    5  A    between atoms: O_10  and  C_11
REMARK    6  A    between atoms: C_14  and  N_17
REMARK    7  A    between atoms: N_17  and  C_18
REMARK    8  A    between atoms: C_18  and  C_19
REMARK    9  A    between atoms: C_19  and  O_20
REMARK   10  A    between atoms: O_20  and  C_21
REMARK                            x       y       z     vdW  Elec       q    Type
REMARK                         _______ _______ _______ _____ _____    ______ ____
ROOT
ATOM      1  C   UNL     1       7.115  -2.608   2.885  0.00  0.00    +0.121 A 
ATOM      2  C   UNL     1       7.843  -3.010   1.776  0.00  0.00    +0.047 A 
ATOM      3  C   UNL     1       9.040  -3.680   1.940  0.00  0.00    +0.026 A 
ATOM      4  C   UNL     1       9.514  -3.950   3.216  0.00  0.00    +0.027 A 
ATOM      5  C   UNL     1       8.784  -3.548   4.327  0.00  0.00    +0.026 A 
ATOM      6  C   UNL     1       7.591  -2.873   4.161  0.00  0.00    +0.047 A 
ENDROOT
BRANCH   4   7
ATOM      7  N   UNL     1      10.727  -4.629   3.384  0.00  0.00    -0.341 N 
ATOM      8  H   UNL     1      11.236  -4.910   2.608  0.00  0.00    +0.146 HD
BRANCH   7   9
ATOM      9  C   UNL     1      11.226  -4.914   4.731  0.00  0.00    +0.142 C 
BRANCH   9  10
ATOM     10  C   UNL     1      12.559  -5.659   4.633  0.00  0.00    +0.247 C 
BRANCH  10  11
ATOM     11  O   UNL     1      13.540  -4.805   4.039  0.00  0.00    -0.489 OA
BRANCH  11  12
ATOM     12  C   UNL     1      14.788  -5.318   3.878  0.00  0.00    +0.139 A 
ATOM     13  C   UNL     1      15.063  -6.617   4.279  0.00  0.00    +0.047 A 
ATOM     14  C   UNL     1      16.332  -7.136   4.114  0.00  0.00    +0.004 A 
ATOM     15  C   UNL     1      17.330  -6.362   3.551  0.00  0.00    +0.002 A 
ATOM     16  C   UNL     1      17.060  -5.066   3.151  0.00  0.00    +0.023 A 
ATOM     17  C   UNL     1      15.789  -4.544   3.308  0.00  0.00    +0.083 A 
ATOM     18 CL   UNL     1      15.449  -2.919   2.799  0.00  0.00    -0.080 Cl
ENDBRANCH  11  12
ENDBRANCH  10  11
ENDBRANCH   9  10
ENDBRANCH   7   9
ENDBRANCH   4   7
BRANCH   1  19
ATOM     19  O   UNL     1       5.936  -1.949   2.723  0.00  0.00    -0.492 OA
BRANCH  19  20
ATOM     20  C   UNL     1       5.507  -1.710   1.381  0.00  0.00    +0.229 C 
BRANCH  20  21
ATOM     21  C   UNL     1       4.171  -0.963   1.399  0.00  0.00    +0.046 C 
BRANCH  21  22
ATOM     22  C   UNL     1       3.711  -0.707  -0.038  0.00  0.00    +0.038 C 
BRANCH  22  26
ATOM     23  C   UNL     1      -0.017   1.378   0.010  0.00  0.00    +0.000 A 
ATOM     24  C   UNL     1       1.171   2.086   0.002  0.00  0.00    +0.000 A 
ATOM     25  C   UNL     1       2.377   1.411  -0.013  0.00  0.00    +0.003 A 
ATOM     26  C   UNL     1       2.396   0.029  -0.020  0.00  0.00    -0.047 A 
ATOM     27  C   UNL     1       1.208  -0.679  -0.012  0.00  0.00    +0.003 A 
ATOM     28  C   UNL     1       0.002  -0.004   0.002  0.00  0.00    +0.000 A 
ENDBRANCH  22  26
ENDBRANCH  21  22
ENDBRANCH  20  21
ENDBRANCH  19  20
ENDBRANCH   1  19
TORSDOF 10
