REMARK  Name = ZINC30987428
REMARK  8 active torsions:
REMARK  status: ('A' for Active; 'I' for Inactive)
REMARK    1  A    between atoms: C_1  and  C_2
REMARK    2  A    between atoms: C_2  and  C_4
REMARK    3  A    between atoms: C_2  and  N_15
REMARK    4  A    between atoms: C_7  and  N_10
REMARK    5  A    between atoms: C_16  and  C_18
REMARK    6  A    between atoms: N_21  and  C_24
REMARK    7  A    between atoms: C_24  and  C_25
REMARK    8  A    between atoms: C_27  and  C_30
REMARK                            x       y       z     vdW  Elec       q    Type
REMARK                         _______ _______ _______ _____ _____    ______ ____
ROOT
ATOM      1  C   UNL     1      -1.778   5.208   0.646  0.00  0.00    +0.071 C 
ATOM      2  C   UNL     1      -1.917   5.699   2.090  0.00  0.00    -0.006 C 
ATOM      3  C   UNL     1      -2.016   7.226   2.096  0.00  0.00    -0.077 C 
ATOM      4  N   UNL     1      -3.178   7.647   1.304  0.00  0.00    +0.386 N 
ATOM      5  C   UNL     1      -3.045   7.227  -0.098  0.00  0.00    -0.077 C 
ATOM      6  C   UNL     1      -2.977   5.700  -0.170  0.00  0.00    -0.006 C 
ATOM      7  H   UNL     1      -4.066   7.148   1.720  0.00  0.00    -0.081 HD
ENDROOT
BRANCH   1   9
ATOM      8  N   UNL     1      -0.765   3.044   1.284  0.00  0.00    -0.309 N 
ATOM      9  C   UNL     1      -1.741   3.702   0.628  0.00  0.00    +0.216 C 
ATOM     10  O   UNL     1      -2.589   3.081   0.022  0.00  0.00    -0.276 OA
ATOM     11  H   UNL     1       0.004   3.606   1.834  0.00  0.00    +0.149 HD
BRANCH   8  13
ATOM     12  C   UNL     1      -0.002   1.102   0.008  0.00  0.00    +0.033 C 
ATOM     13  C   UNL     1      -0.729   1.579   1.267  0.00  0.00    +0.100 C 
BRANCH  13  14
ATOM     14  C   UNL     1       0.000   1.080   2.488  0.00  0.00    -0.027 A 
ATOM     15  C   UNL     1       1.135   1.735   2.930  0.00  0.00    +0.007 A 
ATOM     16  C   UNL     1       1.802   1.284   4.051  0.00  0.00    +0.023 A 
ATOM     17  C   UNL     1       1.338   0.163   4.729  0.00  0.00    +0.030 A 
ATOM     18  C   UNL     1       0.201  -0.496   4.279  0.00  0.00    +0.023 A 
ATOM     19  C   UNL     1      -0.464  -0.035   3.160  0.00  0.00    +0.007 A 
BRANCH  17  20
ATOM     20  N   UNL     1       2.014  -0.300   5.861  0.00  0.00    -0.330 N 
ATOM     21  C   UNL     1       1.152  -0.215   7.067  0.00  0.00    +0.105 C 
ATOM     22  C   UNL     1       1.818  -1.212   8.049  0.00  0.00    +0.020 C 
ATOM     23  C   UNL     1       2.276  -2.359   7.120  0.00  0.00    +0.020 C 
ATOM     24  C   UNL     1       2.369  -1.728   5.718  0.00  0.00    +0.105 C 
ENDBRANCH  17  20
ENDBRANCH  13  14
ENDBRANCH   8  13
ENDBRANCH   1   9
BRANCH   4  25
ATOM     25  C   UNL     1      -3.385   9.098   1.401  0.00  0.00    +0.022 C 
BRANCH  25  26
ATOM     26  C   UNL     1      -3.760   9.458   2.816  0.00  0.00    +0.211 A 
ATOM     27  N   UNL     1      -2.935   9.773   3.783  0.00  0.00    -0.193 NA
ATOM     28  C   UNL     1      -3.715  10.016   4.861  0.00  0.00    +0.202 A 
ATOM     29  N   UNL     1      -4.956   9.836   4.488  0.00  0.00    -0.056 NA
ATOM     30  O   UNL     1      -4.997   9.521   3.317  0.00  0.00    -0.340 OA
BRANCH  28  31
ATOM     31  C   UNL     1      -3.251  10.412   6.213  0.00  0.00    +0.023 A 
ATOM     32  C   UNL     1      -1.889  10.561   6.468  0.00  0.00    +0.013 A 
ATOM     33  C   UNL     1      -1.462  10.935   7.726  0.00  0.00    +0.021 A 
ATOM     34  C   UNL     1      -2.384  11.151   8.737  0.00  0.00    +0.041 A 
ATOM     35  C   UNL     1      -3.737  10.999   8.489  0.00  0.00    +0.021 A 
ATOM     36  C   UNL     1      -4.174  10.630   7.233  0.00  0.00    +0.013 A 
ATOM     37 CL   UNL     1      -1.840  11.614  10.319  0.00  0.00    -0.084 Cl
ENDBRANCH  28  31
ENDBRANCH  25  26
ENDBRANCH   4  25
TORSDOF 7
