REMARK  Name = ZINC32516310
REMARK  5 active torsions:
REMARK  status: ('A' for Active; 'I' for Inactive)
REMARK    1  A    between atoms: C_1  and  N_2
REMARK    2  A    between atoms: C_8  and  N_13
REMARK    3  A    between atoms: C_14  and  C_16
REMARK    4  A    between atoms: N_19  and  S_22
REMARK    5  A    between atoms: S_22  and  C_25
REMARK                            x       y       z     vdW  Elec       q    Type
REMARK                         _______ _______ _______ _____ _____    ______ ____
ROOT
ATOM      1  C   UNL     1       5.922  -2.030  -3.702  0.00  0.00    +0.078 C 
ATOM      2  C   UNL     1       6.418  -1.006  -2.678  0.00  0.00    +0.030 C 
ATOM      3  C   UNL     1       5.216  -0.290  -2.054  0.00  0.00    +0.110 C 
ATOM      4  N   UNL     1       4.298  -1.298  -1.505  0.00  0.00    -0.177 NA
ATOM      5  C   UNL     1       3.835  -2.384  -2.379  0.00  0.00    +0.110 C 
ATOM      6  C   UNL     1       5.048  -3.073  -3.001  0.00  0.00    +0.030 C 
ENDROOT
BRANCH   1   8
ATOM      7  N   UNL     1       6.907  -3.659  -5.281  0.00  0.00    -0.285 N 
ATOM      8  C   UNL     1       7.103  -2.713  -4.342  0.00  0.00    +0.220 C 
ATOM      9  O   UNL     1       8.230  -2.410  -4.012  0.00  0.00    -0.275 OA
ATOM     10  H   UNL     1       5.887  -3.995  -5.519  0.00  0.00    +0.155 HD
BRANCH   7  18
ATOM     11  C   UNL     1      13.517  -4.332  -8.517  0.00  0.00    +0.142 C 
ATOM     12  N   UNL     1      12.175  -4.461  -7.942  0.00  0.00    -0.237 N 
ATOM     13  C   UNL     1      11.446  -5.591  -7.960  0.00  0.00    +0.254 C 
ATOM     14  O   UNL     1      11.791  -6.650  -8.447  0.00  0.00    -0.270 OA
ATOM     15  C   UNL     1      10.158  -5.332  -7.289  0.00  0.00    +0.050 A 
ATOM     16  C   UNL     1       9.036  -6.103  -7.016  0.00  0.00    +0.015 A 
ATOM     17  C   UNL     1       7.962  -5.543  -6.350  0.00  0.00    +0.024 A 
ATOM     18  C   UNL     1       7.997  -4.212  -5.952  0.00  0.00    +0.034 A 
ATOM     19  C   UNL     1       9.116  -3.426  -6.225  0.00  0.00    +0.037 A 
ATOM     20  C   UNL     1      10.197  -3.980  -6.886  0.00  0.00    +0.051 A 
ATOM     21  C   UNL     1      11.511  -3.466  -7.327  0.00  0.00    +0.254 C 
ATOM     22  O   UNL     1      11.921  -2.335  -7.164  0.00  0.00    -0.270 OA
ENDBRANCH   7  18
ENDBRANCH   1   8
BRANCH   4  23
ATOM     23  S   UNL     1       3.800  -1.214   0.072  0.00  0.00    +0.061 S 
ATOM     24  O   UNL     1       4.790  -0.473   0.772  0.00  0.00    -0.153 OA
ATOM     25  O   UNL     1       3.426  -2.532   0.451  0.00  0.00    -0.153 OA
BRANCH  23  26
ATOM     26  C   UNL     1       2.330  -0.244   0.104  0.00  0.00    +0.107 A 
ATOM     27  C   UNL     1       1.097  -0.854  -0.038  0.00  0.00    +0.031 A 
ATOM     28  C   UNL     1      -0.058  -0.095  -0.014  0.00  0.00    +0.042 A 
ATOM     29  C   UNL     1       0.020   1.277   0.152  0.00  0.00    +0.142 A 
ATOM     30  C   UNL     1       1.255   1.888   0.295  0.00  0.00    +0.078 A 
ATOM     31  C   UNL     1       2.409   1.125   0.271  0.00  0.00    +0.051 A 
ATOM     32 CL   UNL     1       1.355   3.608   0.504  0.00  0.00    -0.081 Cl
ATOM     33  F   UNL     1      -1.108   2.021   0.171  0.00  0.00    -0.204 F 
ENDBRANCH  23  26
ENDBRANCH   4  23
TORSDOF 4
