REMARK  Name = ZINC15946305
REMARK  5 active torsions:
REMARK  status: ('A' for Active; 'I' for Inactive)
REMARK    1  A    between atoms: C_1  and  N_2
REMARK    2  A    between atoms: C_5  and  O_25
REMARK    3  A    between atoms: N_14  and  C_18
REMARK    4  A    between atoms: C_21  and  O_24
REMARK    5  A    between atoms: O_25  and  C_26
REMARK                            x       y       z     vdW  Elec       q    Type
REMARK                         _______ _______ _______ _____ _____    ______ ____
ROOT
ATOM      1  C   UNL     1       2.726  -0.255   0.333  0.00  0.00    +0.136 C 
ATOM      2  N   UNL     1       2.605   1.097   0.883  0.00  0.00    -0.296 N 
ATOM      3  C   UNL     1       1.393   1.530   1.391  0.00  0.00    +0.052 A 
ATOM      4  C   UNL     1       0.188   0.809   1.456  0.00  0.00    +0.070 A 
ATOM      5  C   UNL     1      -0.948   1.379   1.989  0.00  0.00    +0.122 A 
ATOM      6  C   UNL     1      -0.936   2.675   2.487  0.00  0.00    +0.047 A 
ATOM      7  C   UNL     1       0.238   3.405   2.434  0.00  0.00    +0.020 A 
ATOM      8  C   UNL     1       1.369   2.837   1.897  0.00  0.00    +0.035 A 
ATOM      9  S   UNL     1       3.033   3.409   1.646  0.00  0.00    -0.071 S 
ATOM     10  C   UNL     1       3.692   1.930   0.894  0.00  0.00    +0.092 C 
ATOM     11  C   UNL     1       4.980   1.686   0.437  0.00  0.00    +0.105 C 
ATOM     12  C   UNL     1       6.106   2.530   0.442  0.00  0.00    +0.265 C 
ATOM     13  O   UNL     1       6.034   3.663   0.894  0.00  0.00    -0.269 OA
ATOM     14  N   UNL     1       7.242   2.072  -0.053  0.00  0.00    -0.224 N 
ATOM     15  C   UNL     1       7.323   0.819  -0.555  0.00  0.00    +0.125 C 
ATOM     16  S   UNL     1       8.672   0.018  -1.241  0.00  0.00    -0.027 S 
ATOM     17  S   UNL     1       5.660   0.211  -0.310  0.00  0.00    -0.058 S 
ENDROOT
BRANCH  14  18
ATOM     18  C   UNL     1       8.378   2.896  -0.059  0.00  0.00    +0.043 A 
ATOM     19  C   UNL     1       9.245   2.891   1.025  0.00  0.00    +0.027 A 
ATOM     20  C   UNL     1      10.366   3.698   1.016  0.00  0.00    +0.047 A 
ATOM     21  C   UNL     1      10.619   4.521  -0.071  0.00  0.00    +0.117 A 
ATOM     22  C   UNL     1       9.751   4.531  -1.152  0.00  0.00    +0.047 A 
ATOM     23  C   UNL     1       8.633   3.720  -1.147  0.00  0.00    +0.027 A 
BRANCH  21  24
ATOM     24  O   UNL     1      11.720   5.320  -0.076  0.00  0.00    -0.507 OA
ATOM     25  H   UNL     1      11.571   6.197   0.303  0.00  0.00    +0.292 HD
ENDBRANCH  21  24
ENDBRANCH  14  18
BRANCH   5  26
ATOM     26  O   UNL     1      -2.100   0.657   2.032  0.00  0.00    -0.495 OA
ATOM     27  C   UNL     1      -3.247   1.298   2.595  0.00  0.00    +0.277 C 
ENDBRANCH   5  26
TORSDOF 3
