REMARK  Name = ZINC39932524
REMARK  6 active torsions:
REMARK  status: ('A' for Active; 'I' for Inactive)
REMARK    1  A    between atoms: C_1  and  O_2
REMARK    2  A    between atoms: O_2  and  C_3
REMARK    3  A    between atoms: C_3  and  C_4
REMARK    4  A    between atoms: C_6  and  C_18
REMARK    5  A    between atoms: C_8  and  C_16
REMARK    6  A    between atoms: C_9  and  N_15
REMARK                            x       y       z     vdW  Elec       q    Type
REMARK                         _______ _______ _______ _____ _____    ______ ____
ROOT
ATOM      1  C   UNL     1      -1.156  -2.103   0.002  0.00  0.00    +0.094 C 
ATOM      2  C   UNL     1      -1.535  -2.897   0.974  0.00  0.00    +0.032 C 
ATOM      3  C   UNL     1      -2.295  -2.679   2.254  0.00  0.00    +0.101 C 
ATOM      4  C   UNL     1      -3.260  -3.846   2.358  0.00  0.00    +0.098 C 
ATOM      5  C   UNL     1      -3.194  -4.898   1.516  0.00  0.00    +0.195 C 
ATOM      6  O   UNL     1      -2.333  -5.057   0.495  0.00  0.00    -0.448 OA
ATOM      7  C   UNL     1      -1.121  -4.300   0.528  0.00  0.00    +0.343 C 
ATOM      8  N   UNL     1      -0.587  -4.048  -0.814  0.00  0.00    -0.138 NA
ATOM      9  N   UNL     1      -0.625  -2.827  -1.017  0.00  0.00    -0.153 NA
ENDROOT
BRANCH   3  10
ATOM     10  C   UNL     1      -3.051  -1.377   2.195  0.00  0.00    +0.003 A 
ATOM     11  C   UNL     1      -4.009  -1.178   1.218  0.00  0.00    +0.007 A 
ATOM     12  C   UNL     1      -4.704   0.016   1.163  0.00  0.00    +0.003 A 
ATOM     13  C   UNL     1      -4.443   1.013   2.084  0.00  0.00    +0.041 A 
ATOM     14  C   UNL     1      -3.485   0.816   3.063  0.00  0.00    +0.159 A 
ATOM     15  C   UNL     1      -2.791  -0.383   3.122  0.00  0.00    +0.162 A 
ATOM     16  F   UNL     1      -1.859  -0.580   4.080  0.00  0.00    -0.202 F 
ATOM     17  F   UNL     1      -3.228   1.790   3.964  0.00  0.00    -0.202 F 
ENDBRANCH   3  10
BRANCH   5  18
ATOM     18  N   UNL     1      -4.098  -5.909   1.722  0.00  0.00    -0.329 N 
ATOM     19  H   UNL     1      -4.742  -5.844   2.445  0.00  0.00    +0.145 HD
ATOM     20  H   UNL     1      -4.094  -6.689   1.145  0.00  0.00    +0.145 HD
ENDBRANCH   5  18
BRANCH   4  21
ATOM     21  C   UNL     1      -4.266  -3.829   3.376  0.00  0.00    +0.101 C 
ATOM     22  N   UNL     1      -5.065  -3.817   4.184  0.00  0.00    -0.191 NA
ENDBRANCH   4  21
BRANCH   1  23
ATOM     23  C   UNL     1      -1.295  -0.603   0.011  0.00  0.00    +0.216 C 
BRANCH  23  25
ATOM     24  C   UNL     1      -0.017   1.425   0.010  0.00  0.00    +0.194 C 
ATOM     25  O   UNL     1       0.002  -0.004   0.002  0.00  0.00    -0.377 OA
ENDBRANCH  23  25
ENDBRANCH   1  23
TORSDOF 5
