REMARK  Name = ZINC08841418
REMARK  7 active torsions:
REMARK  status: ('A' for Active; 'I' for Inactive)
REMARK    1  A    between atoms: C_1  and  C_2
REMARK    2  A    between atoms: C_4  and  C_31
REMARK    3  A    between atoms: N_10  and  C_11
REMARK    4  A    between atoms: C_11  and  C_13
REMARK    5  A    between atoms: N_18  and  S_19
REMARK    6  A    between atoms: S_19  and  C_22
REMARK    7  A    between atoms: N_29  and  C_30
REMARK                            x       y       z     vdW  Elec       q    Type
REMARK                         _______ _______ _______ _____ _____    ______ ____
ROOT
ATOM      1  C   UNL     1      -0.791  -4.436   0.202  0.00  0.00    +0.257 C 
ATOM      2  O   UNL     1       0.362  -4.203   0.509  0.00  0.00    -0.272 OA
ENDROOT
BRANCH   1  12
ATOM      3  C   UNL     1      -0.464   1.289  -6.062  0.00  0.00    +0.044 C 
ATOM      4  C   UNL     1      -0.423   0.198  -5.023  0.00  0.00    -0.049 A 
ATOM      5  C   UNL     1       0.530  -0.804  -5.096  0.00  0.00    +0.008 A 
ATOM      6  C   UNL     1       0.583  -1.808  -4.158  0.00  0.00    -0.026 A 
ATOM      7  C   UNL     1      -0.333  -1.845  -3.095  0.00  0.00    +0.060 A 
ATOM      8  C   UNL     1      -1.286  -0.818  -3.046  0.00  0.00    +0.039 A 
ATOM      9  C   UNL     1      -1.338   0.186  -3.984  0.00  0.00    +0.020 A 
ATOM     10  S   UNL     1      -2.232  -1.209  -1.596  0.00  0.00    -0.052 S 
ATOM     11  C   UNL     1      -1.385  -2.646  -1.121  0.00  0.00    +0.166 A 
ATOM     12  N   UNL     1      -1.620  -3.435  -0.075  0.00  0.00    -0.155 NA
ATOM     13  N   UNL     1      -0.423  -2.772  -2.073  0.00  0.00    -0.324 N 
ATOM     14  C   UNL     1       0.519  -3.893  -2.017  0.00  0.00    +0.151 C 
ATOM     15  C   UNL     1       1.635  -2.881  -4.274  0.00  0.00    +0.046 C 
ENDBRANCH   1  12
BRANCH   1  16
ATOM     16  C   UNL     1      -1.280  -5.860   0.134  0.00  0.00    +0.167 C 
ATOM     17  C   UNL     1      -1.741  -6.189  -1.301  0.00  0.00    +0.031 C 
ATOM     18  C   UNL     1      -1.257  -7.651  -1.494  0.00  0.00    +0.019 C 
ATOM     19  C   UNL     1       0.075  -7.645  -0.704  0.00  0.00    +0.110 C 
ATOM     20  N   UNL     1      -0.182  -6.781   0.463  0.00  0.00    -0.165 NA
BRANCH  20  21
ATOM     21  S   UNL     1       0.631  -6.839   1.904  0.00  0.00    +0.062 S 
ATOM     22  O   UNL     1       1.900  -7.416   1.632  0.00  0.00    -0.153 OA
ATOM     23  O   UNL     1       0.489  -5.557   2.502  0.00  0.00    -0.153 OA
BRANCH  21  24
ATOM     24  C   UNL     1      -0.228  -7.976   2.942  0.00  0.00    +0.106 A 
ATOM     25  C   UNL     1      -1.238  -7.526   3.771  0.00  0.00    +0.031 A 
ATOM     26  C   UNL     1      -1.916  -8.418   4.581  0.00  0.00    +0.040 A 
ATOM     27  C   UNL     1      -1.574  -9.760   4.570  0.00  0.00    +0.124 A 
ATOM     28  C   UNL     1      -0.558 -10.207   3.744  0.00  0.00    +0.040 A 
ATOM     29  C   UNL     1       0.115  -9.315   2.930  0.00  0.00    +0.031 A 
ATOM     30  F   UNL     1      -2.232 -10.631   5.366  0.00  0.00    -0.205 F 
ENDBRANCH  21  24
ENDBRANCH  20  21
ENDBRANCH   1  16
TORSDOF 4
