REMARK  Name = ZINC59020771
REMARK  7 active torsions:
REMARK  status: ('A' for Active; 'I' for Inactive)
REMARK    1  A    between atoms: C_1  and  C_2
REMARK    2  A    between atoms: C_3  and  C_15
REMARK    3  A    between atoms: C_4  and  C_14
REMARK    4  A    between atoms: C_8  and  C_11
REMARK    5  A    between atoms: C_15  and  C_16
REMARK    6  A    between atoms: C_16  and  C_17
REMARK    7  A    between atoms: C_22  and  C_25
REMARK                            x       y       z     vdW  Elec       q    Type
REMARK                         _______ _______ _______ _____ _____    ______ ____
ROOT
ATOM      1  C   UNL     1      -2.898   0.359   1.456  0.00  0.00    +0.101 C 
ENDROOT
BRANCH   1   2
ATOM      2  C   UNL     1      -4.217   1.089   1.466  0.00  0.00    +0.219 C 
ATOM      3  O   UNL     1      -4.797   1.308   0.424  0.00  0.00    -0.275 OA
ATOM      4  N   UNL     1      -4.751   1.497   2.634  0.00  0.00    -0.265 N 
ATOM      5  C   UNL     1      -5.967   2.170   2.644  0.00  0.00    +0.165 A 
ATOM      6  N   UNL     1      -6.647   2.651   3.668  0.00  0.00    -0.225 NA
ATOM      7  C   UNL     1      -7.804   3.272   3.494  0.00  0.00    +0.080 A 
ATOM      8  C   UNL     1      -8.303   3.419   2.231  0.00  0.00    +0.076 A 
ATOM      9  S   UNL     1      -7.022   2.620   1.273  0.00  0.00    -0.060 S 
ATOM     10  H   UNL     1      -4.287   1.321   3.468  0.00  0.00    +0.157 HD
BRANCH   7  11
ATOM     11  C   UNL     1      -8.550   3.804   4.661  0.00  0.00    +0.004 A 
ATOM     12  C   UNL     1      -9.770   4.452   4.473  0.00  0.00    +0.013 A 
ATOM     13  C   UNL     1     -10.462   4.945   5.561  0.00  0.00    +0.042 A 
ATOM     14  C   UNL     1      -9.947   4.798   6.838  0.00  0.00    +0.158 A 
ATOM     15  C   UNL     1      -8.733   4.154   7.030  0.00  0.00    +0.159 A 
ATOM     16  C   UNL     1      -8.037   3.653   5.947  0.00  0.00    +0.051 A 
ATOM     17  F   UNL     1      -8.234   4.014   8.278  0.00  0.00    -0.202 F 
ATOM     18  F   UNL     1     -10.628   5.284   7.899  0.00  0.00    -0.202 F 
ENDBRANCH   7  11
ENDBRANCH   1   2
BRANCH   1  19
ATOM     19  C   UNL     1      -2.520   0.010   0.015  0.00  0.00    +0.048 C 
BRANCH  19  22
ATOM     20  C   UNL     1      -0.018   1.503   0.010  0.00  0.00    +0.066 C 
ATOM     21  C   UNL     1       0.002  -0.004   0.002  0.00  0.00    +0.045 A 
ATOM     22  C   UNL     1      -1.201  -0.719   0.004  0.00  0.00    -0.005 A 
ATOM     23  C   UNL     1      -1.169  -2.076  -0.004  0.00  0.00    +0.047 A 
ATOM     24  N   UNL     1       0.037  -2.712  -0.013  0.00  0.00    -0.218 N 
ATOM     25  C   UNL     1       1.190  -1.978  -0.014  0.00  0.00    +0.168 A 
ATOM     26  N   UNL     1       1.150  -0.645  -0.012  0.00  0.00    -0.232 NA
ATOM     27  C   UNL     1       2.255  -2.898  -0.025  0.00  0.00    +0.100 A 
ATOM     28  C   UNL     1       1.686  -4.184  -0.029  0.00  0.00    +0.150 A 
ATOM     29  N   UNL     1       0.385  -4.067  -0.022  0.00  0.00    -0.172 NA
ATOM     30  C   UNL     1      -2.450  -2.870  -0.001  0.00  0.00    +0.066 C 
BRANCH  27  31
ATOM     31  C   UNL     1       3.686  -2.577  -0.030  0.00  0.00    +0.247 C 
ATOM     32  O   UNL     1       4.048  -1.415  -0.025  0.00  0.00    -0.270 OA
ATOM     33  N   UNL     1       4.599  -3.568  -0.039  0.00  0.00    -0.325 N 
ATOM     34  H   UNL     1       4.310  -4.494  -0.043  0.00  0.00    +0.145 HD
ATOM     35  H   UNL     1       5.545  -3.355  -0.043  0.00  0.00    +0.145 HD
ENDBRANCH  27  31
ENDBRANCH  19  22
ENDBRANCH   1  19
TORSDOF 5
