REMARK  Name = ZINC02204582
REMARK  8 active torsions:
REMARK  status: ('A' for Active; 'I' for Inactive)
REMARK    1  A    between atoms: C_1  and  C_2
REMARK    2  A    between atoms: C_5  and  N_8
REMARK    3  A    between atoms: C_9  and  C_11
REMARK    4  A    between atoms: C_11  and  C_31
REMARK    5  A    between atoms: C_12  and  C_13
REMARK    6  A    between atoms: C_14  and  N_25
REMARK    7  A    between atoms: C_17  and  C_24
REMARK    8  A    between atoms: C_30  and  N_59
REMARK                            x       y       z     vdW  Elec       q    Type
REMARK                         _______ _______ _______ _____ _____    ______ ____
ROOT
ATOM      1  C   UNL     1       3.288   3.572   0.102  0.00  0.00    +0.081 A 
ATOM      2  C   UNL     1       2.141   4.292   0.525  0.00  0.00    +0.136 A 
ATOM      3  N   UNL     1       0.965   3.684   0.557  0.00  0.00    -0.213 NA
ATOM      4  C   UNL     1       0.827   2.405   0.201  0.00  0.00    +0.145 A 
ATOM      5  C   UNL     1      -0.448   1.815   0.257  0.00  0.00    -0.007 A 
ATOM      6  C   UNL     1      -0.602   0.509  -0.105  0.00  0.00    +0.008 A 
ATOM      7  C   UNL     1       0.513  -0.226  -0.527  0.00  0.00    +0.019 A 
ATOM      8  C   UNL     1       1.732   0.358  -0.575  0.00  0.00    +0.096 A 
ATOM      9  N   UNL     1       1.896   1.662  -0.215  0.00  0.00    -0.267 N 
ATOM     10  C   UNL     1       3.127   2.213  -0.274  0.00  0.00    +0.267 A 
ATOM     11  O   UNL     1       4.083   1.555  -0.643  0.00  0.00    -0.267 OA
ATOM     12  C   UNL     1      -1.638   2.623   0.707  0.00  0.00    +0.047 C 
ENDROOT
BRANCH   2  13
ATOM     13  N   UNL     1       2.249   5.611   0.899  0.00  0.00    -0.318 N 
ATOM     14  C   UNL     1       3.078   5.751   2.104  0.00  0.00    +0.088 C 
ATOM     15  C   UNL     1       3.239   7.236   2.440  0.00  0.00    -0.060 C 
ATOM     16  C   UNL     1       1.084   7.696   1.438  0.00  0.00    -0.060 C 
ATOM     17  C   UNL     1       0.923   6.211   1.103  0.00  0.00    +0.088 C 
ATOM     18  C   UNL     1       2.029   9.245   3.042  0.00  0.00    -0.096 C 
ATOM     19  N   UNL     1       1.901   7.822   2.664  0.00  0.00    +0.380 N 
ATOM     20  H   UNL     1       1.438   7.314   3.427  0.00  0.00    -0.082 HD
ENDBRANCH   2  13
BRANCH   1  22
ATOM     21  C   UNL     1       4.734   5.340  -0.696  0.00  0.00    +0.114 C 
ATOM     22  C   UNL     1       4.550   4.189   0.058  0.00  0.00    +0.040 C 
BRANCH  21  24
ATOM     23  N   UNL     1       6.215   7.131  -1.432  0.00  0.00    -0.281 N 
ATOM     24  C   UNL     1       6.037   6.013  -0.701  0.00  0.00    +0.259 C 
ATOM     25  O   UNL     1       6.958   5.561  -0.045  0.00  0.00    -0.269 OA
ATOM     26  H   UNL     1       5.507   7.449  -2.013  0.00  0.00    +0.155 HD
BRANCH  23  31
ATOM     27  C   UNL     1      11.111   9.978  -1.111  0.00  0.00    +0.044 C 
ATOM     28  C   UNL     1       9.810   9.222  -1.197  0.00  0.00    -0.050 A 
ATOM     29  C   UNL     1       9.808   7.841  -1.111  0.00  0.00    +0.005 A 
ATOM     30  C   UNL     1       8.618   7.145  -1.189  0.00  0.00    +0.023 A 
ATOM     31  C   UNL     1       7.422   7.833  -1.353  0.00  0.00    +0.034 A 
ATOM     32  C   UNL     1       7.429   9.219  -1.444  0.00  0.00    +0.023 A 
ATOM     33  C   UNL     1       8.622   9.909  -1.360  0.00  0.00    +0.005 A 
ENDBRANCH  23  31
ENDBRANCH  21  24
BRANCH  21  34
ATOM     34  C   UNL     1       3.651   5.872  -1.467  0.00  0.00    +0.104 C 
ATOM     35  N   UNL     1       2.792   6.293  -2.080  0.00  0.00    -0.191 NA
ENDBRANCH  21  34
ENDBRANCH   1  22
TORSDOF 5
