REMARK  Name = ZINC01826720
REMARK  10 active torsions:
REMARK  status: ('A' for Active; 'I' for Inactive)
REMARK    1  A    between atoms: C_1  and  C_2
REMARK    2  A    between atoms: C_5  and  C_8
REMARK    3  A    between atoms: C_11  and  S_20
REMARK    4  A    between atoms: N_12  and  C_13
REMARK    5  A    between atoms: C_16  and  C_19
REMARK    6  A    between atoms: S_20  and  C_21
REMARK    7  A    between atoms: C_21  and  C_22
REMARK    8  A    between atoms: N_24  and  N_25
REMARK    9  A    between atoms: N_25  and  C_26
REMARK   10  A    between atoms: C_26  and  C_28
REMARK                            x       y       z     vdW  Elec       q    Type
REMARK                         _______ _______ _______ _____ _____    ______ ____
ROOT
ATOM      1  C   UNL     1       0.060  -4.251  -0.021  0.00  0.00    +0.169 A 
ATOM      2  N   UNL     1      -0.203  -5.029  -1.045  0.00  0.00    -0.128 NA
ATOM      3  N   UNL     1      -0.092  -6.262  -0.701  0.00  0.00    -0.122 NA
ATOM      4  C   UNL     1       0.249  -6.349   0.566  0.00  0.00    +0.197 A 
ATOM      5  N   UNL     1       0.363  -5.072   1.043  0.00  0.00    -0.270 N 
ENDROOT
BRANCH   1  10
ATOM      6  C   UNL     1      -0.018   1.503   0.010  0.00  0.00    +0.044 C 
ATOM      7  C   UNL     1       0.002  -0.004   0.002  0.00  0.00    -0.050 A 
ATOM      8  C   UNL     1       0.006  -0.686  -1.202  0.00  0.00    +0.004 A 
ATOM      9  C   UNL     1       0.024  -2.066  -1.216  0.00  0.00    +0.012 A 
ATOM     10  C   UNL     1       0.040  -2.773  -0.013  0.00  0.00    +0.020 A 
ATOM     11  C   UNL     1       0.037  -2.079   1.198  0.00  0.00    +0.012 A 
ATOM     12  C   UNL     1       0.023  -0.699   1.198  0.00  0.00    +0.004 A 
ENDBRANCH   1  10
BRANCH   5  13
ATOM     13  C   UNL     1       0.712  -4.681   2.343  0.00  0.00    +0.051 A 
ATOM     14  C   UNL     1       1.889  -3.978   2.565  0.00  0.00    +0.026 A 
ATOM     15  C   UNL     1       2.230  -3.594   3.847  0.00  0.00    +0.005 A 
ATOM     16  C   UNL     1       1.401  -3.908   4.909  0.00  0.00    -0.050 A 
ATOM     17  C   UNL     1       0.229  -4.609   4.690  0.00  0.00    +0.005 A 
ATOM     18  C   UNL     1      -0.121  -4.990   3.410  0.00  0.00    +0.026 A 
ATOM     19  C   UNL     1       1.777  -3.488   6.306  0.00  0.00    +0.044 C 
ENDBRANCH   5  13
BRANCH   4  20
ATOM     20  S   UNL     1       0.515  -7.833   1.477  0.00  0.00    -0.076 S 
BRANCH  20  21
ATOM     21  C   UNL     1       0.211  -9.151   0.269  0.00  0.00    +0.174 C 
BRANCH  21  22
ATOM     22  C   UNL     1       0.408 -10.492   0.927  0.00  0.00    +0.239 C 
ATOM     23  O   UNL     1       0.722 -10.553   2.097  0.00  0.00    -0.273 OA
ATOM     24  N   UNL     1       0.234 -11.624   0.217  0.00  0.00    -0.236 N 
ATOM     25  H   UNL     1      -0.017 -11.576  -0.719  0.00  0.00    +0.173 HD
BRANCH  24  26
ATOM     26  N   UNL     1       0.417 -12.871   0.829  0.00  0.00    -0.264 N 
ATOM     27  H   UNL     1       0.668 -12.919   1.765  0.00  0.00    +0.170 HD
BRANCH  26  28
ATOM     28  C   UNL     1       0.237 -14.043   0.093  0.00  0.00    +0.045 C 
ATOM     29  C   UNL     1      -0.108 -13.976  -1.193  0.00  0.00    +0.035 C 
BRANCH  28  30
ATOM     30  C   UNL     1       0.430 -15.361   0.741  0.00  0.00    -0.002 A 
ATOM     31  C   UNL     1       0.786 -15.434   2.088  0.00  0.00    +0.010 A 
ATOM     32  C   UNL     1       0.964 -16.664   2.686  0.00  0.00    +0.002 A 
ATOM     33  C   UNL     1       0.792 -17.825   1.953  0.00  0.00    +0.015 A 
ATOM     34  C   UNL     1       0.439 -17.759   0.616  0.00  0.00    +0.018 A 
ATOM     35  C   UNL     1       0.251 -16.533   0.009  0.00  0.00    +0.025 A 
ATOM     36 BR   UNL     1       0.206 -19.351  -0.378  0.00  0.00    -0.050 Br
ENDBRANCH  28  30
ENDBRANCH  26  28
ENDBRANCH  24  26
ENDBRANCH  21  22
ENDBRANCH  20  21
ENDBRANCH   4  20
TORSDOF 8
