REMARK  Name = ZINC28286503
REMARK  5 active torsions:
REMARK  status: ('A' for Active; 'I' for Inactive)
REMARK    1  A    between atoms: C_1  and  C_2
REMARK    2  A    between atoms: C_4  and  C_29
REMARK    3  A    between atoms: C_18  and  N_21
REMARK    4  A    between atoms: N_21  and  C_22
REMARK    5  A    between atoms: C_22  and  C_23
REMARK                            x       y       z     vdW  Elec       q    Type
REMARK                         _______ _______ _______ _____ _____    ______ ____
ROOT
ATOM      1  C   UNL     1      -3.842   5.689   3.161  0.00  0.00    +0.067 C 
ATOM      2  C   UNL     1      -3.969   4.432   2.340  0.00  0.00    +0.061 A 
ATOM      3  C   UNL     1      -5.014   3.504   2.419  0.00  0.00    +0.048 A 
ATOM      4  C   UNL     1      -4.769   2.522   1.522  0.00  0.00    +0.045 A 
ATOM      5  N   UNL     1      -3.596   2.817   0.900  0.00  0.00    -0.205 N 
ATOM      6  N   UNL     1      -3.121   4.022   1.432  0.00  0.00    -0.169 NA
ATOM      7  C   UNL     1      -2.984   2.062  -0.090  0.00  0.00    +0.236 C 
ATOM      8  N   UNL     1      -3.546   0.941  -0.499  0.00  0.00    -0.206 NA
ATOM      9  C   UNL     1      -2.881   0.198  -1.406  0.00  0.00    +0.108 A 
ATOM     10  C   UNL     1      -1.570   0.392  -1.789  0.00  0.00    -0.006 A 
ATOM     11  C   UNL     1      -1.043  -0.466  -2.758  0.00  0.00    -0.032 A 
ATOM     12  C   UNL     1      -1.863  -1.437  -3.247  0.00  0.00    -0.005 A 
ATOM     13  S   UNL     1      -3.392  -1.188  -2.379  0.00  0.00    -0.074 S 
ATOM     14  C   UNL     1      -1.540  -2.470  -4.278  0.00  0.00    +0.043 C 
ATOM     15  C   UNL     1      -0.244  -2.053  -4.990  0.00  0.00    +0.005 C 
ATOM     16  C   UNL     1       0.792  -1.663  -3.933  0.00  0.00    +0.005 C 
ATOM     17  C   UNL     1       0.391  -0.345  -3.268  0.00  0.00    +0.036 C 
ATOM     18  C   UNL     1      -0.795   1.527  -1.120  0.00  0.00    +0.074 C 
ATOM     19  N   UNL     1      -1.796   2.490  -0.634  0.00  0.00    -0.227 NA
ATOM     20  C   UNL     1      -5.637   1.317   1.262  0.00  0.00    +0.066 C 
ENDROOT
BRANCH  18  21
ATOM     21  N   UNL     1      -0.012   1.005   0.008  0.00  0.00    +0.397 N 
ATOM     22  H   UNL     1      -0.497   1.287   0.954  0.00  0.00    -0.082 HD
ATOM     23  H   UNL     1       0.046  -0.091  -0.062  0.00  0.00    -0.082 HD
BRANCH  21  24
ATOM     24  C   UNL     1       1.353   1.550  -0.003  0.00  0.00    -0.047 C 
BRANCH  24  25
ATOM     25  C   UNL     1       2.136   0.985   1.184  0.00  0.00    +0.101 C 
ATOM     26  C   UNL     1       3.533   1.639   1.248  0.00  0.00    +0.032 C 
ATOM     27  C   UNL     1       4.439   0.444   1.653  0.00  0.00    +0.030 C 
ATOM     28  C   UNL     1       3.728  -0.724   0.923  0.00  0.00    +0.160 C 
ATOM     29  O   UNL     1       2.326  -0.425   1.013  0.00  0.00    -0.378 OA
ENDBRANCH  24  25
ENDBRANCH  21  24
ENDBRANCH  18  21
TORSDOF 3
