REMARK  Name = ZINC05766502
REMARK  10 active torsions:
REMARK  status: ('A' for Active; 'I' for Inactive)
REMARK    1  A    between atoms: C_1  and  C_2
REMARK    2  A    between atoms: C_2  and  C_4
REMARK    3  A    between atoms: C_2  and  N_16
REMARK    4  A    between atoms: C_4  and  C_10
REMARK    5  A    between atoms: N_5  and  N_6
REMARK    6  A    between atoms: N_6  and  C_7
REMARK    7  A    between atoms: C_7  and  N_9
REMARK    8  A    between atoms: N_11  and  N_12
REMARK    9  A    between atoms: N_12  and  C_13
REMARK   10  A    between atoms: C_13  and  N_15
REMARK                            x       y       z     vdW  Elec       q    Type
REMARK                         _______ _______ _______ _____ _____    ______ ____
ROOT
ATOM      1  C   UNL     1      -1.382  -0.531  -0.005  0.00  0.00    +0.099 C 
ATOM      2  N   UNL     1      -1.956  -0.848   1.119  0.00  0.00    -0.182 NA
ENDROOT
BRANCH   1   4
ATOM      3  C   UNL     1      -0.019   1.541  -0.019  0.00  0.00    +0.035 C 
ATOM      4  C   UNL     1       0.024   0.012  -0.007  0.00  0.00    +0.133 C 
BRANCH   4   5
ATOM      5  N   UNL     1       0.726  -0.448   1.194  0.00  0.00    -0.225 N 
ATOM      6  C   UNL     1       0.333  -0.185   2.453  0.00  0.00    +0.254 C 
ATOM      7  O   UNL     1      -0.645   0.462   2.770  0.00  0.00    -0.270 OA
ATOM      8  C   UNL     1       1.290  -0.815   3.387  0.00  0.00    +0.049 A 
ATOM      9  C   UNL     1       1.395  -0.880   4.767  0.00  0.00    +0.014 A 
ATOM     10  C   UNL     1       2.447  -1.573   5.344  0.00  0.00    +0.001 A 
ATOM     11  C   UNL     1       3.392  -2.199   4.553  0.00  0.00    +0.001 A 
ATOM     12  C   UNL     1       3.300  -2.142   3.171  0.00  0.00    +0.014 A 
ATOM     13  C   UNL     1       2.253  -1.453   2.580  0.00  0.00    +0.049 A 
ATOM     14  C   UNL     1       1.846  -1.193   1.183  0.00  0.00    +0.254 C 
ATOM     15  O   UNL     1       2.427  -1.586   0.191  0.00  0.00    -0.270 OA
ENDBRANCH   4   5
ENDBRANCH   1   4
BRANCH   2  16
ATOM     16  N   UNL     1      -3.300  -1.241   1.133  0.00  0.00    -0.218 N 
ATOM     17  H   UNL     1      -3.786  -1.336   0.298  0.00  0.00    +0.176 HD
BRANCH  16  18
ATOM     18  C   UNL     1      -3.919  -1.487   2.305  0.00  0.00    +0.147 C 
ATOM     19  S   UNL     1      -5.562  -1.967   2.321  0.00  0.00    -0.017 S 
BRANCH  18  20
ATOM     20  N   UNL     1      -3.243  -1.355   3.463  0.00  0.00    -0.339 N 
ATOM     21  H   UNL     1      -2.312  -1.083   3.454  0.00  0.00    +0.144 HD
ATOM     22  H   UNL     1      -3.688  -1.532   4.307  0.00  0.00    +0.144 HD
ENDBRANCH  18  20
ENDBRANCH  16  18
ENDBRANCH   2  16
BRANCH   1  23
ATOM     23  C   UNL     1      -2.101  -0.700  -1.267  0.00  0.00    +0.157 C 
ATOM     24  N   UNL     1      -1.493  -0.484  -2.397  0.00  0.00    -0.187 NA
BRANCH  24  25
ATOM     25  N   UNL     1      -2.182  -0.646  -3.606  0.00  0.00    -0.219 N 
ATOM     26  H   UNL     1      -3.113  -0.920  -3.601  0.00  0.00    +0.176 HD
BRANCH  25  27
ATOM     27  C   UNL     1      -1.553  -0.422  -4.777  0.00  0.00    +0.147 C 
ATOM     28  S   UNL     1      -2.395  -0.621  -6.254  0.00  0.00    -0.017 S 
BRANCH  27  29
ATOM     29  N   UNL     1      -0.260  -0.042  -4.784  0.00  0.00    -0.339 N 
ATOM     30  H   UNL     1       0.217   0.071  -3.947  0.00  0.00    +0.144 HD
ATOM     31  H   UNL     1       0.193   0.120  -5.626  0.00  0.00    +0.144 HD
ENDBRANCH  27  29
ENDBRANCH  25  27
ENDBRANCH  24  25
ENDBRANCH   1  23
TORSDOF 9
