REMARK  Name = ZINC40001135
REMARK  9 active torsions:
REMARK  status: ('A' for Active; 'I' for Inactive)
REMARK    1  A    between atoms: C_1  and  C_2
REMARK    2  A    between atoms: C_2  and  O_3
REMARK    3  A    between atoms: O_3  and  C_4
REMARK    4  A    between atoms: C_9  and  N_10
REMARK    5  A    between atoms: N_10  and  C_11
REMARK    6  A    between atoms: C_11  and  C_13
REMARK    7  A    between atoms: C_11  and  C_14
REMARK    8  A    between atoms: N_16  and  C_17
REMARK    9  A    between atoms: C_22  and  C_23
REMARK                            x       y       z     vdW  Elec       q    Type
REMARK                         _______ _______ _______ _____ _____    ______ ____
ROOT
ATOM      1  C   UNL     1       3.602  -1.004  -5.141  0.00  0.00    +0.237 C 
ATOM      2  O   UNL     1       3.732   0.067  -4.586  0.00  0.00    -0.273 OA
ATOM      3  N   UNL     1       4.343  -1.293  -6.229  0.00  0.00    -0.283 N 
ATOM      4  H   UNL     1       4.298  -2.178  -6.625  0.00  0.00    +0.155 HD
ENDROOT
BRANCH   3   5
ATOM      5  C   UNL     1       5.176  -0.317  -6.788  0.00  0.00    +0.045 A 
ATOM      6  C   UNL     1       4.895   1.029  -6.598  0.00  0.00    +0.025 A 
ATOM      7  C   UNL     1       5.718   1.990  -7.151  0.00  0.00    +0.022 A 
ATOM      8  C   UNL     1       6.823   1.612  -7.894  0.00  0.00    +0.042 A 
ATOM      9  C   UNL     1       7.106   0.271  -8.084  0.00  0.00    +0.034 A 
ATOM     10  C   UNL     1       6.289  -0.694  -7.529  0.00  0.00    +0.077 A 
ATOM     11 CL   UNL     1       7.856   2.823  -8.588  0.00  0.00    -0.084 Cl
BRANCH  10  12
ATOM     12  C   UNL     1       6.601  -2.154  -7.732  0.00  0.00    +0.419 C 
ATOM     13  F   UNL     1       7.760  -2.280  -8.504  0.00  0.00    -0.166 F 
ATOM     14  F   UNL     1       6.799  -2.766  -6.489  0.00  0.00    -0.166 F 
ATOM     15  F   UNL     1       5.532  -2.772  -8.390  0.00  0.00    -0.166 F 
ENDBRANCH  10  12
ENDBRANCH   3   5
BRANCH   1  16
ATOM     16  C   UNL     1       2.613  -2.012  -4.613  0.00  0.00    +0.154 C 
ATOM     17  C   UNL     1       1.576  -2.323  -5.694  0.00  0.00    +0.038 C 
BRANCH  16  18
ATOM     18  N   UNL     1       1.939  -1.463  -3.434  0.00  0.00    -0.330 N 
ATOM     19  H   UNL     1       1.871  -0.502  -3.318  0.00  0.00    +0.147 HD
BRANCH  18  25
ATOM     20  C   UNL     1       0.754  -1.805  -1.352  0.00  0.00    +0.141 A 
ATOM     21  C   UNL     1       0.212  -2.662  -0.409  0.00  0.00    +0.047 A 
ATOM     22  C   UNL     1       0.313  -4.031  -0.580  0.00  0.00    +0.004 A 
ATOM     23  C   UNL     1       0.954  -4.548  -1.690  0.00  0.00    +0.002 A 
ATOM     24  C   UNL     1       1.497  -3.699  -2.636  0.00  0.00    +0.026 A 
ATOM     25  C   UNL     1       1.395  -2.325  -2.475  0.00  0.00    +0.070 A 
BRANCH  20  26
ATOM     26  O   UNL     1       0.656  -0.459  -1.186  0.00  0.00    -0.490 OA
BRANCH  26  28
ATOM     27  C   UNL     1      -0.026   1.532   0.002  0.00  0.00    +0.048 C 
ATOM     28  C   UNL     1      -0.015   0.003  -0.011  0.00  0.00    +0.226 C 
ENDBRANCH  26  28
ENDBRANCH  20  26
ENDBRANCH  18  25
ENDBRANCH  16  18
ENDBRANCH   1  16
TORSDOF 7
