REMARK  Name = ZINC67546216
REMARK  8 active torsions:
REMARK  status: ('A' for Active; 'I' for Inactive)
REMARK    1  A    between atoms: C_1  and  C_2
REMARK    2  A    between atoms: C_4  and  N_9
REMARK    3  A    between atoms: C_6  and  C_8
REMARK    4  A    between atoms: N_17  and  C_18
REMARK    5  A    between atoms: C_23  and  O_24
REMARK    6  A    between atoms: O_24  and  C_25
REMARK    7  A    between atoms: C_25  and  C_26
REMARK    8  A    between atoms: C_26  and  C_27
REMARK                            x       y       z     vdW  Elec       q    Type
REMARK                         _______ _______ _______ _____ _____    ______ ____
ROOT
ATOM      1  N   UNL     1      -0.402  -3.029  -2.179  0.00  0.00    -0.312 N 
ATOM      2  C   UNL     1      -0.894  -4.413  -2.149  0.00  0.00    +0.125 C 
ATOM      3  C   UNL     1      -2.018  -4.557  -3.182  0.00  0.00    +0.128 C 
ATOM      4  N   UNL     1      -1.556  -3.998  -4.460  0.00  0.00    -0.282 N 
ATOM      5  C   UNL     1      -1.064  -2.613  -4.490  0.00  0.00    +0.128 C 
ATOM      6  C   UNL     1       0.055  -2.467  -3.458  0.00  0.00    +0.125 C 
ATOM      7  C   UNL     1      -1.581  -4.741  -5.584  0.00  0.00    +0.307 C 
ATOM      8  O   UNL     1      -2.074  -5.853  -5.566  0.00  0.00    -0.252 OA
ATOM      9  N   UNL     1      -1.061  -4.253  -6.727  0.00  0.00    -0.266 N 
ATOM     10  H   UNL     1      -0.617  -3.390  -6.728  0.00  0.00    +0.156 HD
ENDROOT
BRANCH   1  14
ATOM     11  C   UNL     1       0.977   1.025   0.248  0.00  0.00    +0.063 C 
ATOM     12  C   UNL     1       0.280  -0.309   0.173  0.00  0.00    +0.017 A 
ATOM     13  C   UNL     1       0.283  -1.034  -1.003  0.00  0.00    +0.064 A 
ATOM     14  C   UNL     1      -0.376  -2.264  -1.024  0.00  0.00    +0.125 A 
ATOM     15  N   UNL     1      -0.978  -2.692   0.082  0.00  0.00    -0.220 NA
ATOM     16  C   UNL     1      -0.955  -1.967   1.183  0.00  0.00    +0.106 A 
ATOM     17  N   UNL     1      -0.337  -0.804   1.236  0.00  0.00    -0.347 N 
ATOM     18  C   UNL     1      -1.648  -2.486   2.416  0.00  0.00    +0.086 C 
ATOM     19  H   UNL     1      -0.338  -0.300   2.065  0.00  0.00    +0.167 HD
ENDBRANCH   1  14
BRANCH   9  20
ATOM     20  C   UNL     1      -1.162  -4.990  -7.915  0.00  0.00    +0.077 A 
ATOM     21  C   UNL     1      -1.258  -6.373  -7.868  0.00  0.00    +0.027 A 
ATOM     22  C   UNL     1      -1.358  -7.099  -9.040  0.00  0.00    +0.002 A 
ATOM     23  C   UNL     1      -1.362  -6.449 -10.261  0.00  0.00    +0.004 A 
ATOM     24  C   UNL     1      -1.266  -5.071 -10.315  0.00  0.00    +0.047 A 
ATOM     25  C   UNL     1      -1.172  -4.337  -9.145  0.00  0.00    +0.142 A 
BRANCH  25  26
ATOM     26  O   UNL     1      -1.083  -2.981  -9.196  0.00  0.00    -0.490 OA
BRANCH  26  27
ATOM     27  C   UNL     1      -1.099  -2.378 -10.492  0.00  0.00    +0.238 C 
BRANCH  27  28
ATOM     28  C   UNL     1      -0.991  -0.859 -10.349  0.00  0.00    +0.136 C 
BRANCH  28  29
ATOM     29  C   UNL     1      -1.008  -0.224 -11.716  0.00  0.00    +0.214 C 
ATOM     30  O   UNL     1      -1.098  -0.918 -12.706  0.00  0.00    -0.276 OA
ATOM     31  N   UNL     1      -0.924   1.116 -11.837  0.00  0.00    -0.329 N 
ATOM     32  H   UNL     1      -0.852   1.671 -11.045  0.00  0.00    +0.145 HD
ATOM     33  H   UNL     1      -0.934   1.525 -12.717  0.00  0.00    +0.145 HD
ENDBRANCH  28  29
ENDBRANCH  27  28
ENDBRANCH  26  27
ENDBRANCH  25  26
ENDBRANCH   9  20
TORSDOF 6
