REMARK  Name = ZINC10514631
REMARK  5 active torsions:
REMARK  status: ('A' for Active; 'I' for Inactive)
REMARK    1  A    between atoms: C_4  and  S_9
REMARK    2  A    between atoms: C_6  and  C_7
REMARK    3  A    between atoms: S_9  and  N_12
REMARK    4  A    between atoms: C_20  and  S_22
REMARK    5  A    between atoms: S_22  and  N_25
REMARK                            x       y       z     vdW  Elec       q    Type
REMARK                         _______ _______ _______ _____ _____    ______ ____
ROOT
ATOM      1  N   UNL     1       2.171   3.926   0.044  0.00  0.00    -0.203 N 
ATOM      2  C   UNL     1       3.365   3.106   0.292  0.00  0.00    +0.132 C 
ATOM      3  C   UNL     1       3.178   1.773  -0.444  0.00  0.00    +0.025 C 
ATOM      4  C   UNL     1       1.974   1.043   0.151  0.00  0.00    +0.039 C 
ATOM      5  C   UNL     1       0.774   1.953   0.192  0.00  0.00    -0.023 A 
ATOM      6  C   UNL     1       0.909   3.332   0.146  0.00  0.00    +0.055 A 
ATOM      7  C   UNL     1      -0.219   4.143   0.196  0.00  0.00    +0.027 A 
ATOM      8  C   UNL     1      -1.475   3.575   0.288  0.00  0.00    +0.030 A 
ATOM      9  C   UNL     1      -1.609   2.200   0.325  0.00  0.00    +0.105 A 
ATOM     10  C   UNL     1      -0.488   1.392   0.283  0.00  0.00    +0.034 A 
ENDROOT
BRANCH   1  11
ATOM     11  S   UNL     1       2.318   5.529  -0.348  0.00  0.00    +0.076 S 
ATOM     12  O   UNL     1       1.388   6.232   0.464  0.00  0.00    -0.150 OA
ATOM     13  O   UNL     1       3.708   5.822  -0.343  0.00  0.00    -0.150 OA
BRANCH  11  17
ATOM     14  C   UNL     1       0.926   5.984  -4.642  0.00  0.00    +0.016 A 
ATOM     15  C   UNL     1       2.070   5.269  -4.355  0.00  0.00    +0.018 A 
ATOM     16  C   UNL     1       2.495   5.135  -3.044  0.00  0.00    +0.044 A 
ATOM     17  C   UNL     1       1.771   5.710  -2.013  0.00  0.00    +0.123 A 
ATOM     18  C   UNL     1       0.626   6.427  -2.287  0.00  0.00    +0.045 A 
ATOM     19  C   UNL     1       0.195   6.570  -3.607  0.00  0.00    +0.065 A 
ATOM     20 BR   UNL     1       4.069   4.159  -2.660  0.00  0.00    -0.048 Br
BRANCH  19  21
ATOM     21  C   UNL     1      -1.030   7.338  -3.908  0.00  0.00    +0.387 C 
ATOM     22  O   UNL     1      -1.665   7.847  -3.006  0.00  0.00    -0.241 OA
ATOM     23  O   UNL     1      -1.444   7.474  -5.183  0.00  0.00    -0.241 OA
ENDBRANCH  19  21
ENDBRANCH  11  17
ENDBRANCH   1  11
BRANCH   9  24
ATOM     24  S   UNL     1      -3.211   1.475   0.434  0.00  0.00    +0.056 S 
ATOM     25  O   UNL     1      -4.124   2.429  -0.090  0.00  0.00    -0.153 OA
ATOM     26  O   UNL     1      -3.098   0.160  -0.091  0.00  0.00    -0.153 OA
BRANCH  24  27
ATOM     27  N   UNL     1      -3.567   1.314   2.043  0.00  0.00    -0.204 NA
ATOM     28  H   UNL     1      -4.489   1.358   2.343  0.00  0.00    +0.144 HD
ATOM     29  H   UNL     1      -2.854   1.175   2.686  0.00  0.00    +0.144 HD
ENDBRANCH  24  27
ENDBRANCH   9  24
TORSDOF 5
