REMARK  Name = ZINC54411197
REMARK  10 active torsions:
REMARK  status: ('A' for Active; 'I' for Inactive)
REMARK    1  A    between atoms: C_1  and  C_2
REMARK    2  A    between atoms: C_5  and  N_12
REMARK    3  A    between atoms: N_9  and  C_11
REMARK    4  A    between atoms: N_15  and  C_16
REMARK    5  A    between atoms: C_16  and  C_17
REMARK    6  A    between atoms: C_17  and  C_18
REMARK    7  A    between atoms: C_17  and  C_19
REMARK    8  A    between atoms: C_17  and  N_20
REMARK    9  A    between atoms: C_22  and  C_29
REMARK   10  A    between atoms: C_25  and  C_28
REMARK                            x       y       z     vdW  Elec       q    Type
REMARK                         _______ _______ _______ _____ _____    ______ ____
ROOT
ATOM      1  N   UNL     1       2.869  -5.343  -6.249  0.00  0.00    -0.268 N 
ATOM      2  C   UNL     1       1.627  -4.873  -6.483  0.00  0.00    +0.304 C 
ATOM      3  O   UNL     1       0.805  -4.857  -5.588  0.00  0.00    -0.253 OA
ATOM      4  N   UNL     1       1.298  -4.421  -7.709  0.00  0.00    -0.300 N 
ATOM      5  H   UNL     1       3.547  -5.286  -6.940  0.00  0.00    +0.156 HD
ATOM      6  H   UNL     1       1.954  -4.434  -8.424  0.00  0.00    +0.150 HD
ENDROOT
BRANCH   1  11
ATOM      7  C   UNL     1       0.430  -8.359  -2.096  0.00  0.00    +0.068 C 
ATOM      8  C   UNL     1       1.873  -7.928  -2.042  0.00  0.00    +0.069 A 
ATOM      9  C   UNL     1       2.579  -7.155  -3.058  0.00  0.00    +0.043 A 
ATOM     10  C   UNL     1       2.215  -6.605  -4.293  0.00  0.00    +0.038 A 
ATOM     11  C   UNL     1       3.180  -5.913  -5.007  0.00  0.00    +0.054 A 
ATOM     12  C   UNL     1       4.464  -5.789  -4.477  0.00  0.00    +0.136 A 
ATOM     13  N   UNL     1       4.781  -6.314  -3.315  0.00  0.00    -0.234 NA
ATOM     14  C   UNL     1       3.897  -6.987  -2.589  0.00  0.00    +0.158 A 
ATOM     15  N   UNL     1       3.962  -7.621  -1.376  0.00  0.00    -0.249 N 
ATOM     16  N   UNL     1       2.713  -8.174  -1.078  0.00  0.00    -0.174 NA
ATOM     17  C   UNL     1       5.151  -7.702  -0.524  0.00  0.00    +0.174 C 
ENDBRANCH   1  11
BRANCH   4  18
ATOM     18  C   UNL     1      -0.052  -3.911  -7.964  0.00  0.00    +0.093 C 
BRANCH  18  19
ATOM     19  C   UNL     1      -0.198  -3.573  -9.449  0.00  0.00    -0.055 C 
ATOM     20  C   UNL     1      -0.092  -4.856 -10.276  0.00  0.00    -0.008 C 
ATOM     21  C   UNL     1      -1.560  -2.921  -9.692  0.00  0.00    -0.008 C 
BRANCH  19  22
ATOM     22  N   UNL     1       0.868  -2.644  -9.847  0.00  0.00    +0.384 N 
ATOM     23  C   UNL     1       0.795  -1.434  -9.020  0.00  0.00    -0.075 C 
ATOM     24  C   UNL     1       1.952  -0.498  -9.375  0.00  0.00    -0.031 C 
ATOM     25  C   UNL     1       1.855  -0.114 -10.854  0.00  0.00    +0.003 C 
ATOM     26  C   UNL     1       1.858  -1.388 -11.704  0.00  0.00    -0.031 C 
ATOM     27  C   UNL     1       0.704  -2.291 -11.262  0.00  0.00    -0.075 C 
ATOM     28  C   UNL     1       1.684  -1.019 -13.178  0.00  0.00    +0.005 C 
ATOM     29  C   UNL     1       1.872   0.763  -8.512  0.00  0.00    +0.005 C 
ATOM     30  H   UNL     1       1.765  -3.086  -9.713  0.00  0.00    -0.081 HD
ENDBRANCH  19  22
ENDBRANCH  18  19
ENDBRANCH   4  18
TORSDOF 4
