REMARK  Name = ZINC13468053
REMARK  4 active torsions:
REMARK  status: ('A' for Active; 'I' for Inactive)
REMARK    1  A    between atoms: C_6  and  S_7
REMARK    2  A    between atoms: S_7  and  O_10
REMARK    3  A    between atoms: O_10  and  C_11
REMARK    4  A    between atoms: C_18  and  C_20
REMARK                            x       y       z     vdW  Elec       q    Type
REMARK                         _______ _______ _______ _____ _____    ______ ____
ROOT
ATOM      1  C   UNL     1       2.274   0.984   0.914  0.00  0.00    +0.170 C 
ATOM      2  C   UNL     1       1.431   1.906  -0.001  0.00  0.00    +0.027 C 
ATOM      3  C   UNL     1       1.687   1.165  -1.393  0.00  0.00    +0.011 C 
ATOM      4  C   UNL     1       1.232  -0.260  -0.902  0.00  0.00    +0.014 C 
ATOM      5  C   UNL     1       2.318  -0.410   0.232  0.00  0.00    +0.126 C 
ATOM      6  C   UNL     1       0.002  -0.004   0.002  0.00  0.00    +0.025 C 
ATOM      7  C   UNL     1      -0.019   1.556   0.011  0.00  0.00    +0.027 C 
ATOM      8  C   UNL     1      -1.220   1.994   0.775  0.00  0.00    +0.139 C 
ATOM      9  C   UNL     1      -1.855   0.890   1.622  0.00  0.00    +0.043 C 
ATOM     10  C   UNL     1      -1.105   0.587   2.881  0.00  0.00    -0.025 C 
ATOM     11  C   UNL     1      -0.783  -0.676   2.947  0.00  0.00    -0.030 C 
ATOM     12  C   UNL     1      -1.227  -1.427   1.714  0.00  0.00    +0.033 C 
ATOM     13  C   UNL     1      -2.091  -0.440   0.906  0.00  0.00    +0.028 C 
ATOM     14  C   UNL     1      -1.411  -0.345  -0.520  0.00  0.00    +0.135 C 
ATOM     15  N   UNL     1      -2.095   0.863  -1.052  0.00  0.00    -0.188 NA
ATOM     16  N   UNL     1      -2.137   1.968  -0.451  0.00  0.00    -0.188 NA
ENDROOT
BRANCH   5  17
ATOM     17  C   UNL     1       1.942  -1.470   1.181  0.00  0.00    +0.069 C 
ATOM     18  N   UNL     1       1.652  -2.288   1.914  0.00  0.00    -0.196 NA
ENDBRANCH   5  17
BRANCH   1  19
ATOM     19  O   UNL     1       3.598   1.506   1.046  0.00  0.00    -0.229 OA
BRANCH  19  20
ATOM     20  S   UNL     1       4.218   1.281   2.418  0.00  0.00    +0.112 S 
ATOM     21  O   UNL     1       5.425   2.030   2.446  0.00  0.00    -0.142 OA
ATOM     22  O   UNL     1       3.180   1.474   3.369  0.00  0.00    -0.142 OA
BRANCH  20  28
ATOM     23  C   UNL     1       3.779  -1.350   2.997  0.00  0.00    +0.030 A 
ATOM     24  C   UNL     1       4.136  -2.683   3.065  0.00  0.00    +0.017 A 
ATOM     25  C   UNL     1       5.396  -3.083   2.658  0.00  0.00    +0.018 A 
ATOM     26  C   UNL     1       6.296  -2.149   2.177  0.00  0.00    +0.017 A 
ATOM     27  C   UNL     1       5.936  -0.817   2.104  0.00  0.00    +0.030 A 
ATOM     28  C   UNL     1       4.676  -0.417   2.511  0.00  0.00    +0.117 A 
ATOM     29 BR   UNL     1       5.889  -4.906   2.758  0.00  0.00    -0.050 Br
ENDBRANCH  20  28
ENDBRANCH  19  20
ENDBRANCH   1  19
TORSDOF 4
