REMARK  Name = ZINC13008655
REMARK  10 active torsions:
REMARK  status: ('A' for Active; 'I' for Inactive)
REMARK    1  A    between atoms: C_1  and  N_2
REMARK    2  A    between atoms: C_10  and  C_12
REMARK    3  A    between atoms: C_12  and  C_14
REMARK    4  A    between atoms: C_12  and  N_59
REMARK    5  A    between atoms: C_14  and  N_15
REMARK    6  A    between atoms: C_16  and  C_18
REMARK    7  A    between atoms: N_20  and  C_21
REMARK    8  A    between atoms: C_24  and  C_27
REMARK    9  A    between atoms: C_31  and  N_59
REMARK   10  A    between atoms: C_32  and  N_59
REMARK                            x       y       z     vdW  Elec       q    Type
REMARK                         _______ _______ _______ _____ _____    ______ ____
ROOT
ATOM      1  N   UNL     1       2.971  -5.052  -1.560  0.00  0.00    -0.309 N 
ATOM      2  C   UNL     1       1.843  -4.364  -1.294  0.00  0.00    +0.299 C 
ATOM      3  O   UNL     1       0.891  -4.929  -0.796  0.00  0.00    -0.265 OA
ATOM      4  H   UNL     1       3.732  -4.601  -1.958  0.00  0.00    +0.149 HD
ENDROOT
BRANCH   2   5
ATOM      5  C   UNL     1       1.764  -2.907  -1.613  0.00  0.00    +0.303 C 
ATOM      6  O   UNL     1       2.716  -2.342  -2.111  0.00  0.00    -0.265 OA
ATOM      7  N   UNL     1       0.636  -2.219  -1.347  0.00  0.00    -0.278 N 
ATOM      8  H   UNL     1      -0.095  -2.650  -0.876  0.00  0.00    +0.155 HD
BRANCH   7   9
ATOM      9  C   UNL     1       0.519  -0.886  -1.748  0.00  0.00    +0.034 A 
ATOM     10  C   UNL     1       1.100  -0.464  -2.938  0.00  0.00    +0.024 A 
ATOM     11  C   UNL     1       0.983   0.854  -3.332  0.00  0.00    +0.014 A 
ATOM     12  C   UNL     1       0.288   1.754  -2.545  0.00  0.00    +0.055 A 
ATOM     13  C   UNL     1      -0.291   1.337  -1.360  0.00  0.00    +0.014 A 
ATOM     14  C   UNL     1      -0.178   0.020  -0.960  0.00  0.00    +0.024 A 
BRANCH  12  15
ATOM     15  C   UNL     1       0.162   3.192  -2.978  0.00  0.00    +0.417 C 
ATOM     16  F   UNL     1      -0.988   3.344  -3.759  0.00  0.00    -0.166 F 
ATOM     17  F   UNL     1       0.072   4.013  -1.849  0.00  0.00    -0.166 F 
ATOM     18  F   UNL     1       1.287   3.553  -3.728  0.00  0.00    -0.166 F 
ENDBRANCH  12  15
ENDBRANCH   7   9
ENDBRANCH   2   5
BRANCH   1  19
ATOM     19  C   UNL     1       3.048  -6.481  -1.248  0.00  0.00    +0.094 C 
BRANCH  19  20
ATOM     20  C   UNL     1       4.463  -6.990  -1.533  0.00  0.00    -0.021 C 
BRANCH  20  30
ATOM     21  C   UNL     1       3.554 -12.949   0.358  0.00  0.00    +0.129 C 
ATOM     22  N   UNL     1       4.697 -12.561  -0.478  0.00  0.00    -0.333 N 
ATOM     23  C   UNL     1       4.795 -13.417  -1.662  0.00  0.00    +0.105 C 
ATOM     24  C   UNL     1       5.987 -12.950  -2.508  0.00  0.00    +0.024 C 
ATOM     25  C   UNL     1       5.645 -11.574  -3.084  0.00  0.00    +0.038 C 
ATOM     26  C   UNL     1       5.094 -10.690  -1.994  0.00  0.00    -0.026 A 
ATOM     27  C   UNL     1       4.653 -11.203  -0.786  0.00  0.00    +0.033 A 
ATOM     28  C   UNL     1       4.143 -10.335   0.181  0.00  0.00    +0.023 A 
ATOM     29  C   UNL     1       4.087  -8.979  -0.059  0.00  0.00    +0.004 A 
ATOM     30  C   UNL     1       4.527  -8.472  -1.268  0.00  0.00    -0.059 A 
ATOM     31  C   UNL     1       5.029  -9.326  -2.230  0.00  0.00    +0.007 A 
ENDBRANCH  20  30
BRANCH  20  34
ATOM     32  C   UNL     1       4.821  -6.005   0.649  0.00  0.00    -0.096 C 
ATOM     33  C   UNL     1       6.658  -7.069  -0.515  0.00  0.00    -0.096 C 
ATOM     34  N   UNL     1       5.425  -6.269  -0.673  0.00  0.00    +0.382 N 
ATOM     35  H   UNL     1       5.662  -5.374  -1.116  0.00  0.00    -0.082 HD
ENDBRANCH  20  34
ENDBRANCH  19  20
ENDBRANCH   1  19
TORSDOF 7
