REMARK  Name = ZINC06244859
REMARK  11 active torsions:
REMARK  status: ('A' for Active; 'I' for Inactive)
REMARK    1  A    between atoms: C_1  and  C_2
REMARK    2  A    between atoms: C_5  and  C_38
REMARK    3  A    between atoms: C_9  and  C_14
REMARK    4  A    between atoms: C_14  and  C_16
REMARK    5  A    between atoms: C_14  and  N_71
REMARK    6  A    between atoms: N_20  and  C_21
REMARK    7  A    between atoms: C_21  and  C_22
REMARK    8  A    between atoms: C_21  and  C_23
REMARK    9  A    between atoms: C_21  and  C_24
REMARK   10  A    between atoms: N_27  and  C_30
REMARK   11  A    between atoms: C_35  and  C_36
REMARK                            x       y       z     vdW  Elec       q    Type
REMARK                         _______ _______ _______ _____ _____    ______ ____
ROOT
ATOM      1  C   UNL     1       0.026   1.206   0.015  0.00  0.00    +0.039 C 
ENDROOT
BRANCH   1  10
ATOM      2  C   UNL     1      -2.769  -0.819   3.914  0.00  0.00    +0.044 C 
ATOM      3  C   UNL     1      -2.994   0.671   3.928  0.00  0.00    -0.041 A 
ATOM      4  C   UNL     1      -3.815   1.232   4.865  0.00  0.00    +0.004 A 
ATOM      5  C   UNL     1      -4.030   2.603   4.887  0.00  0.00    +0.005 A 
ATOM      6  C   UNL     1      -3.420   3.425   3.964  0.00  0.00    -0.026 A 
ATOM      7  C   UNL     1      -2.579   2.877   3.001  0.00  0.00    +0.052 A 
ATOM      8  C   UNL     1      -2.363   1.486   2.983  0.00  0.00    +0.002 A 
ATOM      9  C   UNL     1      -1.480   0.918   1.962  0.00  0.00    +0.018 A 
ATOM     10  C   UNL     1      -0.892   1.758   1.075  0.00  0.00    +0.011 A 
ATOM     11  C   UNL     1      -1.142   3.146   1.136  0.00  0.00    +0.251 A 
ATOM     12  O   UNL     1      -0.606   3.882   0.326  0.00  0.00    -0.268 OA
ATOM     13  N   UNL     1      -1.955   3.676   2.067  0.00  0.00    -0.322 N 
ATOM     14  H   UNL     1      -2.105   4.634   2.080  0.00  0.00    +0.169 HD
ATOM     15  C   UNL     1      -3.662   4.912   3.998  0.00  0.00    +0.046 C 
ENDBRANCH   1  10
BRANCH   1  21
ATOM     16  C   UNL     1      -1.838   1.224  -1.532  0.00  0.00    -0.058 C 
ATOM     17  C   UNL     1      -2.313   1.755  -2.886  0.00  0.00    +0.086 C 
ATOM     18  N   UNL     1      -1.440   1.235  -3.947  0.00  0.00    -0.333 N 
ATOM     19  C   UNL     1      -0.046   1.644  -3.726  0.00  0.00    +0.086 C 
ATOM     20  C   UNL     1       0.430   1.113  -2.371  0.00  0.00    -0.058 C 
ATOM     21  N   UNL     1      -0.443   1.661  -1.312  0.00  0.00    +0.391 N 
ATOM     22  H   UNL     1      -0.405   2.687  -1.346  0.00  0.00    -0.080 HD
BRANCH  18  23
ATOM     23  C   UNL     1      -1.887   1.641  -5.207  0.00  0.00    +0.034 A 
ATOM     24  C   UNL     1      -1.993   2.993  -5.505  0.00  0.00    +0.043 A 
ATOM     25  C   UNL     1      -2.432   3.391  -6.754  0.00  0.00    +0.043 A 
ATOM     26  C   UNL     1      -2.773   2.443  -7.703  0.00  0.00    +0.020 A 
ATOM     27  C   UNL     1      -2.673   1.097  -7.407  0.00  0.00    +0.006 A 
ATOM     28  C   UNL     1      -2.231   0.693  -6.162  0.00  0.00    -0.029 A 
ATOM     29  C   UNL     1      -2.122  -0.775  -5.840  0.00  0.00    +0.045 C 
ATOM     30 CL   UNL     1      -2.560   5.081  -7.130  0.00  0.00    -0.083 Cl
ENDBRANCH  18  23
ENDBRANCH   1  21
BRANCH   1  31
ATOM     31  C   UNL     1       1.423   1.723   0.242  0.00  0.00    +0.143 A 
ATOM     32  N   UNL     1       1.839   2.955   0.080  0.00  0.00    -0.115 NA
ATOM     33  N   UNL     1       3.092   2.995   0.377  0.00  0.00    -0.023 NA
ATOM     34  N   UNL     1       3.489   1.819   0.717  0.00  0.00    -0.043 NA
ATOM     35  N   UNL     1       2.489   1.006   0.647  0.00  0.00    -0.225 N 
BRANCH  35  36
ATOM     36  C   UNL     1       2.509  -0.427   0.950  0.00  0.00    +0.059 C 
ATOM     37  C   UNL     1       2.169  -1.221  -0.312  0.00  0.00    +0.036 C 
ATOM     38  C   UNL     1       3.903  -0.824   1.442  0.00  0.00    +0.036 C 
ATOM     39  C   UNL     1       1.478  -0.732   2.038  0.00  0.00    +0.036 C 
ENDBRANCH  35  36
ENDBRANCH   1  31
TORSDOF 5
