REMARK  Name = ZINC63806803
REMARK  4 active torsions:
REMARK  status: ('A' for Active; 'I' for Inactive)
REMARK    1  A    between atoms: C_1  and  S_2
REMARK    2  A    between atoms: S_2  and  N_5
REMARK    3  A    between atoms: C_14  and  C_16
REMARK    4  A    between atoms: C_21  and  C_24
REMARK                            x       y       z     vdW  Elec       q    Type
REMARK                         _______ _______ _______ _____ _____    ______ ____
ROOT
ATOM      1  C   UNL     1       2.631  -0.300  -0.351  0.00  0.00    +0.238 C 
ATOM      2  O   UNL     1       1.960  -0.193   0.653  0.00  0.00    -0.274 OA
ATOM      3  N   UNL     1       3.974  -0.220  -0.276  0.00  0.00    -0.263 N 
ATOM      4  C   UNL     1       4.589  -0.016   0.950  0.00  0.00    +0.165 A 
ATOM      5  N   UNL     1       5.872   0.094   1.222  0.00  0.00    -0.225 NA
ATOM      6  C   UNL     1       6.241   0.291   2.494  0.00  0.00    +0.079 A 
ATOM      7  C   UNL     1       5.249   0.370   3.462  0.00  0.00    +0.076 A 
ATOM      8  S   UNL     1       3.843   0.173   2.558  0.00  0.00    -0.060 S 
ATOM      9  H   UNL     1       4.511  -0.306  -1.080  0.00  0.00    +0.157 HD
ENDROOT
BRANCH   1  19
ATOM     10  N   UNL     1       1.123  -1.730  -1.625  0.00  0.00    -0.165 NA
ATOM     11  C   UNL     1       0.455  -2.148  -2.862  0.00  0.00    +0.145 C 
ATOM     12  C   UNL     1      -0.145  -0.945  -3.546  0.00  0.00    -0.028 A 
ATOM     13  C   UNL     1      -1.021  -1.169  -4.599  0.00  0.00    +0.005 A 
ATOM     14  C   UNL     1      -1.594  -0.109  -5.271  0.00  0.00    +0.000 A 
ATOM     15  C   UNL     1      -1.292   1.186  -4.893  0.00  0.00    +0.000 A 
ATOM     16  C   UNL     1      -0.425   1.410  -3.844  0.00  0.00    +0.004 A 
ATOM     17  C   UNL     1       0.149   0.344  -3.162  0.00  0.00    -0.041 A 
ATOM     18  C   UNL     1       1.065   0.664  -2.010  0.00  0.00    +0.065 C 
ATOM     19  C   UNL     1       1.962  -0.522  -1.684  0.00  0.00    +0.170 C 
BRANCH  10  21
ATOM     20  C   UNL     1      -0.340  -1.678   0.706  0.00  0.00    +0.215 C 
ATOM     21  S   UNL     1       0.935  -2.580  -0.216  0.00  0.00    +0.030 S 
ATOM     22  O   UNL     1       2.188  -2.468   0.445  0.00  0.00    -0.158 OA
ATOM     23  O   UNL     1       0.441  -3.849  -0.621  0.00  0.00    -0.158 OA
ENDBRANCH  10  21
ENDBRANCH   1  19
BRANCH   6  24
ATOM     24  C   UNL     1       7.604   0.415   2.841  0.00  0.00    +0.007 C 
ATOM     25  C   UNL     1       8.699   0.363   1.983  0.00  0.00    +0.005 A 
ATOM     26  C   UNL     1       8.808   0.184   0.586  0.00  0.00    +0.010 A 
ATOM     27  C   UNL     1      10.034   0.176   0.002  0.00  0.00    +0.001 A 
ATOM     28  C   UNL     1      11.201   0.342   0.750  0.00  0.00    +0.002 A 
ATOM     29  C   UNL     1      11.171   0.519   2.094  0.00  0.00    +0.026 A 
ATOM     30  C   UNL     1       9.927   0.539   2.775  0.00  0.00    +0.043 A 
ATOM     31  N   UNL     1       9.634   0.693   4.052  0.00  0.00    -0.380 N 
ATOM     32  C   UNL     1       8.178   0.639   4.222  0.00  0.00    +0.151 C 
ATOM     33  H   UNL     1      10.278   0.824   4.764  0.00  0.00    +0.160 HD
ENDBRANCH   6  24
TORSDOF 3
