REMARK  Name = ZINC20292565
REMARK  9 active torsions:
REMARK  status: ('A' for Active; 'I' for Inactive)
REMARK    1  A    between atoms: C_1  and  C_2
REMARK    2  A    between atoms: N_4  and  C_5
REMARK    3  A    between atoms: C_9  and  N_11
REMARK    4  A    between atoms: C_12  and  C_14
REMARK    5  A    between atoms: C_14  and  S_15
REMARK    6  A    between atoms: S_15  and  C_16
REMARK    7  A    between atoms: N_20  and  N_21
REMARK    8  A    between atoms: N_22  and  N_23
REMARK    9  A    between atoms: C_24  and  C_25
REMARK                            x       y       z     vdW  Elec       q    Type
REMARK                         _______ _______ _______ _____ _____    ______ ____
ROOT
ATOM      1  C   UNL     1      -0.521  -9.637  -5.865  0.00  0.00    +0.210 A 
ATOM      2  N   UNL     1      -0.427  -9.025  -7.022  0.00  0.00    -0.119 NA
ATOM      3  N   UNL     1      -0.526  -9.991  -8.032  0.00  0.00    -0.109 NA
ATOM      4  C   UNL     1      -0.678 -11.161  -7.460  0.00  0.00    +0.254 A 
ATOM      5  N   UNL     1      -0.674 -10.973  -6.106  0.00  0.00    -0.211 N 
ATOM      6  N   UNL     1      -0.814 -12.377  -8.114  0.00  0.00    -0.204 N 
ATOM      7  H   UNL     1      -0.923 -13.193  -7.602  0.00  0.00    +0.177 HD
ENDROOT
BRANCH   5   8
ATOM      8  N   UNL     1      -0.802 -11.949  -5.159  0.00  0.00    -0.294 N 
ATOM      9  H   UNL     1      -1.772 -12.098  -4.923  0.00  0.00    +0.163 HD
ATOM     10  H   UNL     1      -0.368 -12.807  -5.463  0.00  0.00    +0.163 HD
ENDBRANCH   5   8
BRANCH   6  11
ATOM     11  N   UNL     1      -0.795 -12.425  -9.514  0.00  0.00    -0.187 NA
ATOM     12  C   UNL     1      -0.922 -13.563 -10.126  0.00  0.00    +0.139 C 
BRANCH  12  13
ATOM     13  C   UNL     1      -0.902 -13.614 -11.599  0.00  0.00    +0.013 A 
ATOM     14  C   UNL     1      -1.044 -14.835 -12.272  0.00  0.00    +0.012 A 
ATOM     15  C   UNL     1      -1.019 -14.828 -13.655  0.00  0.00    +0.020 A 
ATOM     16  C   UNL     1      -0.855 -13.627 -14.324  0.00  0.00    +0.111 A 
ATOM     17  N   UNL     1      -0.723 -12.492 -13.664  0.00  0.00    -0.263 NA
ATOM     18  C   UNL     1      -0.747 -12.446 -12.349  0.00  0.00    +0.120 A 
ENDBRANCH  12  13
ENDBRANCH   6  11
BRANCH   1  19
ATOM     19  S   UNL     1      -0.456  -8.870  -4.280  0.00  0.00    -0.075 S 
BRANCH  19  20
ATOM     20  C   UNL     1      -0.244  -7.108  -4.653  0.00  0.00    +0.173 C 
BRANCH  20  22
ATOM     21  N   UNL     1      -0.016  -4.989  -3.397  0.00  0.00    -0.285 N 
ATOM     22  C   UNL     1      -0.173  -6.327  -3.366  0.00  0.00    +0.227 C 
ATOM     23  O   UNL     1      -0.256  -6.903  -2.302  0.00  0.00    -0.275 OA
ATOM     24  H   UNL     1       0.118  -4.536  -4.245  0.00  0.00    +0.155 HD
BRANCH  21  29
ATOM     25  C   UNL     1      -0.628  -2.254  -1.011  0.00  0.00    +0.035 A 
ATOM     26  C   UNL     1      -0.102  -2.801   0.153  0.00  0.00    +0.023 A 
ATOM     27  C   UNL     1       0.449  -4.068   0.134  0.00  0.00    +0.004 A 
ATOM     28  C   UNL     1       0.478  -4.795  -1.042  0.00  0.00    +0.023 A 
ATOM     29  C   UNL     1      -0.046  -4.253  -2.208  0.00  0.00    +0.035 A 
ATOM     30  C   UNL     1      -0.605  -2.982  -2.191  0.00  0.00    +0.046 A 
BRANCH  25  34
ATOM     31  C   UNL     1      -2.920   0.661  -1.663  0.00  0.00    +0.109 C 
ATOM     32  C   UNL     1      -2.255  -0.688  -1.761  0.00  0.00    +0.214 C 
ATOM     33  O   UNL     1      -2.682  -1.520  -2.533  0.00  0.00    -0.276 OA
ATOM     34  N   UNL     1      -1.185  -0.971  -0.991  0.00  0.00    -0.286 N 
ATOM     35  H   UNL     1      -0.802  -0.284  -0.422  0.00  0.00    +0.155 HD
ENDBRANCH  25  34
ENDBRANCH  21  29
ENDBRANCH  20  22
ENDBRANCH  19  20
ENDBRANCH   1  19
TORSDOF 8
