REMARK  Name = ZINC35709921
REMARK  11 active torsions:
REMARK  status: ('A' for Active; 'I' for Inactive)
REMARK    1  A    between atoms: C_1  and  C_2
REMARK    2  A    between atoms: C_3  and  C_30
REMARK    3  A    between atoms: C_4  and  C_23
REMARK    4  A    between atoms: C_7  and  C_12
REMARK    5  A    between atoms: C_13  and  N_15
REMARK    6  A    between atoms: N_15  and  C_16
REMARK    7  A    between atoms: C_16  and  C_17
REMARK    8  A    between atoms: N_32  and  C_33
REMARK    9  A    between atoms: C_33  and  C_34
REMARK   10  A    between atoms: C_33  and  C_35
REMARK   11  A    between atoms: C_33  and  C_36
REMARK                            x       y       z     vdW  Elec       q    Type
REMARK                         _______ _______ _______ _____ _____    ______ ____
ROOT
ATOM      1  C   UNL     1      -0.685   1.369  -0.100  0.00  0.00    +0.066 C 
ATOM      2  C   UNL     1      -0.344  -0.093   0.028  0.00  0.00    +0.051 C 
ATOM      3  C   UNL     1      -1.346  -1.039  -0.045  0.00  0.00    +0.060 C 
ATOM      4  C   UNL     1      -0.953  -2.494   0.089  0.00  0.00    +0.148 C 
ATOM      5  N   UNL     1       0.490  -2.789   0.289  0.00  0.00    -0.267 N 
ATOM      6  C   UNL     1       1.072  -4.033   0.434  0.00  0.00    +0.048 C 
ATOM      7  C   UNL     1       2.411  -4.083   0.607  0.00  0.00    +0.072 C 
ATOM      8  S   UNL     1       2.853  -2.357   0.564  0.00  0.00    -0.060 S 
ATOM      9  C   UNL     1       1.323  -1.706   0.332  0.00  0.00    +0.166 C 
ATOM     10  N   UNL     1       0.916  -0.461   0.203  0.00  0.00    -0.230 NA
ENDROOT
BRANCH   4  11
ATOM     11  C   UNL     1      -1.711  -3.073   1.256  0.00  0.00    -0.022 A 
ATOM     12  C   UNL     1      -1.417  -2.664   2.543  0.00  0.00    +0.007 A 
ATOM     13  C   UNL     1      -2.111  -3.195   3.613  0.00  0.00    +0.020 A 
ATOM     14  C   UNL     1      -3.101  -4.136   3.396  0.00  0.00    +0.041 A 
ATOM     15  C   UNL     1      -3.396  -4.546   2.108  0.00  0.00    +0.020 A 
ATOM     16  C   UNL     1      -2.704  -4.010   1.038  0.00  0.00    +0.007 A 
ATOM     17 CL   UNL     1      -3.974  -4.804   4.740  0.00  0.00    -0.084 Cl
ENDBRANCH   4  11
BRANCH   3  18
ATOM     18  C   UNL     1      -2.684  -0.664  -0.236  0.00  0.00    +0.244 C 
ATOM     19  O   UNL     1      -2.994   0.515  -0.227  0.00  0.00    -0.270 OA
ATOM     20  N   UNL     1      -3.627  -1.608  -0.429  0.00  0.00    -0.307 N 
ATOM     21  H   UNL     1      -3.393  -2.547  -0.367  0.00  0.00    +0.150 HD
BRANCH  20  22
ATOM     22  C   UNL     1      -5.005  -1.215  -0.734  0.00  0.00    +0.026 C 
ATOM     23  C   UNL     1      -5.028  -0.398  -2.028  0.00  0.00    +0.031 C 
ATOM     24  C   UNL     1      -5.867  -2.467  -0.906  0.00  0.00    +0.031 C 
ATOM     25  C   UNL     1      -5.559  -0.368   0.413  0.00  0.00    +0.031 C 
ENDBRANCH  20  22
ENDBRANCH   3  18
BRANCH   6  26
ATOM     26  C   UNL     1       0.263  -5.260   0.403  0.00  0.00    +0.091 C 
ATOM     27  C   UNL     1       0.834  -6.450   0.671  0.00  0.00    +0.239 C 
ATOM     28  O   UNL     1       2.173  -6.532   0.863  0.00  0.00    -0.271 OA
BRANCH  27  29
ATOM     29  N   UNL     1       0.052  -7.591   0.750  0.00  0.00    -0.309 N 
ATOM     30  H   UNL     1      -0.894  -7.546   0.541  0.00  0.00    +0.149 HD
BRANCH  29  31
ATOM     31  C   UNL     1       0.654  -8.865   1.151  0.00  0.00    +0.136 C 
BRANCH  31  32
ATOM     32  C   UNL     1      -0.389  -9.979   1.040  0.00  0.00    +0.135 C 
ATOM     33  C   UNL     1       0.218 -11.331   1.493  0.00  0.00    +0.035 C 
ATOM     34  C   UNL     1      -1.062 -12.100   1.919  0.00  0.00    +0.031 C 
ATOM     35  C   UNL     1      -1.947 -10.972   2.491  0.00  0.00    +0.160 C 
ATOM     36  O   UNL     1      -1.478  -9.733   1.944  0.00  0.00    -0.375 OA
ENDBRANCH  31  32
ENDBRANCH  29  31
ENDBRANCH  27  29
ENDBRANCH   6  26
TORSDOF 7
