REMARK  Name = ZINC08822162
REMARK  7 active torsions:
REMARK  status: ('A' for Active; 'I' for Inactive)
REMARK    1  A    between atoms: C_1  and  C_2
REMARK    2  A    between atoms: N_4  and  C_5
REMARK    3  A    between atoms: C_8  and  N_11
REMARK    4  A    between atoms: C_12  and  C_14
REMARK    5  A    between atoms: C_14  and  S_15
REMARK    6  A    between atoms: S_15  and  C_16
REMARK    7  A    between atoms: C_22  and  C_24
REMARK                            x       y       z     vdW  Elec       q    Type
REMARK                         _______ _______ _______ _____ _____    ______ ____
ROOT
ATOM      1  S   UNL     1      -0.856   1.654  -1.448  0.00  0.00    -0.088 S 
ENDROOT
BRANCH   1   2
ATOM      2  C   UNL     1       0.077   0.993  -2.789  0.00  0.00    +0.160 A 
ATOM      3  N   UNL     1       1.159   0.229  -2.779  0.00  0.00    -0.133 NA
ATOM      4  N   UNL     1       1.710  -0.161  -3.845  0.00  0.00    -0.125 NA
ATOM      5  C   UNL     1       1.241   0.167  -5.038  0.00  0.00    +0.189 A 
ATOM      6  S   UNL     1      -0.172   1.155  -4.555  0.00  0.00    -0.024 S 
ATOM      7  N   UNL     1       1.708  -0.166  -6.305  0.00  0.00    -0.259 N 
ATOM      8  C   UNL     1       2.804  -0.939  -6.438  0.00  0.00    +0.250 C 
ATOM      9  O   UNL     1       3.384  -1.346  -5.450  0.00  0.00    -0.270 OA
ATOM     10  H   UNL     1       1.246   0.159  -7.094  0.00  0.00    +0.157 HD
BRANCH   8  11
ATOM     11  C   UNL     1       3.301  -1.292  -7.784  0.00  0.00    +0.038 A 
ATOM     12  C   UNL     1       4.436  -2.093  -7.925  0.00  0.00    +0.013 A 
ATOM     13  C   UNL     1       4.895  -2.420  -9.184  0.00  0.00    +0.002 A 
ATOM     14  C   UNL     1       4.232  -1.957 -10.307  0.00  0.00    +0.020 A 
ATOM     15  C   UNL     1       3.106  -1.163 -10.175  0.00  0.00    +0.042 A 
ATOM     16  C   UNL     1       2.634  -0.832  -8.920  0.00  0.00    +0.033 A 
ATOM     17 CL   UNL     1       2.281  -0.588 -11.591  0.00  0.00    -0.084 Cl
ENDBRANCH   8  11
ENDBRANCH   1   2
BRANCH   1  18
ATOM     18  C   UNL     1       0.008   1.049   0.027  0.00  0.00    +0.172 C 
BRANCH  18  20
ATOM     19  N   UNL     1      -0.229   1.222   2.483  0.00  0.00    -0.285 N 
ATOM     20  C   UNL     1      -0.696   1.549   1.262  0.00  0.00    +0.227 C 
ATOM     21  O   UNL     1      -1.684   2.245   1.157  0.00  0.00    -0.275 OA
ATOM     22  H   UNL     1       0.520   0.612   2.569  0.00  0.00    +0.155 HD
BRANCH  19  26
ATOM     23  C   UNL     1      -2.002   2.837   5.895  0.00  0.00    +0.033 A 
ATOM     24  C   UNL     1      -2.780   2.530   4.787  0.00  0.00    +0.025 A 
ATOM     25  C   UNL     1      -2.194   1.995   3.658  0.00  0.00    +0.025 A 
ATOM     26  C   UNL     1      -0.824   1.765   3.629  0.00  0.00    +0.034 A 
ATOM     27  C   UNL     1      -0.046   2.067   4.739  0.00  0.00    +0.025 A 
ATOM     28  C   UNL     1      -0.632   2.607   5.867  0.00  0.00    +0.025 A 
BRANCH  23  32
ATOM     29  C   UNL     1      -2.610   4.951   8.951  0.00  0.00    +0.109 C 
ATOM     30  C   UNL     1      -1.932   4.290   7.779  0.00  0.00    +0.214 C 
ATOM     31  O   UNL     1      -0.786   4.577   7.500  0.00  0.00    -0.276 OA
ATOM     32  N   UNL     1      -2.597   3.380   7.040  0.00  0.00    -0.286 N 
ATOM     33  H   UNL     1      -3.489   3.101   7.302  0.00  0.00    +0.155 HD
ENDBRANCH  23  32
ENDBRANCH  19  26
ENDBRANCH  18  20
ENDBRANCH   1  18
TORSDOF 6
