REMARK  Name = ZINC09683649
REMARK  5 active torsions:
REMARK  status: ('A' for Active; 'I' for Inactive)
REMARK    1  A    between atoms: C_6  and  C_7
REMARK    2  A    between atoms: C_12  and  C_13
REMARK    3  A    between atoms: C_12  and  N_58
REMARK    4  A    between atoms: N_15  and  C_16
REMARK    5  A    between atoms: C_17  and  C_24
REMARK                            x       y       z     vdW  Elec       q    Type
REMARK                         _______ _______ _______ _____ _____    ______ ____
ROOT
ATOM      1  C   UNL     1      -0.327   5.368  -5.942  0.00  0.00    +0.020 C 
ENDROOT
BRANCH   1   6
ATOM      2  C   UNL     1       1.397   4.474  -4.474  0.00  0.00    -0.037 C 
ATOM      3  C   UNL     1       2.885   4.780  -4.196  0.00  0.00    -0.013 C 
ATOM      4  C   UNL     1       3.284   5.826  -5.257  0.00  0.00    -0.020 C 
ATOM      5  C   UNL     1       2.004   6.064  -6.087  0.00  0.00    -0.077 C 
ATOM      6  N   UNL     1       0.927   5.670  -5.181  0.00  0.00    +0.390 N 
ATOM      7  H   UNL     1       0.740   6.424  -4.510  0.00  0.00    -0.080 HD
BRANCH   2  13
ATOM      8  C   UNL     1       0.296   5.363  -2.412  0.00  0.00    +0.006 A 
ATOM      9  C   UNL     1      -0.389   5.184  -1.223  0.00  0.00    +0.049 A 
ATOM     10  C   UNL     1      -0.719   3.906  -0.806  0.00  0.00    +0.162 A 
ATOM     11  C   UNL     1      -0.362   2.809  -1.579  0.00  0.00    +0.162 A 
ATOM     12  C   UNL     1       0.324   2.991  -2.767  0.00  0.00    +0.051 A 
ATOM     13  C   UNL     1       0.651   4.271  -3.181  0.00  0.00    -0.057 A 
ATOM     14  O   UNL     1      -0.692   1.553  -1.159  0.00  0.00    -0.488 OA
ATOM     15  C   UNL     1      -0.013   1.086   0.008  0.00  0.00    +0.232 C 
ATOM     16  C   UNL     1      -0.712   1.570   1.269  0.00  0.00    +0.082 C 
ATOM     17  C   UNL     1      -0.662   3.083   1.414  0.00  0.00    +0.232 C 
ATOM     18  O   UNL     1      -1.395   3.716   0.363  0.00  0.00    -0.488 OA
ENDBRANCH   2  13
ENDBRANCH   1   6
BRANCH   1  19
ATOM     19  C   UNL     1      -0.947   6.648  -6.441  0.00  0.00    +0.201 C 
ATOM     20  O   UNL     1      -0.426   7.713  -6.188  0.00  0.00    -0.278 OA
ATOM     21  N   UNL     1      -2.081   6.608  -7.169  0.00  0.00    -0.281 N 
ATOM     22  H   UNL     1      -2.498   5.756  -7.372  0.00  0.00    +0.155 HD
BRANCH  21  23
ATOM     23  C   UNL     1      -2.652   7.786  -7.628  0.00  0.00    +0.084 A 
ATOM     24  C   UNL     1      -3.801   7.948  -8.382  0.00  0.00    +0.068 A 
ATOM     25  C   UNL     1      -4.192   9.312  -8.737  0.00  0.00    -0.023 A 
ATOM     26  C   UNL     1      -3.371  10.277  -8.284  0.00  0.00    -0.004 A 
ATOM     27  S   UNL     1      -2.104   9.410  -7.391  0.00  0.00    -0.077 S 
ATOM     28  C   UNL     1      -3.835  11.649  -8.691  0.00  0.00    +0.043 C 
ATOM     29  C   UNL     1      -4.839  11.396  -9.837  0.00  0.00    +0.010 C 
ATOM     30  C   UNL     1      -5.331   9.971  -9.516  0.00  0.00    +0.037 C 
BRANCH  24  31
ATOM     31  C   UNL     1      -4.599   6.794  -8.809  0.00  0.00    +0.244 C 
ATOM     32  O   UNL     1      -5.500   6.382  -8.102  0.00  0.00    -0.270 OA
ATOM     33  N   UNL     1      -4.334   6.189  -9.984  0.00  0.00    -0.325 N 
ATOM     34  H   UNL     1      -3.615   6.518 -10.547  0.00  0.00    +0.145 HD
ATOM     35  H   UNL     1      -4.861   5.426 -10.266  0.00  0.00    +0.145 HD
ENDBRANCH  24  31
ENDBRANCH  21  23
ENDBRANCH   1  19
TORSDOF 5
