REMARK  Name = ZINC30836305
REMARK  7 active torsions:
REMARK  status: ('A' for Active; 'I' for Inactive)
REMARK    1  A    between atoms: C_1  and  N_2
REMARK    2  A    between atoms: C_4  and  C_11
REMARK    3  A    between atoms: N_7  and  C_10
REMARK    4  A    between atoms: N_12  and  N_13
REMARK    5  A    between atoms: C_14  and  C_16
REMARK    6  A    between atoms: C_17  and  N_21
REMARK    7  A    between atoms: N_24  and  C_25
REMARK                            x       y       z     vdW  Elec       q    Type
REMARK                         _______ _______ _______ _____ _____    ______ ____
ROOT
ATOM      1  N   UNL     1      -1.152   7.920   0.001  0.00  0.00    -0.223 N 
ATOM      2  C   UNL     1      -1.014   6.579   0.020  0.00  0.00    +0.284 C 
ATOM      3  O   UNL     1       0.077   6.077  -0.177  0.00  0.00    -0.267 OA
ATOM      4  H   UNL     1      -2.139   8.373   0.178  0.00  0.00    +0.175 HD
ENDROOT
BRANCH   1   6
ATOM      5  C   UNL     1      -0.174  10.033  -0.264  0.00  0.00    +0.121 C 
ATOM      6  N   UNL     1      -0.040   8.735  -0.245  0.00  0.00    -0.291 N 
ATOM      7  N   UNL     1      -1.420  10.606  -0.039  0.00  0.00    -0.343 N 
ATOM      8  H   UNL     1      -2.293   9.966   0.154  0.00  0.00    +0.144 HD
ATOM      9  H   UNL     1      -1.533  11.700  -0.055  0.00  0.00    +0.144 HD
ATOM     10  H   UNL     1       0.946   8.281  -0.423  0.00  0.00    +0.186 HD
BRANCH   5  14
ATOM     11  C   UNL     1       1.848  14.478  -0.812  0.00  0.00    +0.153 C 
ATOM     12  N   UNL     1       1.980  13.020  -0.788  0.00  0.00    -0.303 N 
ATOM     13  C   UNL     1       0.878  12.253  -0.546  0.00  0.00    +0.107 A 
ATOM     14  C   UNL     1       0.998  10.892  -0.523  0.00  0.00    +0.094 A 
ATOM     15  C   UNL     1       2.326  10.306  -0.756  0.00  0.00    +0.267 A 
ATOM     16  O   UNL     1       2.485   9.099  -0.741  0.00  0.00    -0.267 OA
ATOM     17  N   UNL     1       3.366  11.133  -0.994  0.00  0.00    -0.263 N 
ATOM     18  C   UNL     1       3.184  12.466  -1.005  0.00  0.00    +0.331 A 
ATOM     19  O   UNL     1       4.138  13.190  -1.216  0.00  0.00    -0.246 OA
ATOM     20  C   UNL     1       4.700  10.578  -1.236  0.00  0.00    +0.157 C 
ENDBRANCH   5  14
ENDBRANCH   1   6
BRANCH   2  21
ATOM     21  C   UNL     1      -2.181   5.724   0.278  0.00  0.00    +0.179 A 
ATOM     22  C   UNL     1      -2.082   4.331   0.306  0.00  0.00    +0.126 A 
ATOM     23  S   UNL     1      -3.724   3.888   0.650  0.00  0.00    +0.052 S 
ATOM     24  N   UNL     1      -4.394   5.460   0.723  0.00  0.00    -0.108 NA
ATOM     25  N   UNL     1      -3.385   6.230   0.492  0.00  0.00    -0.134 NA
BRANCH  22  26
ATOM     26  N   UNL     1      -0.973   3.522   0.117  0.00  0.00    -0.260 N 
ATOM     27  C   UNL     1      -1.096   2.182   0.193  0.00  0.00    +0.309 C 
ATOM     28  O   UNL     1      -2.179   1.683   0.428  0.00  0.00    -0.252 OA
ATOM     29  N   UNL     1      -0.017   1.395   0.010  0.00  0.00    -0.269 N 
ATOM     30  H   UNL     1       0.007   3.974  -0.095  0.00  0.00    +0.157 HD
ATOM     31  H   UNL     1       0.978   1.847  -0.115  0.00  0.00    +0.156 HD
BRANCH  29  32
ATOM     32  C   UNL     1      -0.163   0.004  -0.022  0.00  0.00    +0.035 A 
ATOM     33  C   UNL     1       0.849  -0.813   0.464  0.00  0.00    +0.023 A 
ATOM     34  C   UNL     1       0.700  -2.186   0.437  0.00  0.00    +0.002 A 
ATOM     35  C   UNL     1      -0.452  -2.747  -0.084  0.00  0.00    +0.000 A 
ATOM     36  C   UNL     1      -1.459  -1.937  -0.575  0.00  0.00    +0.002 A 
ATOM     37  C   UNL     1      -1.318  -0.563  -0.545  0.00  0.00    +0.023 A 
ENDBRANCH  29  32
ENDBRANCH  22  26
ENDBRANCH   2  21
TORSDOF 5
