REMARK  Name = ZINC46914948
REMARK  10 active torsions:
REMARK  status: ('A' for Active; 'I' for Inactive)
REMARK    1  A    between atoms: C_1  and  C_2
REMARK    2  A    between atoms: C_2  and  C_3
REMARK    3  A    between atoms: C_8  and  N_9
REMARK    4  A    between atoms: C_10  and  C_12
REMARK    5  A    between atoms: C_12  and  N_13
REMARK    6  A    between atoms: C_14  and  N_32
REMARK    7  A    between atoms: C_15  and  C_20
REMARK    8  A    between atoms: C_16  and  S_18
REMARK    9  A    between atoms: S_18  and  C_19
REMARK   10  A    between atoms: C_22  and  C_25
REMARK                            x       y       z     vdW  Elec       q    Type
REMARK                         _______ _______ _______ _____ _____    ______ ____
ROOT
ATOM      1  N   UNL     1       6.362  -0.515   0.938  0.00  0.00    -0.240 N 
ATOM      2  C   UNL     1       6.956  -1.712   1.119  0.00  0.00    +0.129 A 
ATOM      3  C   UNL     1       8.298  -1.563   0.786  0.00  0.00    +0.112 A 
ATOM      4  C   UNL     1       8.479  -0.211   0.394  0.00  0.00    +0.133 A 
ATOM      5  N   UNL     1       7.322   0.395   0.483  0.00  0.00    -0.162 NA
ENDROOT
BRANCH   3   6
ATOM      6  C   UNL     1       9.332  -2.606   0.831  0.00  0.00    +0.265 A 
ATOM      7  N   UNL     1      10.601  -2.450   0.517  0.00  0.00    -0.187 NA
ATOM      8  C   UNL     1      11.256  -3.611   0.675  0.00  0.00    +0.202 A 
ATOM      9  N   UNL     1      10.411  -4.522   1.092  0.00  0.00    -0.056 NA
ATOM     10  O   UNL     1       9.147  -3.885   1.207  0.00  0.00    -0.332 OA
BRANCH   8  11
ATOM     11  C   UNL     1      12.702  -3.827   0.419  0.00  0.00    +0.023 A 
ATOM     12  C   UNL     1      13.500  -2.772  -0.018  0.00  0.00    +0.013 A 
ATOM     13  C   UNL     1      14.844  -2.979  -0.255  0.00  0.00    +0.021 A 
ATOM     14  C   UNL     1      15.399  -4.231  -0.058  0.00  0.00    +0.041 A 
ATOM     15  C   UNL     1      14.610  -5.283   0.377  0.00  0.00    +0.021 A 
ATOM     16  C   UNL     1      13.267  -5.085   0.621  0.00  0.00    +0.013 A 
ATOM     17 CL   UNL     1      17.090  -4.485  -0.357  0.00  0.00    -0.084 Cl
ENDBRANCH   8  11
ENDBRANCH   3   6
BRANCH   2  18
ATOM     18  N   UNL     1       6.345  -2.873   1.557  0.00  0.00    -0.343 N 
ATOM     19  H   UNL     1       5.397  -2.873   1.765  0.00  0.00    +0.144 HD
ATOM     20  H   UNL     1       6.863  -3.687   1.655  0.00  0.00    +0.144 HD
ENDBRANCH   2  18
BRANCH   4  21
ATOM     21  S   UNL     1       9.994   0.521  -0.129  0.00  0.00    -0.107 S 
ATOM     22  C   UNL     1       9.550   2.244  -0.481  0.00  0.00    +0.091 C 
ENDBRANCH   4  21
BRANCH   1  23
ATOM     23  C   UNL     1       4.947  -0.219   1.171  0.00  0.00    +0.241 C 
BRANCH  23  25
ATOM     24  N   UNL     1       2.833  -0.268  -0.113  0.00  0.00    -0.284 N 
ATOM     25  C   UNL     1       4.165  -0.474  -0.091  0.00  0.00    +0.239 C 
ATOM     26  O   UNL     1       4.734  -0.865  -1.088  0.00  0.00    -0.273 OA
ATOM     27  H   UNL     1       2.388   0.106   0.663  0.00  0.00    +0.155 HD
BRANCH  24  33
ATOM     28  C   UNL     1       0.800  -1.084  -1.129  0.00  0.00    -0.026 A 
ATOM     29  C   UNL     1       0.070  -1.399  -2.258  0.00  0.00    +0.005 A 
ATOM     30  C   UNL     1       0.627  -1.234  -3.513  0.00  0.00    +0.000 A 
ATOM     31  C   UNL     1       1.917  -0.751  -3.641  0.00  0.00    +0.002 A 
ATOM     32  C   UNL     1       2.652  -0.433  -2.516  0.00  0.00    +0.023 A 
ATOM     33  C   UNL     1       2.093  -0.594  -1.255  0.00  0.00    +0.037 A 
BRANCH  28  35
ATOM     34  C   UNL     1      -0.422   0.058   0.702  0.00  0.00    +0.009 C 
ATOM     35  C   UNL     1       0.191  -1.265   0.238  0.00  0.00    +0.033 C 
ENDBRANCH  28  35
ENDBRANCH  24  33
ENDBRANCH  23  25
ENDBRANCH   1  23
TORSDOF 8
