REMARK  Name = ZINC04928076
REMARK  20 active torsions:
REMARK  status: ('A' for Active; 'I' for Inactive)
REMARK    1  A    between atoms: C_1  and  C_2
REMARK    2  A    between atoms: C_2  and  C_3
REMARK    3  A    between atoms: C_3  and  C_4
REMARK    4  A    between atoms: C_4  and  C_5
REMARK    5  A    between atoms: C_5  and  C_7
REMARK    6  A    between atoms: C_5  and  C_9
REMARK    7  A    between atoms: C_7  and  C_8
REMARK    8  A    between atoms: N_11  and  C_12
REMARK    9  A    between atoms: N_11  and  C_17
REMARK   10  A    between atoms: C_12  and  C_13
REMARK   11  A    between atoms: C_13  and  C_14
REMARK   12  A    between atoms: C_14  and  O_15
REMARK   13  A    between atoms: O_15  and  C_16
REMARK   14  A    between atoms: C_17  and  C_18
REMARK   15  A    between atoms: C_20  and  C_23
REMARK   16  A    between atoms: N_25  and  C_26
REMARK   17  A    between atoms: C_26  and  C_27
REMARK   18  A    between atoms: C_27  and  C_28
REMARK   19  A    between atoms: C_28  and  O_29
REMARK   20  A    between atoms: O_29  and  C_30
REMARK                            x       y       z     vdW  Elec       q    Type
REMARK                         _______ _______ _______ _____ _____    ______ ____
ROOT
ATOM      1  C   UNL     1      -2.106   1.000   1.444  0.00  0.00    +0.219 C 
ATOM      2  O   UNL     1      -2.412   0.451   2.481  0.00  0.00    -0.275 OA
ATOM      3  N   UNL     1      -3.007   1.107   0.447  0.00  0.00    -0.295 N 
ENDROOT
BRANCH   3   4
ATOM      4  C   UNL     1      -4.319   0.466   0.573  0.00  0.00    +0.170 C 
BRANCH   4   5
ATOM      5  C   UNL     1      -5.288   1.427   1.213  0.00  0.00    +0.096 A 
ATOM      6  N   UNL     1      -6.069   2.303   0.637  0.00  0.00    -0.238 NA
ATOM      7  C   UNL     1      -6.869   3.071   1.378  0.00  0.00    +0.133 A 
ATOM      8  C   UNL     1      -6.824   2.906   2.739  0.00  0.00    +0.080 A 
ATOM      9  S   UNL     1      -5.638   1.649   2.896  0.00  0.00    -0.078 S 
BRANCH   7  10
ATOM     10  C   UNL     1      -7.764   4.063   0.758  0.00  0.00    +0.263 C 
ATOM     11  O   UNL     1      -8.481   4.755   1.456  0.00  0.00    -0.269 OA
ATOM     12  N   UNL     1      -7.789   4.204  -0.582  0.00  0.00    -0.310 N 
ATOM     13  H   UNL     1      -7.217   3.652  -1.138  0.00  0.00    +0.149 HD
BRANCH  12  14
ATOM     14  C   UNL     1      -8.679   5.191  -1.198  0.00  0.00    +0.107 C 
BRANCH  14  15
ATOM     15  C   UNL     1      -8.513   5.148  -2.719  0.00  0.00    +0.047 C 
BRANCH  15  16
ATOM     16  C   UNL     1      -9.443   6.178  -3.362  0.00  0.00    +0.161 C 
BRANCH  16  17
ATOM     17  O   UNL     1      -9.288   6.138  -4.782  0.00  0.00    -0.383 OA
ATOM     18  C   UNL     1     -10.116   7.068  -5.484  0.00  0.00    +0.193 C 
ENDBRANCH  16  17
ENDBRANCH  15  16
ENDBRANCH  14  15
ENDBRANCH  12  14
ENDBRANCH   7  10
ENDBRANCH   4   5
ENDBRANCH   3   4
BRANCH   3  19
ATOM     19  C   UNL     1      -2.675   1.865  -0.762  0.00  0.00    +0.110 C 
BRANCH  19  20
ATOM     20  C   UNL     1      -2.144   0.910  -1.833  0.00  0.00    +0.047 C 
BRANCH  20  21
ATOM     21  C   UNL     1      -1.681   1.714  -3.049  0.00  0.00    +0.161 C 
BRANCH  21  22
ATOM     22  O   UNL     1      -1.293   0.819  -4.093  0.00  0.00    -0.383 OA
ATOM     23  C   UNL     1      -0.841   1.472  -5.281  0.00  0.00    +0.193 C 
ENDBRANCH  21  22
ENDBRANCH  20  21
ENDBRANCH  19  20
ENDBRANCH   3  19
BRANCH   1  24
ATOM     24  C   UNL     1      -0.719   1.561   1.269  0.00  0.00    +0.075 C 
BRANCH  24  25
ATOM     25  C   UNL     1       0.289   0.664   1.992  0.00  0.00    +0.009 C 
ATOM     26  C   UNL     1       0.329  -0.707   1.315  0.00  0.00    +0.004 C 
ENDBRANCH  24  25
BRANCH  24  27
ATOM     27  C   UNL     1      -0.661   2.971   1.858  0.00  0.00    +0.013 C 
BRANCH  27  28
ATOM     28  C   UNL     1       0.709   3.589   1.570  0.00  0.00    +0.000 C 
BRANCH  28  30
ATOM     29  C   UNL     1       2.137   5.617   1.872  0.00  0.00    +0.004 C 
ATOM     30  C   UNL     1       0.767   5.000   2.159  0.00  0.00    -0.003 C 
ENDBRANCH  28  30
ENDBRANCH  27  28
ENDBRANCH  24  27
ENDBRANCH   1  24
TORSDOF 16
