REMARK  Name = ZINC39575963
REMARK  8 active torsions:
REMARK  status: ('A' for Active; 'I' for Inactive)
REMARK    1  A    between atoms: C_4  and  C_7
REMARK    2  A    between atoms: C_9  and  C_13
REMARK    3  A    between atoms: C_17  and  S_21
REMARK    4  A    between atoms: N_19  and  N_20
REMARK    5  A    between atoms: S_21  and  C_22
REMARK    6  A    between atoms: C_22  and  C_23
REMARK    7  A    between atoms: N_25  and  C_26
REMARK    8  A    between atoms: C_29  and  C_32
REMARK                            x       y       z     vdW  Elec       q    Type
REMARK                         _______ _______ _______ _____ _____    ______ ____
ROOT
ATOM      1  C   UNL     1       5.783  -2.967  -1.320  0.00  0.00    +0.185 C 
ATOM      2  N   UNL     1       5.092  -4.280  -1.411  0.00  0.00    -0.234 NA
ATOM      3  N   UNL     1       5.963  -5.095  -2.263  0.00  0.00    -0.228 NA
ATOM      4  C   UNL     1       7.318  -4.515  -2.169  0.00  0.00    +0.214 C 
ATOM      5  N   UNL     1       7.219  -3.349  -1.258  0.00  0.00    -0.197 NA
ATOM      6  H   UNL     1       4.987  -4.698  -0.498  0.00  0.00    +0.143 HD
ATOM      7  H   UNL     1       5.960  -6.059  -1.967  0.00  0.00    +0.143 HD
ENDROOT
BRANCH   1  10
ATOM      8  C   UNL     1       3.740  -0.655  -0.015  0.00  0.00    +0.091 C 
ATOM      9  C   UNL     1       3.864  -1.996  -0.031  0.00  0.00    +0.034 C 
ATOM     10  C   UNL     1       5.365  -2.223  -0.050  0.00  0.00    +0.187 C 
ATOM     11  N   UNL     1       5.911  -0.855  -0.042  0.00  0.00    -0.176 NA
ATOM     12  N   UNL     1       4.965  -0.065  -0.029  0.00  0.00    -0.154 NA
BRANCH   8  16
ATOM     13  C   UNL     1       0.040   1.439   0.047  0.00  0.00    +0.000 A 
ATOM     14  C   UNL     1       1.230   2.144   0.036  0.00  0.00    +0.001 A 
ATOM     15  C   UNL     1       2.434   1.469   0.015  0.00  0.00    +0.010 A 
ATOM     16  C   UNL     1       2.449   0.076   0.007  0.00  0.00    +0.002 A 
ATOM     17  C   UNL     1       1.247  -0.629   0.019  0.00  0.00    +0.010 A 
ATOM     18  C   UNL     1       0.049   0.056   0.039  0.00  0.00    +0.001 A 
ENDBRANCH   8  16
ENDBRANCH   1  10
BRANCH   5  19
ATOM     19  N   UNL     1       8.068  -2.257  -1.708  0.00  0.00    -0.264 NA
ATOM     20  H   UNL     1       9.042  -2.516  -1.667  0.00  0.00    +0.137 HD
ATOM     21  H   UNL     1       7.812  -1.960  -2.638  0.00  0.00    +0.137 HD
ENDBRANCH   5  19
BRANCH   4  22
ATOM     22  S   UNL     1       8.472  -5.740  -1.493  0.00  0.00    -0.115 S 
BRANCH  22  23
ATOM     23  C   UNL     1       7.765  -6.165   0.123  0.00  0.00    +0.168 C 
BRANCH  23  24
ATOM     24  C   UNL     1       8.639  -7.189   0.800  0.00  0.00    +0.227 C 
ATOM     25  O   UNL     1       9.640  -7.592   0.248  0.00  0.00    -0.275 OA
ATOM     26  N   UNL     1       8.307  -7.656   2.020  0.00  0.00    -0.285 N 
ATOM     27  H   UNL     1       7.545  -7.285   2.491  0.00  0.00    +0.155 HD
BRANCH  26  28
ATOM     28  C   UNL     1       9.062  -8.672   2.606  0.00  0.00    +0.033 A 
ATOM     29  C   UNL     1      10.437  -8.720   2.404  0.00  0.00    +0.024 A 
ATOM     30  C   UNL     1      11.185  -9.722   2.981  0.00  0.00    +0.015 A 
ATOM     31  C   UNL     1      10.560 -10.691   3.771  0.00  0.00    +0.037 A 
ATOM     32  C   UNL     1       9.178 -10.640   3.972  0.00  0.00    +0.015 A 
ATOM     33  C   UNL     1       8.437  -9.633   3.396  0.00  0.00    +0.024 A 
BRANCH  31  34
ATOM     34  C   UNL     1      11.358 -11.767   4.391  0.00  0.00    +0.242 C 
ATOM     35  O   UNL     1      12.560 -11.811   4.215  0.00  0.00    -0.270 OA
ATOM     36  N   UNL     1      10.754 -12.701   5.152  0.00  0.00    -0.325 N 
ATOM     37  H   UNL     1       9.795 -12.666   5.292  0.00  0.00    +0.145 HD
ATOM     38  H   UNL     1      11.279 -13.408   5.559  0.00  0.00    +0.145 HD
ENDBRANCH  31  34
ENDBRANCH  26  28
ENDBRANCH  23  24
ENDBRANCH  22  23
ENDBRANCH   4  22
TORSDOF 8
