REMARK  Name = ZINC15999200
REMARK  2 active torsions:
REMARK  status: ('A' for Active; 'I' for Inactive)
REMARK    1  A    between atoms: C_16  and  C_18
REMARK    2  A    between atoms: N_23  and  C_26
REMARK                            x       y       z     vdW  Elec       q    Type
REMARK                         _______ _______ _______ _____ _____    ______ ____
ROOT
ATOM      1  C   UNL     1      -0.017   1.375   0.010  0.00  0.00    +0.001 A 
ATOM      2  C   UNL     1       1.168   2.090   0.002  0.00  0.00    +0.000 A 
ATOM      3  C   UNL     1       2.384   1.427  -0.015  0.00  0.00    +0.006 A 
ATOM      4  C   UNL     1       2.416   0.052  -0.023  0.00  0.00    -0.019 A 
ATOM      5  C   UNL     1       1.223  -0.681  -0.013  0.00  0.00    -0.019 A 
ATOM      6  C   UNL     1       0.002  -0.004   0.002  0.00  0.00    +0.008 A 
ATOM      7  C   UNL     1       1.255  -2.158  -0.010  0.00  0.00    +0.023 C 
ATOM      8  C   UNL     1       2.385  -2.796  -0.376  0.00  0.00    +0.072 C 
ATOM      9  N   UNL     1       3.464  -1.989  -0.715  0.00  0.00    -0.316 N 
ATOM     10  C   UNL     1       3.721  -0.700  -0.048  0.00  0.00    +0.117 C 
ATOM     11  C   UNL     1       4.785   0.035  -0.860  0.00  0.00    +0.115 C 
ATOM     12  C   UNL     1       5.516  -1.096  -1.646  0.00  0.00    +0.119 C 
ATOM     13  C   UNL     1       4.448  -2.202  -1.769  0.00  0.00    +0.172 C 
ATOM     14  C   UNL     1       5.685  -0.451  -3.012  0.00  0.00    +0.232 C 
ATOM     15  O   UNL     1       6.482  -0.787  -3.862  0.00  0.00    -0.274 OA
ATOM     16  N   UNL     1       4.802   0.554  -3.118  0.00  0.00    -0.208 N 
ATOM     17  C   UNL     1       4.151   0.851  -1.966  0.00  0.00    +0.232 C 
ATOM     18  O   UNL     1       3.223   1.621  -1.839  0.00  0.00    -0.274 OA
ENDROOT
BRANCH  16  19
ATOM     19  C   UNL     1       4.578   1.250  -4.315  0.00  0.00    +0.062 A 
ATOM     20  C   UNL     1       3.604   0.812  -5.202  0.00  0.00    +0.025 A 
ATOM     21  C   UNL     1       3.386   1.499  -6.380  0.00  0.00    +0.002 A 
ATOM     22  C   UNL     1       4.137   2.621  -6.678  0.00  0.00    +0.002 A 
ATOM     23  C   UNL     1       5.109   3.060  -5.798  0.00  0.00    +0.022 A 
ATOM     24  C   UNL     1       5.327   2.381  -4.613  0.00  0.00    +0.063 A 
ATOM     25 CL   UNL     1       6.542   2.936  -3.505  0.00  0.00    -0.082 Cl
ENDBRANCH  16  19
BRANCH  13  26
ATOM     26  C   UNL     1       5.092  -3.554  -1.601  0.00  0.00    +0.232 C 
ATOM     27  O   UNL     1       5.026  -4.129  -0.535  0.00  0.00    -0.274 OA
ATOM     28  N   UNL     1       5.742  -4.124  -2.635  0.00  0.00    -0.328 N 
ATOM     29  H   UNL     1       5.795  -3.665  -3.487  0.00  0.00    +0.145 HD
ATOM     30  H   UNL     1       6.156  -4.995  -2.526  0.00  0.00    +0.145 HD
ENDBRANCH  13  26
TORSDOF 2
