REMARK  Name = ZINC27553816
REMARK  4 active torsions:
REMARK  status: ('A' for Active; 'I' for Inactive)
REMARK    1  A    between atoms: C_3  and  S_8
REMARK    2  A    between atoms: S_8  and  N_11
REMARK    3  A    between atoms: C_17  and  C_19
REMARK    4  A    between atoms: N_22  and  C_25
REMARK                            x       y       z     vdW  Elec       q    Type
REMARK                         _______ _______ _______ _____ _____    ______ ____
ROOT
ATOM      1  N   UNL     1      -1.311   7.461  -3.469  0.00  0.00    -0.174 NA
ATOM      2  C   UNL     1      -1.883   6.492  -4.415  0.00  0.00    +0.128 C 
ATOM      3  C   UNL     1      -2.667   5.438  -3.622  0.00  0.00    +0.125 C 
ATOM      4  N   UNL     1      -1.817   4.944  -2.530  0.00  0.00    -0.299 N 
ATOM      5  C   UNL     1      -1.249   5.912  -1.581  0.00  0.00    +0.125 C 
ATOM      6  C   UNL     1      -0.461   6.967  -2.377  0.00  0.00    +0.128 C 
ATOM      7  C   UNL     1      -1.567   3.627  -2.397  0.00  0.00    +0.219 C 
ATOM      8  O   UNL     1      -1.963   2.847  -3.237  0.00  0.00    -0.275 OA
ENDROOT
BRANCH   7   9
ATOM      9  C   UNL     1      -0.797   3.122  -1.204  0.00  0.00    +0.078 C 
ATOM     10  C   UNL     1       0.686   3.001  -1.567  0.00  0.00    +0.031 C 
ATOM     11  C   UNL     1       1.453   2.431  -0.371  0.00  0.00    +0.106 C 
ATOM     12  N   UNL     1       0.907   1.113  -0.021  0.00  0.00    -0.330 N 
ATOM     13  C   UNL     1      -0.503   1.212   0.376  0.00  0.00    +0.106 C 
ATOM     14  C   UNL     1      -1.329   1.745  -0.796  0.00  0.00    +0.031 C 
BRANCH  12  15
ATOM     15  C   UNL     1       1.666   0.509   0.977  0.00  0.00    +0.032 A 
ATOM     16  C   UNL     1       2.786   1.146   1.509  0.00  0.00    +0.040 A 
ATOM     17  C   UNL     1       3.507   0.515   2.501  0.00  0.00    +0.084 A 
ATOM     18  N   UNL     1       3.156  -0.680   2.938  0.00  0.00    -0.367 N 
ATOM     19  C   UNL     1       2.106  -1.318   2.455  0.00  0.00    +0.084 A 
ATOM     20  C   UNL     1       1.329  -0.753   1.466  0.00  0.00    +0.040 A 
ATOM     21  H   UNL     1       3.744  -1.172   3.726  0.00  0.00    +0.165 HD
ENDBRANCH  12  15
ENDBRANCH   7   9
BRANCH   1  22
ATOM     22  S   UNL     1      -1.618   9.080  -3.632  0.00  0.00    +0.061 S 
ATOM     23  O   UNL     1      -0.549   9.762  -2.991  0.00  0.00    -0.153 OA
ATOM     24  O   UNL     1      -1.949   9.295  -4.997  0.00  0.00    -0.153 OA
BRANCH  22  27
ATOM     25  C   UNL     1      -5.455   9.621  -2.568  0.00  0.00    +0.003 A 
ATOM     26  C   UNL     1      -4.314   9.350  -3.300  0.00  0.00    +0.028 A 
ATOM     27  C   UNL     1      -3.071   9.431  -2.700  0.00  0.00    +0.107 A 
ATOM     28  C   UNL     1      -2.968   9.794  -1.370  0.00  0.00    +0.043 A 
ATOM     29  C   UNL     1      -4.109  10.070  -0.639  0.00  0.00    +0.020 A 
ATOM     30  C   UNL     1      -5.353   9.983  -1.238  0.00  0.00    +0.015 A 
ATOM     31 BR   UNL     1      -3.969  10.566   1.181  0.00  0.00    -0.050 Br
ENDBRANCH  22  27
ENDBRANCH   1  22
TORSDOF 4
