REMARK  Name = ZINC38002395
REMARK  2 active torsions:
REMARK  status: ('A' for Active; 'I' for Inactive)
REMARK    1  A    between atoms: C_9  and  C_12
REMARK    2  A    between atoms: C_15  and  C_18
REMARK                            x       y       z     vdW  Elec       q    Type
REMARK                         _______ _______ _______ _____ _____    ______ ____
ROOT
ATOM      1  C   UNL     1       4.962  -2.591  -0.163  0.00  0.00    +0.150 A 
ATOM      2  N   UNL     1       5.859  -3.028  -1.083  0.00  0.00    -0.338 N 
ATOM      3  H   UNL     1       5.757  -3.000  -2.047  0.00  0.00    +0.167 HD
ATOM      4  C   UNL     1       6.943  -3.518  -0.387  0.00  0.00    +0.073 A 
ATOM      5  C   UNL     1       6.657  -3.358   0.936  0.00  0.00    +0.139 A 
ATOM      6  N   UNL     1       5.450  -2.788   1.032  0.00  0.00    -0.236 NA
ENDROOT
BRANCH   1  15
ATOM      7  C   UNL     1      -0.017   1.379   0.010  0.00  0.00    +0.002 A 
ATOM      8  C   UNL     1       1.170   2.087   0.002  0.00  0.00    +0.004 A 
ATOM      9  C   UNL     1       2.381   1.420  -0.012  0.00  0.00    +0.047 A 
ATOM     10  C   UNL     1       2.410   0.034  -0.018  0.00  0.00    +0.142 A 
ATOM     11  C   UNL     1       1.213  -0.678  -0.013  0.00  0.00    +0.070 A 
ATOM     12  C   UNL     1       0.002  -0.004   0.002  0.00  0.00    +0.026 A 
ATOM     13  N   UNL     1       1.237  -2.082  -0.028  0.00  0.00    -0.337 N 
ATOM     14  C   UNL     1       2.518  -2.747   0.265  0.00  0.00    +0.154 C 
ATOM     15  C   UNL     1       3.622  -1.974  -0.470  0.00  0.00    +0.256 C 
ATOM     16  O   UNL     1       3.605  -0.615  -0.027  0.00  0.00    -0.478 OA
ATOM     17  H   UNL     1       0.438  -2.595  -0.224  0.00  0.00    +0.146 HD
ENDBRANCH   1  15
BRANCH   4  18
ATOM     18  C   UNL     1       8.168  -4.101  -0.961  0.00  0.00    +0.038 A 
ATOM     19  C   UNL     1       9.268  -4.606  -0.316  0.00  0.00    +0.019 A 
ATOM     20  C   UNL     1      10.307  -5.105  -1.072  0.00  0.00    +0.023 A 
ATOM     21  C   UNL     1      10.210  -5.081  -2.427  0.00  0.00    +0.056 A 
ATOM     22  S   UNL     1       8.605  -4.341  -2.675  0.00  0.00    -0.080 S 
ATOM     23 BR   UNL     1      11.453  -5.684  -3.718  0.00  0.00    -0.043 Br
ENDBRANCH   4  18
TORSDOF 2
