REMARK  Name = ZINC22096948
REMARK  8 active torsions:
REMARK  status: ('A' for Active; 'I' for Inactive)
REMARK    1  A    between atoms: C_1  and  C_2
REMARK    2  A    between atoms: N_13  and  C_29
REMARK    3  A    between atoms: C_14  and  S_16
REMARK    4  A    between atoms: S_16  and  C_17
REMARK    5  A    between atoms: C_17  and  C_19
REMARK    6  A    between atoms: C_17  and  C_20
REMARK    7  A    between atoms: N_22  and  C_23
REMARK    8  A    between atoms: C_29  and  C_30
REMARK                            x       y       z     vdW  Elec       q    Type
REMARK                         _______ _______ _______ _____ _____    ______ ____
ROOT
ATOM      1  C   UNL     1      -7.492   7.286  12.940  0.00  0.00    +0.008 C 
ATOM      2  C   UNL     1      -6.234   6.986  12.122  0.00  0.00    -0.009 C 
ATOM      3  C   UNL     1      -5.563   5.719  12.660  0.00  0.00    +0.008 C 
ATOM      4  C   UNL     1      -4.185   5.548  12.019  0.00  0.00    +0.037 C 
ATOM      5  C   UNL     1      -4.336   5.622  10.502  0.00  0.00    -0.023 A 
ATOM      6  C   UNL     1      -5.436   6.167   9.944  0.00  0.00    -0.004 A 
ATOM      7  S   UNL     1      -5.178   6.038   8.195  0.00  0.00    -0.073 S 
ATOM      8  C   UNL     1      -3.587   5.250   8.218  0.00  0.00    +0.117 A 
ATOM      9  C   UNL     1      -3.310   5.113   9.588  0.00  0.00    +0.076 A 
ATOM     10  C   UNL     1      -2.062   4.494   9.913  0.00  0.00    +0.263 A 
ATOM     11  O   UNL     1      -1.736   4.333  11.077  0.00  0.00    -0.267 OA
ATOM     12  N   UNL     1      -1.252   4.093   8.916  0.00  0.00    -0.285 N 
ATOM     13  C   UNL     1      -1.599   4.266   7.608  0.00  0.00    +0.173 A 
ATOM     14  N   UNL     1      -2.741   4.837   7.281  0.00  0.00    -0.216 NA
ATOM     15  C   UNL     1      -6.618   6.754  10.654  0.00  0.00    +0.046 C 
ENDROOT
BRANCH  13  16
ATOM     16  S   UNL     1      -0.504   3.725   6.338  0.00  0.00    -0.075 S 
BRANCH  16  17
ATOM     17  C   UNL     1      -1.459   4.199   4.876  0.00  0.00    +0.137 C 
ATOM     18  C   UNL     1      -1.590   5.723   4.824  0.00  0.00    +0.029 C 
BRANCH  17  19
ATOM     19  C   UNL     1      -0.754   3.713   3.636  0.00  0.00    +0.226 C 
ATOM     20  O   UNL     1       0.427   3.441   3.678  0.00  0.00    -0.275 OA
ATOM     21  N   UNL     1      -1.435   3.582   2.481  0.00  0.00    -0.312 N 
ATOM     22  H   UNL     1      -2.506   3.829   2.443  0.00  0.00    +0.149 HD
BRANCH  21  23
ATOM     23  C   UNL     1      -0.750   3.109   1.275  0.00  0.00    +0.073 C 
ATOM     24  C   UNL     1      -0.729   1.579   1.267  0.00  0.00    +0.022 C 
ATOM     25  C   UNL     1      -0.013   1.086   0.008  0.00  0.00    +0.002 C 
ATOM     26  C   UNL     1      -0.753   1.593  -1.232  0.00  0.00    +0.000 C 
ATOM     27  C   UNL     1      -0.773   3.123  -1.223  0.00  0.00    +0.002 C 
ATOM     28  C   UNL     1      -1.490   3.616   0.036  0.00  0.00    +0.022 C 
ENDBRANCH  21  23
ENDBRANCH  17  19
ENDBRANCH  16  17
ENDBRANCH  13  16
BRANCH  12  29
ATOM     29  C   UNL     1       0.028   3.458   9.242  0.00  0.00    +0.159 C 
BRANCH  29  30
ATOM     30  C   UNL     1       1.114   4.530   9.356  0.00  0.00    +0.138 C 
ATOM     31  C   UNL     1       2.487   3.861   9.584  0.00  0.00    +0.035 C 
ATOM     32  C   UNL     1       3.152   4.819  10.610  0.00  0.00    +0.031 C 
ATOM     33  C   UNL     1       1.920   5.268  11.435  0.00  0.00    +0.160 C 
ATOM     34  O   UNL     1       0.849   5.372  10.484  0.00  0.00    -0.375 OA
ENDBRANCH  29  30
ENDBRANCH  12  29
TORSDOF 6
