REMARK  Name = ZINC35683074
REMARK  9 active torsions:
REMARK  status: ('A' for Active; 'I' for Inactive)
REMARK    1  A    between atoms: C_1  and  C_2
REMARK    2  A    between atoms: C_5  and  N_8
REMARK    3  A    between atoms: C_9  and  C_11
REMARK    4  A    between atoms: C_11  and  S_12
REMARK    5  A    between atoms: S_12  and  C_14
REMARK    6  A    between atoms: C_17  and  C_22
REMARK    7  A    between atoms: N_18  and  C_19
REMARK    8  A    between atoms: C_19  and  C_20
REMARK    9  A    between atoms: C_22  and  C_23
REMARK                            x       y       z     vdW  Elec       q    Type
REMARK                         _______ _______ _______ _____ _____    ______ ____
ROOT
ATOM      1  C   UNL     1       0.593  -8.709   2.636  0.00  0.00    +0.222 A 
ATOM      2  N   UNL     1      -0.389  -9.568   2.599  0.00  0.00    -0.120 NA
ATOM      3  N   UNL     1       0.081 -10.756   2.452  0.00  0.00    -0.133 NA
ATOM      4  C   UNL     1       1.384 -10.709   2.388  0.00  0.00    +0.139 A 
ATOM      5  N   UNL     1       1.746  -9.407   2.498  0.00  0.00    -0.300 N 
ENDROOT
BRANCH   1   6
ATOM      6  S   UNL     1       0.446  -6.963   2.823  0.00  0.00    +0.100 S 
ATOM      7  O   UNL     1       1.697  -6.569   3.369  0.00  0.00    -0.249 OA
BRANCH   6   8
ATOM      8  C   UNL     1       0.309  -6.349   1.121  0.00  0.00    +0.208 C 
BRANCH   8  10
ATOM      9  N   UNL     1       0.059  -4.170  -0.021  0.00  0.00    -0.285 N 
ATOM     10  C   UNL     1       0.175  -4.848   1.138  0.00  0.00    +0.230 C 
ATOM     11  O   UNL     1       0.173  -4.251   2.193  0.00  0.00    -0.274 OA
ATOM     12  H   UNL     1      -0.017  -4.651  -0.860  0.00  0.00    +0.155 HD
BRANCH   9  17
ATOM     13  C   UNL     1       0.008   1.503   0.007  0.00  0.00    +0.044 C 
ATOM     14  C   UNL     1       0.022  -0.004  -0.001  0.00  0.00    -0.050 A 
ATOM     15  C   UNL     1       0.777  -0.692   0.931  0.00  0.00    +0.005 A 
ATOM     16  C   UNL     1       0.791  -2.073   0.927  0.00  0.00    +0.023 A 
ATOM     17  C   UNL     1       0.046  -2.771  -0.014  0.00  0.00    +0.033 A 
ATOM     18  C   UNL     1      -0.712  -2.077  -0.948  0.00  0.00    +0.023 A 
ATOM     19  C   UNL     1      -0.726  -0.696  -0.936  0.00  0.00    +0.005 A 
ENDBRANCH   9  17
ENDBRANCH   8  10
ENDBRANCH   6   8
ENDBRANCH   1   6
BRANCH   5  20
ATOM     20  C   UNL     1       3.107  -8.866   2.476  0.00  0.00    +0.152 C 
BRANCH  20  21
ATOM     21  C   UNL     1       3.655  -8.826   3.879  0.00  0.00    -0.013 C 
ATOM     22  C   UNL     1       4.790  -9.418   4.157  0.00  0.00    +0.005 C 
ENDBRANCH  20  21
ENDBRANCH   5  20
BRANCH   4  23
ATOM     23  C   UNL     1       2.313 -11.883   2.219  0.00  0.00    +0.111 C 
BRANCH  23  24
ATOM     24  C   UNL     1       2.550 -12.128   0.751  0.00  0.00    -0.040 A 
ATOM     25  C   UNL     1       1.714 -12.977   0.049  0.00  0.00    +0.005 A 
ATOM     26  C   UNL     1       1.930 -13.202  -1.298  0.00  0.00    +0.015 A 
ATOM     27  C   UNL     1       2.982 -12.578  -1.943  0.00  0.00    +0.018 A 
ATOM     28  C   UNL     1       3.818 -11.729  -1.240  0.00  0.00    +0.015 A 
ATOM     29  C   UNL     1       3.598 -11.500   0.105  0.00  0.00    +0.005 A 
ATOM     30 BR   UNL     1       3.278 -12.886  -3.785  0.00  0.00    -0.050 Br
ENDBRANCH  23  24
ENDBRANCH   4  23
TORSDOF 8
