REMARK  Name = ZINC13787912
REMARK  4 active torsions:
REMARK  status: ('A' for Active; 'I' for Inactive)
REMARK    1  A    between atoms: C_4  and  N_7
REMARK    2  A    between atoms: C_8  and  C_29
REMARK    3  A    between atoms: N_17  and  C_20
REMARK    4  A    between atoms: C_23  and  N_26
REMARK                            x       y       z     vdW  Elec       q    Type
REMARK                         _______ _______ _______ _____ _____    ______ ____
ROOT
ATOM      1  N   UNL     1       3.724  -0.640  -0.079  0.00  0.00    -0.244 N 
ATOM      2  C   UNL     1       3.798  -2.131  -0.052  0.00  0.00    +0.157 C 
ATOM      3  C   UNL     1       5.282  -2.407   0.146  0.00  0.00    +0.145 C 
ATOM      4  C   UNL     1       5.825  -1.131  -0.605  0.00  0.00    +0.249 C 
ATOM      5  O   UNL     1       5.078  -0.125  -0.062  0.00  0.00    -0.257 OA
ATOM      6  C   UNL     1       7.207  -1.508  -0.839  0.00  0.00    +0.259 C 
ATOM      7  O   UNL     1       8.175  -0.778  -0.852  0.00  0.00    -0.272 OA
ATOM      8  N   UNL     1       7.183  -2.863  -1.039  0.00  0.00    -0.208 N 
ATOM      9  C   UNL     1       5.988  -3.442  -0.671  0.00  0.00    +0.235 C 
ATOM     10  O   UNL     1       5.586  -4.551  -0.950  0.00  0.00    -0.274 OA
ENDROOT
BRANCH   2  11
ATOM     11  C   UNL     1       3.316  -2.709  -1.357  0.00  0.00    -0.021 A 
ATOM     12  C   UNL     1       2.705  -3.950  -1.379  0.00  0.00    +0.008 A 
ATOM     13  C   UNL     1       2.262  -4.482  -2.575  0.00  0.00    +0.040 A 
ATOM     14  C   UNL     1       2.430  -3.773  -3.752  0.00  0.00    +0.137 A 
ATOM     15  C   UNL     1       3.043  -2.530  -3.730  0.00  0.00    +0.053 A 
ATOM     16  C   UNL     1       3.480  -1.998  -2.531  0.00  0.00    +0.024 A 
ATOM     17 BR   UNL     1       3.274  -1.560  -5.336  0.00  0.00    -0.047 Br
ATOM     18  F   UNL     1       1.998  -4.292  -4.922  0.00  0.00    -0.204 F 
ENDBRANCH   2  11
BRANCH   1  22
ATOM     19  C   UNL     1       0.239   1.636  -0.199  0.00  0.00    +0.000 A 
ATOM     20  C   UNL     1       1.472   2.262  -0.186  0.00  0.00    +0.002 A 
ATOM     21  C   UNL     1       2.630   1.510  -0.146  0.00  0.00    +0.028 A 
ATOM     22  C   UNL     1       2.555   0.123  -0.119  0.00  0.00    +0.065 A 
ATOM     23  C   UNL     1       1.315  -0.503  -0.132  0.00  0.00    +0.028 A 
ATOM     24  C   UNL     1       0.161   0.255  -0.172  0.00  0.00    +0.002 A 
ENDBRANCH   1  22
BRANCH   8  25
ATOM     25  C   UNL     1       8.265  -3.590  -1.556  0.00  0.00    +0.044 A 
ATOM     26  C   UNL     1       8.158  -4.963  -1.735  0.00  0.00    +0.026 A 
ATOM     27  C   UNL     1       9.225  -5.676  -2.244  0.00  0.00    +0.034 A 
ATOM     28  C   UNL     1      10.399  -5.025  -2.576  0.00  0.00    +0.126 A 
ATOM     29  C   UNL     1      10.509  -3.658  -2.398  0.00  0.00    +0.034 A 
ATOM     30  C   UNL     1       9.443  -2.938  -1.894  0.00  0.00    +0.026 A 
BRANCH  28  31
ATOM     31  N   UNL     1      11.541  -5.793  -3.121  0.00  0.00    +0.056 N 
ATOM     32  O   UNL     1      11.447  -6.988  -3.277  0.00  0.00    -0.126 OA
ATOM     33  O   UNL     1      12.568  -5.225  -3.411  0.00  0.00    -0.126 OA
ENDBRANCH  28  31
ENDBRANCH   8  25
TORSDOF 4
