REMARK  Name = ZINC20568989
REMARK  13 active torsions:
REMARK  status: ('A' for Active; 'I' for Inactive)
REMARK    1  A    between atoms: C_1  and  C_2
REMARK    2  A    between atoms: C_3  and  C_25
REMARK    3  A    between atoms: C_12  and  N_20
REMARK    4  A    between atoms: C_13  and  C_14
REMARK    5  A    between atoms: C_14  and  O_16
REMARK    6  A    between atoms: O_16  and  C_17
REMARK    7  A    between atoms: C_17  and  C_18
REMARK    8  A    between atoms: C_17  and  C_19
REMARK    9  A    between atoms: C_25  and  O_27
REMARK   10  A    between atoms: O_27  and  C_28
REMARK   11  A    between atoms: C_28  and  C_29
REMARK   12  A    between atoms: C_28  and  C_30
REMARK   13  A    between atoms: C_28  and  C_31
REMARK                            x       y       z     vdW  Elec       q    Type
REMARK                         _______ _______ _______ _____ _____    ______ ____
ROOT
ATOM      1  C   UNL     1      -3.087   7.157  -1.028  0.00  0.00    +0.087 C 
ATOM      2  C   UNL     1      -2.816   5.907  -0.231  0.00  0.00    +0.117 C 
ATOM      3  C   UNL     1      -2.814   4.672  -0.759  0.00  0.00    +0.100 C 
ATOM      4  C   UNL     1      -2.499   3.736   0.389  0.00  0.00    +0.164 C 
ATOM      5  C   UNL     1      -3.646   2.796   0.619  0.00  0.00    +0.001 A 
ATOM      6  C   UNL     1      -4.812   3.265   1.198  0.00  0.00    +0.022 A 
ATOM      7  C   UNL     1      -5.877   2.410   1.412  0.00  0.00    +0.018 A 
ATOM      8  C   UNL     1      -5.783   1.079   1.046  0.00  0.00    +0.017 A 
ATOM      9  C   UNL     1      -4.623   0.602   0.469  0.00  0.00    +0.024 A 
ATOM     10  C   UNL     1      -3.551   1.460   0.255  0.00  0.00    +0.037 A 
ATOM     11  N   UNL     1      -2.377   0.971  -0.326  0.00  0.00    -0.302 N 
ATOM     12  C   UNL     1      -1.208   1.676  -0.217  0.00  0.00    +0.097 C 
ATOM     13  C   UNL     1      -1.220   3.003   0.134  0.00  0.00    +0.098 C 
ATOM     14 BR   UNL     1      -7.465   3.061   2.205  0.00  0.00    -0.050 Br
ATOM     15  C   UNL     1      -2.344   4.671   1.568  0.00  0.00    +0.332 C 
ATOM     16  O   UNL     1      -2.086   4.370   2.710  0.00  0.00    -0.249 OA
ATOM     17  O   UNL     1      -2.550   5.907   1.082  0.00  0.00    -0.429 OA
ATOM     18  H   UNL     1      -2.391   0.017  -0.874  0.00  0.00    +0.153 HD
ENDROOT
BRANCH  12  19
ATOM     19  N   UNL     1      -0.013   1.048  -0.454  0.00  0.00    -0.346 N 
ATOM     20  H   UNL     1       0.930   1.608  -0.368  0.00  0.00    +0.143 HD
ATOM     21  H   UNL     1       0.004  -0.017  -0.731  0.00  0.00    +0.143 HD
ENDBRANCH  12  19
BRANCH  13  22
ATOM     22  C   UNL     1      -0.005   3.689   0.251  0.00  0.00    +0.340 C 
ATOM     23  O   UNL     1       1.048   3.083   0.156  0.00  0.00    -0.245 OA
BRANCH  22  24
ATOM     24  O   UNL     1      -0.001   5.022   0.468  0.00  0.00    -0.459 OA
BRANCH  24  25
ATOM     25  C   UNL     1       1.275   5.657   0.577  0.00  0.00    +0.171 C 
ATOM     26  C   UNL     1       1.736   6.116  -0.808  0.00  0.00    +0.052 C 
ATOM     27  C   UNL     1       1.164   6.869   1.505  0.00  0.00    +0.052 C 
ENDBRANCH  24  25
ENDBRANCH  22  24
ENDBRANCH  13  22
BRANCH   3  28
ATOM     28  C   UNL     1      -3.056   4.318  -2.110  0.00  0.00    +0.341 C 
ATOM     29  O   UNL     1      -3.298   5.182  -2.931  0.00  0.00    -0.245 OA
BRANCH  28  30
ATOM     30  O   UNL     1      -3.018   3.023  -2.486  0.00  0.00    -0.456 OA
BRANCH  30  31
ATOM     31  C   UNL     1      -3.272   2.739  -3.863  0.00  0.00    +0.106 C 
ATOM     32  C   UNL     1      -2.231   3.449  -4.730  0.00  0.00    +0.055 C 
ATOM     33  C   UNL     1      -3.187   1.229  -4.097  0.00  0.00    +0.055 C 
ATOM     34  C   UNL     1      -4.671   3.235  -4.237  0.00  0.00    +0.055 C 
ENDBRANCH  30  31
ENDBRANCH  28  30
ENDBRANCH   3  28
TORSDOF 7
