REMARK  Name = ZINC51129100
REMARK  8 active torsions:
REMARK  status: ('A' for Active; 'I' for Inactive)
REMARK    1  A    between atoms: C_2  and  C_13
REMARK    2  A    between atoms: C_5  and  N_10
REMARK    3  A    between atoms: C_6  and  N_7
REMARK    4  A    between atoms: N_10  and  N_11
REMARK    5  A    between atoms: N_15  and  C_16
REMARK    6  A    between atoms: C_16  and  C_17
REMARK    7  A    between atoms: C_17  and  S_18
REMARK    8  A    between atoms: S_18  and  N_21
REMARK                            x       y       z     vdW  Elec       q    Type
REMARK                         _______ _______ _______ _____ _____    ______ ____
ROOT
ATOM      1  C   UNL     1       0.236   1.495   0.202  0.00  0.00    +0.047 A 
ATOM      2  C   UNL     1       1.472   2.140   0.308  0.00  0.00    +0.040 A 
ATOM      3  C   UNL     1       2.640   1.387   0.452  0.00  0.00    +0.035 A 
ATOM      4  C   UNL     1       2.571   0.012   0.489  0.00  0.00    +0.066 A 
ATOM      5  C   UNL     1       1.338  -0.627   0.383  0.00  0.00    +0.090 A 
ATOM      6  C   UNL     1       0.173   0.121   0.239  0.00  0.00    +0.150 A 
ATOM      7 CL   UNL     1       4.022  -0.924   0.668  0.00  0.00    -0.081 Cl
ENDROOT
BRANCH   2   8
ATOM      8  C   UNL     1       1.542   3.614   0.268  0.00  0.00    +0.244 C 
ATOM      9  O   UNL     1       0.524   4.267   0.142  0.00  0.00    -0.270 OA
ATOM     10  N   UNL     1       2.733   4.234   0.370  0.00  0.00    -0.310 N 
ATOM     11  H   UNL     1       3.545   3.713   0.471  0.00  0.00    +0.149 HD
BRANCH  10  12
ATOM     12  C   UNL     1       2.803   5.697   0.330  0.00  0.00    +0.128 C 
BRANCH  12  13
ATOM     13  C   UNL     1       4.261   6.142   0.466  0.00  0.00    +0.203 C 
BRANCH  13  14
ATOM     14  S   UNL     1       4.347   7.954   0.416  0.00  0.00    +0.028 S 
ATOM     15  O   UNL     1       3.995   8.425  -0.877  0.00  0.00    -0.158 OA
ATOM     16  O   UNL     1       3.742   8.504   1.577  0.00  0.00    -0.158 OA
BRANCH  14  17
ATOM     17  N   UNL     1       5.957   8.307   0.570  0.00  0.00    -0.208 NA
ATOM     18  H   UNL     1       6.320   9.107   0.159  0.00  0.00    +0.144 HD
ATOM     19  H   UNL     1       6.538   7.714   1.072  0.00  0.00    +0.144 HD
ENDBRANCH  14  17
ENDBRANCH  13  14
ENDBRANCH  12  13
ENDBRANCH  10  12
ENDBRANCH   2   8
BRANCH   6  20
ATOM     20  N   UNL     1      -1.135  -0.563   0.127  0.00  0.00    +0.058 N 
ATOM     21  O   UNL     1      -2.155   0.085   0.104  0.00  0.00    -0.126 OA
ATOM     22  O   UNL     1      -1.183  -1.769   0.059  0.00  0.00    -0.126 OA
ENDBRANCH   6  20
BRANCH   5  23
ATOM     23  N   UNL     1       1.271  -2.016   0.420  0.00  0.00    -0.280 N 
ATOM     24  H   UNL     1       0.519  -2.454   0.848  0.00  0.00    +0.166 HD
BRANCH  23  25
ATOM     25  N   UNL     1       2.265  -2.763  -0.146  0.00  0.00    -0.256 NA
ATOM     26  H   UNL     1       2.120  -3.747   0.025  0.00  0.00    +0.140 HD
ATOM     27  H   UNL     1       2.340  -2.575  -1.135  0.00  0.00    +0.140 HD
ENDBRANCH  23  25
ENDBRANCH   5  23
TORSDOF 8
