REMARK  Name = ZINC12584126
REMARK  7 active torsions:
REMARK  status: ('A' for Active; 'I' for Inactive)
REMARK    1  A    between atoms: C_1  and  C_2
REMARK    2  A    between atoms: C_16  and  C_18
REMARK    3  A    between atoms: C_22  and  S_24
REMARK    4  A    between atoms: S_24  and  N_27
REMARK    5  A    between atoms: C_29  and  C_36
REMARK    6  A    between atoms: C_32  and  C_35
REMARK    7  A    between atoms: C_37  and  N_69
REMARK                            x       y       z     vdW  Elec       q    Type
REMARK                         _______ _______ _______ _____ _____    ______ ____
ROOT
ATOM      1  C   UNL     1       9.037   0.129  -0.654  0.00  0.00    +0.044 C 
ATOM      2  C   UNL     1       7.584   0.506  -0.518  0.00  0.00    -0.050 A 
ATOM      3  C   UNL     1       6.626  -0.476  -0.346  0.00  0.00    +0.005 A 
ATOM      4  C   UNL     1       5.296  -0.136  -0.214  0.00  0.00    +0.024 A 
ATOM      5  C   UNL     1       4.907   1.204  -0.252  0.00  0.00    +0.040 A 
ATOM      6  C   UNL     1       5.875   2.179  -0.438  0.00  0.00    -0.023 A 
ATOM      7  C   UNL     1       7.205   1.836  -0.564  0.00  0.00    +0.009 A 
ATOM      8  C   UNL     1       5.186   3.535  -0.483  0.00  0.00    +0.025 C 
ATOM      9  C   UNL     1       5.406   4.130  -1.861  0.00  0.00    -0.069 C 
ATOM     10  C   UNL     1       3.060   4.230  -2.338  0.00  0.00    -0.077 C 
ATOM     11  C   UNL     1       2.661   3.914  -0.899  0.00  0.00    +0.005 C 
ATOM     12  C   UNL     1       3.749   3.220  -0.137  0.00  0.00    +0.086 C 
ATOM     13  N   UNL     1       3.630   1.766  -0.125  0.00  0.00    -0.264 N 
ATOM     14  C   UNL     1       2.478   1.075  -0.016  0.00  0.00    +0.251 C 
ATOM     15  O   UNL     1       2.496  -0.141  -0.013  0.00  0.00    -0.270 OA
ATOM     16  C   UNL     1       4.611   5.600  -3.601  0.00  0.00    -0.096 C 
ATOM     17  N   UNL     1       4.315   5.007  -2.277  0.00  0.00    +0.378 N 
ATOM     18  H   UNL     1       4.210   5.762  -1.589  0.00  0.00    -0.082 HD
ENDROOT
BRANCH  14  19
ATOM     19  C   UNL     1       1.193   1.795   0.099  0.00  0.00    +0.039 A 
ATOM     20  C   UNL     1       1.047   2.824   1.032  0.00  0.00    +0.013 A 
ATOM     21  C   UNL     1      -0.155   3.492   1.135  0.00  0.00    +0.003 A 
ATOM     22  C   UNL     1      -1.216   3.145   0.316  0.00  0.00    +0.028 A 
ATOM     23  C   UNL     1      -1.076   2.131  -0.615  0.00  0.00    +0.106 A 
ATOM     24  C   UNL     1       0.120   1.451  -0.724  0.00  0.00    +0.041 A 
BRANCH  23  25
ATOM     25  S   UNL     1      -2.429   1.702  -1.658  0.00  0.00    +0.061 S 
ATOM     26  O   UNL     1      -3.262   2.851  -1.735  0.00  0.00    -0.153 OA
ATOM     27  O   UNL     1      -1.874   1.085  -2.811  0.00  0.00    -0.153 OA
BRANCH  25  28
ATOM     28  N   UNL     1      -3.304   0.536  -0.871  0.00  0.00    -0.176 NA
ATOM     29  C   UNL     1      -2.998  -0.887  -1.067  0.00  0.00    +0.112 C 
ATOM     30  C   UNL     1      -2.778  -1.533   0.310  0.00  0.00    +0.002 C 
ATOM     31  C   UNL     1      -4.000  -1.268   1.193  0.00  0.00    +0.009 C 
ATOM     32  C   UNL     1      -4.171   0.240   1.390  0.00  0.00    +0.002 C 
ATOM     33  C   UNL     1      -4.403   0.906   0.030  0.00  0.00    +0.112 C 
ATOM     34  C   UNL     1      -5.373   0.503   2.300  0.00  0.00    +0.009 C 
ATOM     35  C   UNL     1      -1.533  -0.933   0.967  0.00  0.00    +0.009 C 
ENDBRANCH  25  28
ENDBRANCH  23  25
ENDBRANCH  14  19
TORSDOF 3
