REMARK  Name = ZINC10976371
REMARK  5 active torsions:
REMARK  status: ('A' for Active; 'I' for Inactive)
REMARK    1  A    between atoms: C_1  and  C_2
REMARK    2  A    between atoms: C_4  and  C_33
REMARK    3  A    between atoms: N_5  and  C_7
REMARK    4  A    between atoms: C_10  and  C_13
REMARK    5  A    between atoms: C_21  and  C_23
REMARK                            x       y       z     vdW  Elec       q    Type
REMARK                         _______ _______ _______ _____ _____    ______ ____
ROOT
ATOM      1  C   UNL     1      -7.805   2.852   3.589  0.00  0.00    +0.247 C 
ATOM      2  O   UNL     1      -8.934   2.402   3.600  0.00  0.00    -0.270 OA
ATOM      3  N   UNL     1      -6.947   2.497   2.612  0.00  0.00    -0.295 N 
ATOM      4  C   UNL     1      -7.397   1.663   1.488  0.00  0.00    +0.127 C 
ATOM      5  C   UNL     1      -6.492   0.427   1.403  0.00  0.00    +0.127 C 
ATOM      6  N   UNL     1      -5.091   0.867   1.442  0.00  0.00    -0.298 N 
ATOM      7  C   UNL     1      -4.640   1.696   2.568  0.00  0.00    +0.127 C 
ATOM      8  C   UNL     1      -5.545   2.937   2.651  0.00  0.00    +0.127 C 
ATOM      9  C   UNL     1      -4.233   0.512   0.465  0.00  0.00    +0.222 C 
ATOM     10  O   UNL     1      -4.636  -0.096  -0.504  0.00  0.00    -0.275 OA
ENDROOT
BRANCH   9  11
ATOM     11  C   UNL     1      -2.773   0.870   0.577  0.00  0.00    +0.048 C 
ATOM     12  C   UNL     1      -2.000   0.221  -0.572  0.00  0.00    +0.019 C 
ATOM     13  C   UNL     1      -0.518   0.585  -0.459  0.00  0.00    -0.009 C 
ATOM     14  C   UNL     1       0.031   0.076   0.876  0.00  0.00    +0.007 C 
ATOM     15  C   UNL     1      -0.743   0.725   2.026  0.00  0.00    -0.009 C 
ATOM     16  C   UNL     1      -2.225   0.361   1.912  0.00  0.00    +0.019 C 
ATOM     17  C   UNL     1      -0.583   2.244   1.955  0.00  0.00    +0.007 C 
ATOM     18  C   UNL     1      -1.132   2.753   0.620  0.00  0.00    -0.009 C 
ATOM     19  C   UNL     1      -0.358   2.104  -0.530  0.00  0.00    +0.007 C 
ATOM     20  C   UNL     1      -2.614   2.389   0.506  0.00  0.00    +0.019 C 
ENDBRANCH   9  11
BRANCH   1  24
ATOM     21  C   UNL     1      -6.563   5.544   6.631  0.00  0.00    +0.066 A 
ATOM     22  C   UNL     1      -6.065   5.679   5.340  0.00  0.00    +0.028 A 
ATOM     23  C   UNL     1      -6.465   4.808   4.351  0.00  0.00    +0.015 A 
ATOM     24  C   UNL     1      -7.373   3.788   4.647  0.00  0.00    +0.037 A 
ATOM     25  C   UNL     1      -7.875   3.659   5.944  0.00  0.00    +0.015 A 
ATOM     26  C   UNL     1      -7.467   4.530   6.929  0.00  0.00    +0.028 A 
BRANCH  21  31
ATOM     27  C   UNL     1      -3.713   8.580   9.321  0.00  0.00    +0.069 C 
ATOM     28  C   UNL     1      -4.883   7.773   8.817  0.00  0.00    +0.079 A 
ATOM     29  C   UNL     1      -6.155   7.724   9.399  0.00  0.00    +0.085 A 
ATOM     30  C   UNL     1      -6.924   6.897   8.652  0.00  0.00    +0.060 A 
ATOM     31  N   UNL     1      -6.155   6.430   7.633  0.00  0.00    -0.235 N 
ATOM     32  N   UNL     1      -4.881   7.000   7.761  0.00  0.00    -0.170 NA
ATOM     33  C   UNL     1      -8.369   6.553   8.906  0.00  0.00    +0.067 C 
ATOM     34 CL   UNL     1      -6.661   8.578  10.823  0.00  0.00    -0.080 Cl
ENDBRANCH  21  31
ENDBRANCH   1  24
TORSDOF 3
