REMARK  Name = ZINC23133861
REMARK  9 active torsions:
REMARK  status: ('A' for Active; 'I' for Inactive)
REMARK    1  A    between atoms: C_1  and  C_2
REMARK    2  A    between atoms: C_2  and  C_3
REMARK    3  A    between atoms: C_2  and  C_4
REMARK    4  A    between atoms: C_7  and  S_10
REMARK    5  A    between atoms: S_10  and  N_13
REMARK    6  A    between atoms: C_16  and  C_19
REMARK    7  A    between atoms: N_21  and  C_22
REMARK    8  A    between atoms: C_25  and  N_28
REMARK    9  A    between atoms: N_31  and  C_34
REMARK                            x       y       z     vdW  Elec       q    Type
REMARK                         _______ _______ _______ _____ _____    ______ ____
ROOT
ATOM      1  N   UNL     1       1.150   4.342   1.581  0.00  0.00    -0.177 NA
ATOM      2  C   UNL     1      -0.112   4.551   2.304  0.00  0.00    +0.110 C 
ATOM      3  C   UNL     1      -0.106   5.948   2.922  0.00  0.00    +0.030 C 
ATOM      4  C   UNL     1       1.148   6.118   3.783  0.00  0.00    +0.078 C 
ATOM      5  C   UNL     1       2.394   5.970   2.907  0.00  0.00    +0.030 C 
ATOM      6  C   UNL     1       2.416   4.567   2.291  0.00  0.00    +0.110 C 
ENDROOT
BRANCH   4   7
ATOM      7  C   UNL     1       1.140   7.485   4.418  0.00  0.00    +0.220 C 
ATOM      8  O   UNL     1       2.042   8.264   4.192  0.00  0.00    -0.275 OA
ATOM      9  N   UNL     1       0.130   7.842   5.236  0.00  0.00    -0.285 N 
ATOM     10  H   UNL     1      -0.725   7.166   5.382  0.00  0.00    +0.155 HD
BRANCH   9  11
ATOM     11  C   UNL     1       0.171   9.074   5.903  0.00  0.00    +0.034 A 
ATOM     12  C   UNL     1      -0.356   9.189   7.182  0.00  0.00    +0.025 A 
ATOM     13  C   UNL     1      -0.312  10.402   7.841  0.00  0.00    +0.025 A 
ATOM     14  C   UNL     1       0.251  11.509   7.219  0.00  0.00    +0.030 A 
ATOM     15  C   UNL     1       0.772  11.395   5.937  0.00  0.00    +0.025 A 
ATOM     16  C   UNL     1       0.732  10.181   5.281  0.00  0.00    +0.025 A 
BRANCH  14  17
ATOM     17  N   UNL     1       0.290  12.739   7.884  0.00  0.00    -0.333 N 
ATOM     18  C   UNL     1       1.667  13.248   7.968  0.00  0.00    +0.086 C 
ATOM     19  C   UNL     1       1.658  14.628   8.629  0.00  0.00    -0.060 C 
ATOM     20  N   UNL     1       1.055  14.524   9.966  0.00  0.00    +0.380 N 
ATOM     21  C   UNL     1      -0.321  14.016   9.881  0.00  0.00    -0.060 C 
ATOM     22  C   UNL     1      -0.312  12.636   9.220  0.00  0.00    +0.086 C 
ATOM     23  C   UNL     1       1.097  15.816  10.664  0.00  0.00    -0.096 C 
ATOM     24  H   UNL     1       1.647  13.806  10.551  0.00  0.00    -0.082 HD
ENDBRANCH  14  17
ENDBRANCH   9  11
ENDBRANCH   4   7
BRANCH   1  25
ATOM     25  S   UNL     1       1.144   3.869  -0.006  0.00  0.00    +0.061 S 
ATOM     26  O   UNL     1       2.383   4.291  -0.560  0.00  0.00    -0.153 OA
ATOM     27  O   UNL     1      -0.108   4.270  -0.545  0.00  0.00    -0.153 OA
BRANCH  25  31
ATOM     28  C   UNL     1       1.184  -0.657  -0.053  0.00  0.00    -0.045 A 
ATOM     29  C   UNL     1      -0.019   0.023  -0.038  0.00  0.00    +0.006 A 
ATOM     30  C   UNL     1      -0.032   1.405  -0.023  0.00  0.00    +0.029 A 
ATOM     31  C   UNL     1       1.160   2.107  -0.024  0.00  0.00    +0.105 A 
ATOM     32  C   UNL     1       2.363   1.426  -0.040  0.00  0.00    +0.029 A 
ATOM     33  C   UNL     1       2.375   0.044  -0.053  0.00  0.00    +0.006 A 
BRANCH  28  35
ATOM     34  C   UNL     1       1.914  -2.656  -1.327  0.00  0.00    +0.012 C 
ATOM     35  C   UNL     1       1.197  -2.164  -0.068  0.00  0.00    +0.013 C 
ATOM     36  C   UNL     1       1.931  -2.680   1.172  0.00  0.00    +0.012 C 
ENDBRANCH  28  35
ENDBRANCH  25  31
ENDBRANCH   1  25
TORSDOF 6
