REMARK  Name = ZINC06860918
REMARK  8 active torsions:
REMARK  status: ('A' for Active; 'I' for Inactive)
REMARK    1  A    between atoms: C_1  and  C_2
REMARK    2  A    between atoms: C_2  and  C_3
REMARK    3  A    between atoms: C_9  and  C_11
REMARK    4  A    between atoms: C_11  and  S_12
REMARK    5  A    between atoms: S_12  and  C_13
REMARK    6  A    between atoms: C_18  and  N_22
REMARK    7  A    between atoms: C_23  and  C_25
REMARK    8  A    between atoms: C_31  and  C_33
REMARK                            x       y       z     vdW  Elec       q    Type
REMARK                         _______ _______ _______ _____ _____    ______ ____
ROOT
ATOM      1  C   UNL     1      -7.640   1.124   5.880  0.00  0.00    +0.136 A 
ATOM      2  N   UNL     1      -6.398   1.537   5.769  0.00  0.00    -0.233 NA
ATOM      3  C   UNL     1      -5.586   1.132   4.766  0.00  0.00    +0.080 A 
ATOM      4  C   UNL     1      -4.240   1.499   4.532  0.00  0.00    +0.031 A 
ATOM      5  C   UNL     1      -3.550   0.992   3.464  0.00  0.00    +0.025 A 
ATOM      6  C   UNL     1      -4.147   0.110   2.566  0.00  0.00    +0.035 A 
ATOM      7  C   UNL     1      -5.467  -0.270   2.767  0.00  0.00    +0.040 A 
ATOM      8  C   UNL     1      -6.160   0.232   3.840  0.00  0.00    +0.042 A 
ATOM      9  S   UNL     1      -7.808   0.035   4.473  0.00  0.00    -0.061 S 
ENDROOT
BRANCH   6  10
ATOM     10  N   UNL     1      -3.422  -0.392   1.476  0.00  0.00    -0.285 N 
ATOM     11  C   UNL     1      -3.663  -1.639   1.024  0.00  0.00    +0.221 C 
ATOM     12  O   UNL     1      -4.436  -2.360   1.617  0.00  0.00    -0.275 OA
ATOM     13  H   UNL     1      -2.748   0.158   1.048  0.00  0.00    +0.155 HD
BRANCH  11  14
ATOM     14  C   UNL     1      -2.970  -2.135  -0.219  0.00  0.00    +0.089 C 
ATOM     15  C   UNL     1      -3.337  -1.236  -1.401  0.00  0.00    +0.013 C 
ATOM     16  C   UNL     1      -2.634  -1.741  -2.663  0.00  0.00    +0.001 C 
ATOM     17  C   UNL     1      -3.079  -3.175  -2.956  0.00  0.00    +0.001 C 
ATOM     18  C   UNL     1      -2.713  -4.074  -1.774  0.00  0.00    +0.015 C 
ATOM     19  C   UNL     1      -3.416  -3.570  -0.512  0.00  0.00    +0.114 C 
BRANCH  19  20
ATOM     20  C   UNL     1      -3.055  -4.455   0.652  0.00  0.00    +0.360 C 
ATOM     21  O   UNL     1      -2.494  -3.989   1.616  0.00  0.00    -0.246 OA
ATOM     22  O   UNL     1      -3.352  -5.764   0.617  0.00  0.00    -0.246 OA
ENDBRANCH  19  20
ENDBRANCH  11  14
ENDBRANCH   6  10
BRANCH   1  23
ATOM     23  S   UNL     1      -8.836   1.537   7.107  0.00  0.00    -0.089 S 
BRANCH  23  24
ATOM     24  C   UNL     1      -7.860   2.668   8.129  0.00  0.00    +0.172 C 
BRANCH  24  31
ATOM     25  C   UNL     1     -10.139   5.537  13.334  0.00  0.00    +0.103 A 
ATOM     26  N   UNL     1     -10.786   4.705  12.543  0.00  0.00    -0.145 NA
ATOM     27  N   UNL     1     -10.216   4.201  11.536  0.00  0.00    -0.126 NA
ATOM     28  C   UNL     1      -8.960   4.481  11.231  0.00  0.00    +0.188 A 
ATOM     29  S   UNL     1      -8.546   5.572  12.521  0.00  0.00    -0.035 S 
ATOM     30  N   UNL     1      -8.182   4.023  10.173  0.00  0.00    -0.263 N 
ATOM     31  C   UNL     1      -8.703   3.164   9.275  0.00  0.00    +0.229 C 
ATOM     32  O   UNL     1      -9.851   2.789   9.390  0.00  0.00    -0.275 OA
ATOM     33  H   UNL     1      -7.264   4.323  10.081  0.00  0.00    +0.157 HD
BRANCH  25  35
ATOM     34  C   UNL     1     -10.322   5.383  15.803  0.00  0.00    +0.011 C 
ATOM     35  C   UNL     1     -10.607   6.252  14.576  0.00  0.00    +0.061 C 
ENDBRANCH  25  35
ENDBRANCH  24  31
ENDBRANCH  23  24
ENDBRANCH   1  23
TORSDOF 7
