REMARK  Name = ZINC41393775
REMARK  3 active torsions:
REMARK  status: ('A' for Active; 'I' for Inactive)
REMARK    1  A    between atoms: C_1  and  N_2
REMARK    2  A    between atoms: N_12  and  C_13
REMARK    3  A    between atoms: C_16  and  C_19
REMARK                            x       y       z     vdW  Elec       q    Type
REMARK                         _______ _______ _______ _____ _____    ______ ____
ROOT
ATOM      1  C   UNL     1       0.422   1.438   0.030  0.00  0.00    +0.155 C 
ATOM      2  N   UNL     1       0.251  -0.017   0.013  0.00  0.00    -0.283 N 
ATOM      3  C   UNL     1       0.295  -0.673  -1.161  0.00  0.00    +0.264 A 
ATOM      4  O   UNL     1       0.475  -0.066  -2.203  0.00  0.00    -0.267 OA
ATOM      5  C   UNL     1       0.127  -2.094  -1.170  0.00  0.00    +0.076 A 
ATOM      6  C   UNL     1       0.137  -3.002  -2.318  0.00  0.00    -0.023 A 
ATOM      7  C   UNL     1      -0.044  -4.314  -2.063  0.00  0.00    -0.004 A 
ATOM      8  S   UNL     1      -0.236  -4.418  -0.304  0.00  0.00    -0.073 S 
ATOM      9  C   UNL     1      -0.073  -2.694   0.085  0.00  0.00    +0.117 A 
ATOM     10  N   UNL     1      -0.105  -1.987   1.208  0.00  0.00    -0.208 NA
ATOM     11  C   UNL     1       0.057  -0.681   1.188  0.00  0.00    +0.203 A 
ATOM     12  N   UNL     1       0.024   0.024   2.368  0.00  0.00    -0.285 N 
ATOM     13  C   UNL     1      -0.076  -5.436  -3.056  0.00  0.00    +0.043 C 
ATOM     14  C   UNL     1      -0.244  -4.836  -4.459  0.00  0.00    +0.005 C 
ATOM     15  C   UNL     1       0.757  -3.689  -4.625  0.00  0.00    +0.005 C 
ATOM     16  C   UNL     1       0.342  -2.507  -3.747  0.00  0.00    +0.037 C 
ATOM     17  H   UNL     1       0.060   0.994   2.355  0.00  0.00    +0.155 HD
ENDROOT
BRANCH  12  18
ATOM     18  C   UNL     1      -0.060  -0.653   3.583  0.00  0.00    +0.034 A 
ATOM     19  C   UNL     1       0.556  -1.892   3.732  0.00  0.00    +0.024 A 
ATOM     20  C   UNL     1       0.475  -2.564   4.930  0.00  0.00    +0.020 A 
ATOM     21  C   UNL     1      -0.228  -2.001   5.999  0.00  0.00    +0.052 A 
ATOM     22  C   UNL     1      -0.846  -0.756   5.847  0.00  0.00    +0.020 A 
ATOM     23  C   UNL     1      -0.756  -0.087   4.647  0.00  0.00    +0.024 A 
BRANCH  21  24
ATOM     24  C   UNL     1      -0.315  -2.697   7.247  0.00  0.00    +0.099 C 
ATOM     25  N   UNL     1      -0.384  -3.250   8.238  0.00  0.00    -0.191 NA
ENDBRANCH  21  24
ENDBRANCH  12  18
TORSDOF 2
