REMARK  Name = ZINC12275042
REMARK  4 active torsions:
REMARK  status: ('A' for Active; 'I' for Inactive)
REMARK    1  A    between atoms: C_6  and  C_7
REMARK    2  A    between atoms: C_14  and  C_15
REMARK    3  A    between atoms: C_19  and  C_20
REMARK    4  A    between atoms: C_19  and  O_27
REMARK                            x       y       z     vdW  Elec       q    Type
REMARK                         _______ _______ _______ _____ _____    ______ ____
ROOT
ATOM      1  C   UNL     1      -3.231   7.281   2.468  0.00  0.00    +0.070 C 
ATOM      2  C   UNL     1      -2.723   5.878   2.789  0.00  0.00    +0.110 C 
ATOM      3  C   UNL     1      -1.396   5.611   2.134  0.00  0.00    +0.224 C 
ATOM      4  O   UNL     1      -0.528   5.005   2.727  0.00  0.00    -0.275 OA
ATOM      5  N   UNL     1      -1.182   6.060   0.859  0.00  0.00    -0.231 N 
ATOM      6  C   UNL     1      -2.077   6.971   0.314  0.00  0.00    +0.087 C 
ATOM      7  C   UNL     1      -3.094   7.561   0.989  0.00  0.00    +0.065 C 
ATOM      8  S   UNL     1      -1.629   7.171  -1.386  0.00  0.00    -0.104 S 
ATOM      9  C   UNL     1      -0.132   6.114  -1.424  0.00  0.00    +0.136 C 
ATOM     10  C   UNL     1      -0.074   5.619   0.032  0.00  0.00    +0.175 C 
ENDROOT
BRANCH   1  16
ATOM     11  C   UNL     1      -1.062   8.386   3.049  0.00  0.00    +0.006 A 
ATOM     12  C   UNL     1      -0.325   9.317   3.757  0.00  0.00    +0.020 A 
ATOM     13  C   UNL     1      -0.952  10.148   4.668  0.00  0.00    +0.041 A 
ATOM     14  C   UNL     1      -2.318  10.050   4.867  0.00  0.00    +0.020 A 
ATOM     15  C   UNL     1      -3.055   9.122   4.155  0.00  0.00    +0.006 A 
ATOM     16  C   UNL     1      -2.427   8.292   3.244  0.00  0.00    -0.039 A 
ATOM     17 CL   UNL     1      -0.026  11.313   5.561  0.00  0.00    -0.084 Cl
ENDBRANCH   1  16
BRANCH  10  18
ATOM     18  C   UNL     1      -0.054   4.112   0.024  0.00  0.00    +0.004 A 
ATOM     19  C   UNL     1       1.153   3.438   0.009  0.00  0.00    +0.011 A 
ATOM     20  C   UNL     1       1.173   2.056   0.002  0.00  0.00    +0.039 A 
ATOM     21  C   UNL     1      -0.016   1.347   0.009  0.00  0.00    +0.123 A 
ATOM     22  C   UNL     1      -1.224   2.023   0.019  0.00  0.00    +0.039 A 
ATOM     23  C   UNL     1      -1.242   3.405   0.032  0.00  0.00    +0.011 A 
ATOM     24  F   UNL     1       0.002  -0.004   0.002  0.00  0.00    -0.205 F 
ENDBRANCH  10  18
BRANCH   7  25
ATOM     25  C   UNL     1      -4.015   8.428   0.318  0.00  0.00    +0.098 C 
ATOM     26  N   UNL     1      -4.746   9.116  -0.215  0.00  0.00    -0.191 NA
ENDBRANCH   7  25
BRANCH  10  27
ATOM     27  O   UNL     1       1.141   6.084   0.621  0.00  0.00    -0.366 OA
ATOM     28  H   UNL     1       1.939   5.793   0.159  0.00  0.00    +0.212 HD
ENDBRANCH  10  27
TORSDOF 4
