REMARK  Name = ZINC63137784
REMARK  5 active torsions:
REMARK  status: ('A' for Active; 'I' for Inactive)
REMARK    1  A    between atoms: C_1  and  C_2
REMARK    2  A    between atoms: C_6  and  C_8
REMARK    3  A    between atoms: N_27  and  C_30
REMARK    4  A    between atoms: C_30  and  C_31
REMARK    5  A    between atoms: C_31  and  C_32
REMARK                            x       y       z     vdW  Elec       q    Type
REMARK                         _______ _______ _______ _____ _____    ______ ____
ROOT
ATOM      1  C   UNL     1       0.054  -2.845   2.489  0.00  0.00    +0.133 C 
ATOM      2  C   UNL     1       1.489  -3.268   2.799  0.00  0.00    +0.131 C 
ATOM      3  C   UNL     1       1.385  -4.317   3.904  0.00  0.00    -0.034 C 
ATOM      4  C   UNL     1       2.042  -3.836   4.950  0.00  0.00    -0.001 A 
ATOM      5  C   UNL     1       2.308  -4.401   6.283  0.00  0.00    +0.010 A 
ATOM      6  C   UNL     1       3.026  -3.620   7.133  0.00  0.00    +0.001 A 
ATOM      7  C   UNL     1       3.501  -2.349   6.794  0.00  0.00    +0.002 A 
ATOM      8  C   UNL     1       3.304  -1.752   5.591  0.00  0.00    +0.026 A 
ATOM      9  C   UNL     1       2.563  -2.477   4.612  0.00  0.00    +0.043 A 
ATOM     10  N   UNL     1       2.243  -2.147   3.377  0.00  0.00    -0.375 N 
ATOM     11  C   UNL     1       0.617  -5.594   3.696  0.00  0.00    +0.065 C 
ATOM     12  C   UNL     1      -0.659  -5.307   2.948  0.00  0.00    +0.167 C 
ATOM     13  N   UNL     1      -0.838  -3.989   2.379  0.00  0.00    -0.279 N 
ATOM     14  C   UNL     1      -2.017  -3.798   1.700  0.00  0.00    +0.234 C 
ATOM     15  O   UNL     1      -2.256  -2.759   1.122  0.00  0.00    -0.274 OA
ATOM     16  C   UNL     1      -3.004  -4.947   1.707  0.00  0.00    +0.203 C 
ATOM     17  N   UNL     1      -3.079  -5.491   3.075  0.00  0.00    -0.291 N 
ATOM     18  C   UNL     1      -1.895  -5.700   3.718  0.00  0.00    +0.237 C 
ATOM     19  O   UNL     1      -1.838  -6.175   4.833  0.00  0.00    -0.274 OA
ATOM     20  H   UNL     1       2.457  -1.317   2.924  0.00  0.00    +0.160 HD
ENDROOT
BRANCH   1  26
ATOM     21  C   UNL     1      -0.018   1.503   0.010  0.00  0.00    +0.044 C 
ATOM     22  C   UNL     1       0.002  -0.004   0.002  0.00  0.00    -0.050 A 
ATOM     23  C   UNL     1       0.006  -0.689  -1.199  0.00  0.00    +0.003 A 
ATOM     24  C   UNL     1       0.025  -2.071  -1.207  0.00  0.00    +0.001 A 
ATOM     25  C   UNL     1       0.040  -2.768  -0.013  0.00  0.00    +0.005 A 
ATOM     26  C   UNL     1       0.037  -2.084   1.188  0.00  0.00    -0.024 A 
ATOM     27  C   UNL     1       0.023  -0.702   1.195  0.00  0.00    +0.009 A 
ENDBRANCH   1  26
BRANCH  17  28
ATOM     28  C   UNL     1      -4.363  -5.789   3.715  0.00  0.00    +0.112 C 
BRANCH  28  29
ATOM     29  C   UNL     1      -4.763  -7.234   3.407  0.00  0.00    +0.049 C 
BRANCH  29  30
ATOM     30  C   UNL     1      -6.083  -7.541   4.065  0.00  0.00    -0.072 C 
ATOM     31  C   UNL     1      -7.159  -7.411   3.357  0.00  0.00    -0.028 C 
ATOM     32  C   UNL     1      -8.543  -7.670   3.875  0.00  0.00    +0.027 C 
ATOM     33  C   UNL     1      -8.478  -8.491   5.165  0.00  0.00    +0.004 C 
ATOM     34  C   UNL     1      -7.465  -7.832   6.109  0.00  0.00    +0.005 C 
ATOM     35  C   UNL     1      -6.069  -7.983   5.499  0.00  0.00    +0.030 C 
ENDBRANCH  29  30
ENDBRANCH  28  29
ENDBRANCH  17  28
TORSDOF 4
