REMARK  Name = ZINC10232590
REMARK  3 active torsions:
REMARK  status: ('A' for Active; 'I' for Inactive)
REMARK    1  A    between atoms: C_1  and  C_2
REMARK    2  A    between atoms: C_5  and  C_8
REMARK    3  A    between atoms: C_21  and  C_23
REMARK                            x       y       z     vdW  Elec       q    Type
REMARK                         _______ _______ _______ _____ _____    ______ ____
ROOT
ATOM      1  C   UNL     1       0.059  -4.256  -0.021  0.00  0.00    +0.101 A 
ATOM      2  C   UNL     1       0.850  -4.953   0.896  0.00  0.00    +0.036 A 
ATOM      3  C   UNL     1       0.827  -6.338   0.847  0.00  0.00    +0.110 A 
ATOM      4  C   UNL     1       0.024  -6.956  -0.118  0.00  0.00    +0.310 A 
ATOM      5  N   UNL     1      -0.690  -6.210  -0.946  0.00  0.00    -0.104 NA
ATOM      6  N   UNL     1      -0.678  -4.928  -0.897  0.00  0.00    -0.145 NA
ATOM      7  O   UNL     1      -0.023  -8.310  -0.203  0.00  0.00    -0.262 OA
ATOM      8  N   UNL     1       1.578  -7.112   1.737  0.00  0.00    -0.278 N 
ATOM      9  C   UNL     1       2.138  -6.462   2.826  0.00  0.00    +0.240 A 
ATOM     10  N   UNL     1       2.684  -6.940   3.909  0.00  0.00    -0.092 NA
ATOM     11  N   UNL     1       3.073  -5.979   4.675  0.00  0.00    -0.021 NA
ATOM     12  N   UNL     1       2.804  -4.835   4.134  0.00  0.00    -0.042 NA
ATOM     13  N   UNL     1       2.190  -5.108   2.911  0.00  0.00    -0.201 N 
ATOM     14  C   UNL     1       1.690  -4.197   1.889  0.00  0.00    +0.176 C 
ATOM     15  H   UNL     1       1.702  -8.064   1.599  0.00  0.00    +0.155 HD
ENDROOT
BRANCH   1  20
ATOM     16  C   UNL     1      -0.016   1.503   0.011  0.00  0.00    +0.044 C 
ATOM     17  C   UNL     1       0.004  -0.004   0.002  0.00  0.00    -0.050 A 
ATOM     18  C   UNL     1      -0.181  -0.702   1.182  0.00  0.00    +0.004 A 
ATOM     19  C   UNL     1      -0.164  -2.082   1.180  0.00  0.00    +0.010 A 
ATOM     20  C   UNL     1       0.040  -2.772  -0.013  0.00  0.00    +0.003 A 
ATOM     21  C   UNL     1       0.225  -2.064  -1.199  0.00  0.00    +0.010 A 
ATOM     22  C   UNL     1       0.201  -0.684  -1.186  0.00  0.00    +0.004 A 
ENDBRANCH   1  20
BRANCH  14  23
ATOM     23  C   UNL     1       2.853  -3.558   1.176  0.00  0.00    -0.018 A 
ATOM     24  C   UNL     1       3.761  -4.345   0.492  0.00  0.00    +0.009 A 
ATOM     25  C   UNL     1       4.828  -3.759  -0.163  0.00  0.00    +0.039 A 
ATOM     26  C   UNL     1       4.988  -2.384  -0.134  0.00  0.00    +0.123 A 
ATOM     27  C   UNL     1       4.078  -1.597   0.552  0.00  0.00    +0.039 A 
ATOM     28  C   UNL     1       3.009  -2.184   1.201  0.00  0.00    +0.009 A 
ATOM     29  F   UNL     1       6.031  -1.811  -0.773  0.00  0.00    -0.205 F 
ENDBRANCH  14  23
TORSDOF 2
