REMARK  Name = ZINC02921033
REMARK  7 active torsions:
REMARK  status: ('A' for Active; 'I' for Inactive)
REMARK    1  A    between atoms: C_1  and  C_2
REMARK    2  A    between atoms: C_5  and  N_9
REMARK    3  A    between atoms: C_10  and  C_12
REMARK    4  A    between atoms: C_13  and  C_33
REMARK    5  A    between atoms: N_19  and  C_22
REMARK    6  A    between atoms: C_22  and  C_23
REMARK    7  A    between atoms: C_29  and  C_32
REMARK                            x       y       z     vdW  Elec       q    Type
REMARK                         _______ _______ _______ _____ _____    ______ ____
ROOT
ATOM      1  C   UNL     1       2.941   3.699  10.540  0.00  0.00    +0.080 A 
ATOM      2  C   UNL     1       2.228   2.819   9.779  0.00  0.00    -0.017 A 
ATOM      3  C   UNL     1       1.437   3.291   8.729  0.00  0.00    +0.076 A 
ATOM      4  C   UNL     1       1.441   4.691   8.535  0.00  0.00    +0.116 A 
ATOM      5  S   UNL     1       2.531   5.275   9.808  0.00  0.00    -0.064 S 
ATOM      6  N   UNL     1       0.732   5.266   7.572  0.00  0.00    -0.230 NA
ATOM      7  C   UNL     1      -0.005   4.567   6.754  0.00  0.00    +0.203 A 
ATOM      8  N   UNL     1      -0.089   3.216   6.841  0.00  0.00    -0.290 N 
ATOM      9  C   UNL     1       0.585   2.531   7.785  0.00  0.00    +0.263 A 
ATOM     10  O   UNL     1       0.499   1.318   7.858  0.00  0.00    -0.267 OA
ATOM     11  C   UNL     1       2.294   1.342  10.071  0.00  0.00    +0.046 C 
ENDROOT
BRANCH   1  13
ATOM     12  N   UNL     1       4.448   4.433  12.310  0.00  0.00    -0.280 N 
ATOM     13  C   UNL     1       3.823   3.420  11.677  0.00  0.00    +0.255 C 
ATOM     14  O   UNL     1       3.992   2.274  12.049  0.00  0.00    -0.269 OA
ATOM     15  H   UNL     1       4.365   5.339  11.974  0.00  0.00    +0.155 HD
BRANCH  12  20
ATOM     16  C   UNL     1       7.559   3.397  16.939  0.00  0.00    +0.044 C 
ATOM     17  C   UNL     1       6.732   3.672  15.710  0.00  0.00    -0.049 A 
ATOM     18  C   UNL     1       6.689   2.744  14.685  0.00  0.00    +0.005 A 
ATOM     19  C   UNL     1       5.933   2.993  13.557  0.00  0.00    +0.025 A 
ATOM     20  C   UNL     1       5.214   4.177  13.451  0.00  0.00    +0.048 A 
ATOM     21  C   UNL     1       5.264   5.110  14.480  0.00  0.00    +0.039 A 
ATOM     22  C   UNL     1       6.019   4.852  15.608  0.00  0.00    +0.020 A 
ATOM     23 BR   UNL     1       4.294   6.728  14.339  0.00  0.00    -0.048 Br
ENDBRANCH  12  20
ENDBRANCH   1  13
BRANCH   8  24
ATOM     24  C   UNL     1      -0.935   2.487   5.893  0.00  0.00    +0.222 C 
BRANCH  24  25
ATOM     25  C   UNL     1      -0.122   2.112   4.680  0.00  0.00    +0.235 C 
ATOM     26  O   UNL     1       1.048   2.422   4.615  0.00  0.00    -0.274 OA
ATOM     27  N   UNL     1      -0.697   1.431   3.669  0.00  0.00    -0.300 N 
ATOM     28  C   UNL     1      -2.114   1.048   3.733  0.00  0.00    +0.108 C 
ATOM     29  C   UNL     1      -2.819   1.555   2.472  0.00  0.00    +0.019 C 
ATOM     30  C   UNL     1      -2.083   1.034   1.235  0.00  0.00    +0.006 C 
ATOM     31  C   UNL     1      -0.648   1.565   1.233  0.00  0.00    +0.003 C 
ATOM     32  C   UNL     1       0.083   1.058   2.481  0.00  0.00    +0.111 C 
ATOM     33  C   UNL     1       0.078   1.069  -0.020  0.00  0.00    +0.009 C 
ENDBRANCH  24  25
ENDBRANCH   8  24
TORSDOF 4
