REMARK  Name = ZINC28540961
REMARK  2 active torsions:
REMARK  status: ('A' for Active; 'I' for Inactive)
REMARK    1  A    between atoms: C_9  and  C_12
REMARK    2  A    between atoms: N_14  and  C_15
REMARK                            x       y       z     vdW  Elec       q    Type
REMARK                         _______ _______ _______ _____ _____    ______ ____
ROOT
ATOM      1  C   UNL     1      -0.734   1.573   1.239  0.00  0.00    +0.261 C 
ATOM      2  O   UNL     1      -1.671   2.336   1.131  0.00  0.00    -0.271 OA
ATOM      3  N   UNL     1      -0.328   1.173   2.460  0.00  0.00    -0.281 N 
ATOM      4  H   UNL     1       0.473   0.425   2.555  0.00  0.00    +0.155 HD
ENDROOT
BRANCH   1  13
ATOM      5  C   UNL     1       1.317   1.218  -4.758  0.00  0.00    +0.004 A 
ATOM      6  C   UNL     1      -0.050   1.426  -4.741  0.00  0.00    +0.004 A 
ATOM      7  C   UNL     1      -0.719   1.536  -3.537  0.00  0.00    +0.049 A 
ATOM      8  C   UNL     1      -0.022   1.437  -2.343  0.00  0.00    +0.163 A 
ATOM      9  C   UNL     1       1.352   1.226  -2.360  0.00  0.00    +0.162 A 
ATOM     10  C   UNL     1       2.018   1.118  -3.571  0.00  0.00    +0.049 A 
ATOM     11  O   UNL     1       2.055   1.121  -1.199  0.00  0.00    -0.484 OA
ATOM     12  C   UNL     1       1.415   1.605  -0.013  0.00  0.00    +0.283 C 
ATOM     13  C   UNL     1      -0.024   1.073   0.007  0.00  0.00    +0.296 C 
ATOM     14  O   UNL     1      -0.694   1.550  -1.165  0.00  0.00    -0.473 OA
ENDBRANCH   1  13
BRANCH   3  15
ATOM     15  C   UNL     1      -0.924   1.710   3.607  0.00  0.00    +0.049 A 
ATOM     16  C   UNL     1      -2.275   2.033   3.602  0.00  0.00    +0.039 A 
ATOM     17  C   UNL     1      -2.862   2.558   4.737  0.00  0.00    +0.020 A 
ATOM     18  C   UNL     1      -2.104   2.771   5.875  0.00  0.00    +0.016 A 
ATOM     19  C   UNL     1      -0.758   2.455   5.881  0.00  0.00    +0.018 A 
ATOM     20  C   UNL     1      -0.166   1.925   4.750  0.00  0.00    +0.039 A 
ATOM     21 BR   UNL     1       1.675   1.493   4.760  0.00  0.00    -0.048 Br
ATOM     22 BR   UNL     1      -4.702   2.992   4.734  0.00  0.00    -0.050 Br
ENDBRANCH   3  15
TORSDOF 2
