REMARK  Name = ZINC59515632
REMARK  4 active torsions:
REMARK  status: ('A' for Active; 'I' for Inactive)
REMARK    1  A    between atoms: C_6  and  N_7
REMARK    2  A    between atoms: C_8  and  C_10
REMARK    3  A    between atoms: N_12  and  N_13
REMARK    4  A    between atoms: C_14  and  C_15
REMARK                            x       y       z     vdW  Elec       q    Type
REMARK                         _______ _______ _______ _____ _____    ______ ____
ROOT
ATOM      1  C   UNL     1      -2.462  -2.819  -0.203  0.00  0.00    +0.318 C 
ATOM      2  O   UNL     1      -3.521  -2.224  -0.189  0.00  0.00    -0.263 OA
ATOM      3  N   UNL     1      -2.446  -4.162  -0.312  0.00  0.00    -0.199 N 
ATOM      4  H   UNL     1      -1.600  -4.638  -0.323  0.00  0.00    +0.178 HD
ENDROOT
BRANCH   1   6
ATOM      5  N   UNL     1      -1.198  -0.721   0.010  0.00  0.00    -0.278 N 
ATOM      6  C   UNL     1      -1.181  -2.064  -0.099  0.00  0.00    +0.305 C 
ATOM      7  O   UNL     1      -0.123  -2.659  -0.113  0.00  0.00    -0.265 OA
ATOM      8  H   UNL     1      -2.042  -0.252   0.098  0.00  0.00    +0.155 HD
BRANCH   5  14
ATOM      9  C   UNL     1       1.072  -0.452  -0.767  0.00  0.00    +0.024 A 
ATOM     10  C   UNL     1       2.256   0.258  -0.779  0.00  0.00    +0.017 A 
ATOM     11  C   UNL     1       2.377   1.417  -0.032  0.00  0.00    +0.018 A 
ATOM     12  C   UNL     1       1.313   1.866   0.730  0.00  0.00    +0.017 A 
ATOM     13  C   UNL     1       0.126   1.159   0.746  0.00  0.00    +0.024 A 
ATOM     14  C   UNL     1       0.002  -0.004  -0.004  0.00  0.00    +0.034 A 
ATOM     15 BR   UNL     1       4.000   2.387  -0.050  0.00  0.00    -0.050 Br
ENDBRANCH   5  14
ENDBRANCH   1   6
BRANCH   3  16
ATOM     16  N   UNL     1      -3.650  -4.872  -0.409  0.00  0.00    -0.187 NA
ATOM     17  C   UNL     1      -3.634  -6.167  -0.514  0.00  0.00    +0.139 C 
BRANCH  17  18
ATOM     18  C   UNL     1      -4.900  -6.913  -0.617  0.00  0.00    +0.012 A 
ATOM     19  C   UNL     1      -4.885  -8.307  -0.724  0.00  0.00    +0.060 A 
ATOM     20  C   UNL     1      -6.075  -9.003  -0.820  0.00  0.00    +0.167 A 
ATOM     21  C   UNL     1      -7.289  -8.315  -0.810  0.00  0.00    +0.167 A 
ATOM     22  C   UNL     1      -7.303  -6.932  -0.703  0.00  0.00    +0.065 A 
ATOM     23  C   UNL     1      -6.120  -6.231  -0.601  0.00  0.00    +0.030 A 
ATOM     24 BR   UNL     1      -6.147  -4.346  -0.447  0.00  0.00    -0.050 Br
ATOM     25  O   UNL     1      -8.303  -9.222  -0.916  0.00  0.00    -0.453 OA
ATOM     26  C   UNL     1      -7.691 -10.430  -1.403  0.00  0.00    +0.466 C 
ATOM     27  O   UNL     1      -6.333 -10.339  -0.933  0.00  0.00    -0.453 OA
ENDBRANCH  17  18
ENDBRANCH   3  16
TORSDOF 4
