REMARK  Name = ZINC08441943
REMARK  6 active torsions:
REMARK  status: ('A' for Active; 'I' for Inactive)
REMARK    1  A    between atoms: C_1  and  O_2
REMARK    2  A    between atoms: O_2  and  C_3
REMARK    3  A    between atoms: C_6  and  C_10
REMARK    4  A    between atoms: C_13  and  C_24
REMARK    5  A    between atoms: C_19  and  N_23
REMARK    6  A    between atoms: C_20  and  C_21
REMARK                            x       y       z     vdW  Elec       q    Type
REMARK                         _______ _______ _______ _____ _____    ______ ____
ROOT
ATOM      1  C   UNL     1       2.588  -2.550   4.311  0.00  0.00    +0.102 C 
ATOM      2  C   UNL     1       1.615  -3.446   5.031  0.00  0.00    +0.054 A 
ATOM      3  C   UNL     1       0.545  -3.103   5.863  0.00  0.00    +0.100 A 
ATOM      4  N   UNL     1      -0.029  -4.220   6.267  0.00  0.00    -0.171 NA
ATOM      5  N   UNL     1       0.662  -5.303   5.702  0.00  0.00    -0.246 N 
ATOM      6  H   UNL     1       0.455  -6.242   5.830  0.00  0.00    +0.192 HD
ATOM      7  C   UNL     1       1.666  -4.808   4.948  0.00  0.00    +0.223 A 
ATOM      8  O   UNL     1       2.600  -5.462   4.214  0.00  0.00    -0.423 OA
ATOM      9  C   UNL     1       3.659  -4.752   3.775  0.00  0.00    +0.200 C 
ATOM     10  C   UNL     1       3.720  -3.401   3.793  0.00  0.00    +0.098 C 
ENDROOT
BRANCH   1  14
ATOM     11  C   UNL     1       0.626  -0.618   1.042  0.00  0.00    +0.134 A 
ATOM     12  C   UNL     1       1.202   0.138   2.051  0.00  0.00    +0.047 A 
ATOM     13  C   UNL     1       1.836  -0.488   3.107  0.00  0.00    +0.008 A 
ATOM     14  C   UNL     1       1.896  -1.869   3.158  0.00  0.00    -0.033 A 
ATOM     15  C   UNL     1       1.323  -2.626   2.153  0.00  0.00    +0.023 A 
ATOM     16  C   UNL     1       0.682  -2.004   1.098  0.00  0.00    +0.060 A 
ATOM     17 BR   UNL     1      -0.109  -3.040  -0.272  0.00  0.00    -0.047 Br
BRANCH  11  19
ATOM     18  C   UNL     1      -0.017   1.425   0.010  0.00  0.00    +0.277 C 
ATOM     19  O   UNL     1       0.002  -0.004   0.002  0.00  0.00    -0.494 OA
ENDBRANCH  11  19
ENDBRANCH   1  14
BRANCH   3  20
ATOM     20  C   UNL     1       0.129  -1.726   6.228  0.00  0.00    +0.003 A 
ATOM     21  C   UNL     1       1.087  -0.727   6.392  0.00  0.00    +0.010 A 
ATOM     22  C   UNL     1       0.695   0.552   6.731  0.00  0.00    +0.001 A 
ATOM     23  C   UNL     1      -0.646   0.843   6.908  0.00  0.00    +0.000 A 
ATOM     24  C   UNL     1      -1.601  -0.145   6.747  0.00  0.00    +0.001 A 
ATOM     25  C   UNL     1      -1.220  -1.426   6.401  0.00  0.00    +0.010 A 
ENDBRANCH   3  20
BRANCH   9  26
ATOM     26  N   UNL     1       4.739  -5.441   3.280  0.00  0.00    -0.328 N 
ATOM     27  H   UNL     1       4.725  -6.411   3.254  0.00  0.00    +0.145 HD
ATOM     28  H   UNL     1       5.516  -4.958   2.957  0.00  0.00    +0.145 HD
ENDBRANCH   9  26
BRANCH  10  29
ATOM     29  C   UNL     1       4.902  -2.756   3.304  0.00  0.00    +0.101 C 
ATOM     30  N   UNL     1       5.838  -2.244   2.916  0.00  0.00    -0.191 NA
ENDBRANCH  10  29
TORSDOF 5
