REMARK  Name = ZINC13342223
REMARK  9 active torsions:
REMARK  status: ('A' for Active; 'I' for Inactive)
REMARK    1  A    between atoms: C_1  and  C_2
REMARK    2  A    between atoms: C_8  and  N_10
REMARK    3  A    between atoms: C_11  and  C_30
REMARK    4  A    between atoms: C_14  and  S_15
REMARK    5  A    between atoms: S_15  and  C_16
REMARK    6  A    between atoms: C_16  and  C_17
REMARK    7  A    between atoms: N_19  and  C_20
REMARK    8  A    between atoms: C_22  and  C_28
REMARK    9  A    between atoms: C_24  and  C_26
REMARK                            x       y       z     vdW  Elec       q    Type
REMARK                         _______ _______ _______ _____ _____    ______ ____
ROOT
ATOM      1  N   UNL     1       5.330   1.611   0.161  0.00  0.00    -0.299 N 
ATOM      2  C   UNL     1       6.019   2.794   0.024  0.00  0.00    +0.167 A 
ATOM      3  N   UNL     1       5.131   3.732  -0.212  0.00  0.00    -0.128 NA
ATOM      4  N   UNL     1       3.951   3.223  -0.236  0.00  0.00    -0.122 NA
ATOM      5  C   UNL     1       4.013   1.928  -0.018  0.00  0.00    +0.193 A 
ENDROOT
BRANCH   1  12
ATOM      6  C   UNL     1       6.123  -0.128  -2.015  0.00  0.00    +0.009 C 
ATOM      7  C   UNL     1       5.539  -0.666  -0.707  0.00  0.00    +0.009 C 
ATOM      8  C   UNL     1       4.018  -0.773  -0.833  0.00  0.00    +0.005 C 
ATOM      9  C   UNL     1       3.435  -1.311   0.475  0.00  0.00    +0.000 C 
ATOM     10  C   UNL     1       3.786  -0.358   1.620  0.00  0.00    +0.002 C 
ATOM     11  C   UNL     1       5.307  -0.252   1.746  0.00  0.00    +0.025 C 
ATOM     12  C   UNL     1       5.891   0.286   0.438  0.00  0.00    +0.094 C 
ENDBRANCH   1  12
BRANCH   2  13
ATOM     13  C   UNL     1       7.482   2.975   0.128  0.00  0.00    +0.037 A 
ATOM     14  C   UNL     1       8.018   4.167   0.630  0.00  0.00    +0.014 A 
ATOM     15  C   UNL     1       9.394   4.286   0.708  0.00  0.00    +0.020 A 
ATOM     16  C   UNL     1      10.190   3.234   0.291  0.00  0.00    +0.111 A 
ATOM     17  N   UNL     1       9.657   2.122  -0.178  0.00  0.00    -0.263 NA
ATOM     18  C   UNL     1       8.353   1.958  -0.266  0.00  0.00    +0.122 A 
ENDBRANCH   2  13
BRANCH   5  19
ATOM     19  S   UNL     1       2.651   0.812   0.042  0.00  0.00    -0.077 S 
BRANCH  19  20
ATOM     20  C   UNL     1       1.289   1.961  -0.273  0.00  0.00    +0.173 C 
BRANCH  20  21
ATOM     21  C   UNL     1      -0.016   1.207  -0.268  0.00  0.00    +0.227 C 
ATOM     22  O   UNL     1      -0.024   0.010  -0.072  0.00  0.00    -0.275 OA
ATOM     23  N   UNL     1      -1.173   1.862  -0.487  0.00  0.00    -0.285 N 
ATOM     24  H   UNL     1      -1.176   2.828  -0.570  0.00  0.00    +0.155 HD
BRANCH  23  25
ATOM     25  C   UNL     1      -2.372   1.147  -0.597  0.00  0.00    +0.035 A 
ATOM     26  C   UNL     1      -2.377  -0.108  -1.188  0.00  0.00    +0.038 A 
ATOM     27  C   UNL     1      -3.570  -0.827  -1.293  0.00  0.00    +0.066 A 
ATOM     28  C   UNL     1      -4.758  -0.277  -0.815  0.00  0.00    +0.030 A 
ATOM     29  C   UNL     1      -4.749   0.987  -0.227  0.00  0.00    +0.066 A 
ATOM     30  C   UNL     1      -3.552   1.697  -0.119  0.00  0.00    +0.038 A 
BRANCH  29  31
ATOM     31  C   UNL     1      -6.006   1.575   0.281  0.00  0.00    +0.387 C 
ATOM     32  O   UNL     1      -5.998   2.676   0.793  0.00  0.00    -0.241 OA
ATOM     33  O   UNL     1      -7.161   0.889   0.177  0.00  0.00    -0.241 OA
ENDBRANCH  29  31
BRANCH  27  34
ATOM     34  C   UNL     1      -3.574  -2.166  -1.917  0.00  0.00    +0.387 C 
ATOM     35  O   UNL     1      -2.538  -2.645  -2.334  0.00  0.00    -0.241 OA
ATOM     36  O   UNL     1      -4.726  -2.856  -2.024  0.00  0.00    -0.241 OA
ENDBRANCH  27  34
ENDBRANCH  23  25
ENDBRANCH  20  21
ENDBRANCH  19  20
ENDBRANCH   5  19
TORSDOF 8
