REMARK  Name = ZINC63137569
REMARK  9 active torsions:
REMARK  status: ('A' for Active; 'I' for Inactive)
REMARK    1  A    between atoms: C_1  and  O_2
REMARK    2  A    between atoms: O_2  and  C_3
REMARK    3  A    between atoms: C_6  and  C_9
REMARK    4  A    between atoms: C_9  and  N_10
REMARK    5  A    between atoms: C_30  and  C_32
REMARK    6  A    between atoms: C_36  and  O_40
REMARK    7  A    between atoms: C_37  and  O_38
REMARK    8  A    between atoms: O_38  and  C_39
REMARK    9  A    between atoms: O_40  and  C_41
REMARK                            x       y       z     vdW  Elec       q    Type
REMARK                         _______ _______ _______ _____ _____    ______ ____
ROOT
ATOM      1  N   UNL     1       1.381  -3.074   5.114  0.00  0.00    -0.287 N 
ATOM      2  C   UNL     1       1.355  -2.005   6.099  0.00  0.00    +0.204 C 
ATOM      3  C   UNL     1       0.429  -2.304   7.231  0.00  0.00    +0.234 C 
ATOM      4  O   UNL     1       0.332  -1.477   8.112  0.00  0.00    -0.274 OA
ATOM      5  N   UNL     1      -0.302  -3.419   7.341  0.00  0.00    -0.279 N 
ATOM      6  C   UNL     1      -0.284  -4.476   6.336  0.00  0.00    +0.167 C 
ATOM      7  C   UNL     1       0.647  -4.181   5.208  0.00  0.00    +0.237 C 
ATOM      8  O   UNL     1       0.744  -5.003   4.322  0.00  0.00    -0.274 OA
ATOM      9  C   UNL     1      -1.705  -4.701   5.785  0.00  0.00    +0.065 C 
ATOM     10  C   UNL     1      -2.626  -4.753   6.979  0.00  0.00    -0.034 C 
ATOM     11  C   UNL     1      -3.544  -5.639   7.343  0.00  0.00    -0.001 A 
ATOM     12  C   UNL     1      -4.080  -6.832   6.667  0.00  0.00    +0.010 A 
ATOM     13  C   UNL     1      -5.018  -7.539   7.351  0.00  0.00    +0.001 A 
ATOM     14  C   UNL     1      -5.471  -7.183   8.625  0.00  0.00    +0.002 A 
ATOM     15  C   UNL     1      -5.042  -6.098   9.317  0.00  0.00    +0.026 A 
ATOM     16  C   UNL     1      -4.060  -5.271   8.697  0.00  0.00    +0.043 A 
ATOM     17  N   UNL     1      -3.498  -4.176   9.116  0.00  0.00    -0.375 N 
ATOM     18  C   UNL     1      -2.609  -3.683   8.063  0.00  0.00    +0.131 C 
ATOM     19  C   UNL     1      -1.158  -3.567   8.540  0.00  0.00    +0.137 C 
ATOM     20  H   UNL     1      -3.644  -3.756   9.978  0.00  0.00    +0.160 HD
ENDROOT
BRANCH  19  21
ATOM     21  C   UNL     1      -0.768  -4.812   9.296  0.00  0.00    +0.021 A 
ATOM     22  C   UNL     1      -0.811  -6.043   8.668  0.00  0.00    +0.009 A 
ATOM     23  C   UNL     1      -0.455  -7.187   9.358  0.00  0.00    +0.004 A 
ATOM     24  C   UNL     1      -0.053  -7.104  10.679  0.00  0.00    +0.049 A 
ATOM     25  C   UNL     1      -0.008  -5.873  11.313  0.00  0.00    +0.162 A 
ATOM     26  C   UNL     1      -0.362  -4.721  10.617  0.00  0.00    +0.166 A 
BRANCH  26  27
ATOM     27  O   UNL     1      -0.314  -3.510  11.233  0.00  0.00    -0.491 OA
ATOM     28  C   UNL     1      -1.452  -3.132  12.010  0.00  0.00    +0.277 C 
ENDBRANCH  26  27
BRANCH  25  29
ATOM     29  O   UNL     1       0.386  -5.790  12.612  0.00  0.00    -0.491 OA
ATOM     30  C   UNL     1       0.740  -7.013  13.262  0.00  0.00    +0.277 C 
ENDBRANCH  25  29
ENDBRANCH  19  21
BRANCH   1  31
ATOM     31  C   UNL     1       2.259  -2.922   3.951  0.00  0.00    +0.143 C 
BRANCH  31  35
ATOM     32  C   UNL     1       0.130  -0.966   0.804  0.00  0.00    +0.120 A 
ATOM     33  C   UNL     1       0.842  -0.218   1.730  0.00  0.00    +0.046 A 
ATOM     34  C   UNL     1       1.529  -0.853   2.747  0.00  0.00    +0.009 A 
ATOM     35  C   UNL     1       1.508  -2.232   2.841  0.00  0.00    -0.030 A 
ATOM     36  C   UNL     1       0.800  -2.980   1.918  0.00  0.00    +0.009 A 
ATOM     37  C   UNL     1       0.106  -2.349   0.904  0.00  0.00    +0.046 A 
BRANCH  32  39
ATOM     38  C   UNL     1      -0.478   1.083  -0.238  0.00  0.00    +0.277 C 
ATOM     39  O   UNL     1      -0.547  -0.344  -0.197  0.00  0.00    -0.495 OA
ENDBRANCH  32  39
ENDBRANCH  31  35
ENDBRANCH   1  31
TORSDOF 6
