REMARK  Name = ZINC41589378
REMARK  6 active torsions:
REMARK  status: ('A' for Active; 'I' for Inactive)
REMARK    1  A    between atoms: C_1  and  C_2
REMARK    2  A    between atoms: C_10  and  C_11
REMARK    3  A    between atoms: C_14  and  N_17
REMARK    4  A    between atoms: N_17  and  C_18
REMARK    5  A    between atoms: N_17  and  C_19
REMARK    6  A    between atoms: N_23  and  C_26
REMARK                            x       y       z     vdW  Elec       q    Type
REMARK                         _______ _______ _______ _____ _____    ______ ____
ROOT
ATOM      1  C   UNL     1       0.078   1.495   0.006  0.00  0.00    +0.051 C 
ATOM      2  C   UNL     1       0.089  -0.012   0.001  0.00  0.00    +0.034 A 
ATOM      3  C   UNL     1       0.110  -0.699  -1.205  0.00  0.00    +0.133 A 
ATOM      4  C   UNL     1       0.121  -2.090  -1.222  0.00  0.00    +0.010 A 
ATOM      5  C   UNL     1       0.109  -2.791  -0.047  0.00  0.00    +0.024 A 
ATOM      6  C   UNL     1       0.087  -2.112   1.171  0.00  0.00    +0.068 A 
ATOM      7  C   UNL     1       0.083  -0.708   1.202  0.00  0.00    +0.146 A 
ATOM      8  O   UNL     1       0.071  -0.281   2.483  0.00  0.00    -0.451 OA
ATOM      9  C   UNL     1       0.069  -1.315   3.358  0.00  0.00    +0.176 C 
ATOM     10  C   UNL     1       0.055  -1.219   4.713  0.00  0.00    +0.058 C 
ATOM     11  C   UNL     1       0.069  -2.559   2.576  0.00  0.00    +0.231 C 
ATOM     12  O   UNL     1       0.069  -3.703   2.995  0.00  0.00    -0.283 OA
ATOM     13  C   UNL     1       0.152  -2.845  -2.527  0.00  0.00    +0.126 C 
ATOM     14  N   UNL     1      -0.251  -1.951  -3.622  0.00  0.00    -0.262 NA
ATOM     15  C   UNL     1       0.504  -0.689  -3.551  0.00  0.00    +0.319 C 
ATOM     16  O   UNL     1       0.117   0.009  -2.365  0.00  0.00    -0.476 OA
ENDROOT
BRANCH  14  17
ATOM     17  C   UNL     1      -0.068  -2.601  -4.927  0.00  0.00    +0.083 C 
ATOM     18  C   UNL     1      -0.938  -3.868  -4.992  0.00  0.00    +0.043 C 
ATOM     19  C   UNL     1      -0.972  -4.357  -6.468  0.00  0.00    +0.167 C 
ATOM     20  S   UNL     1      -1.129  -2.748  -7.352  0.00  0.00    -0.029 S 
ATOM     21  O   UNL     1      -2.506  -2.467  -7.561  0.00  0.00    -0.174 OA
ATOM     22  O   UNL     1      -0.238  -2.740  -8.459  0.00  0.00    -0.174 OA
ATOM     23  C   UNL     1      -0.481  -1.621  -6.051  0.00  0.00    +0.184 C 
ENDBRANCH  14  17
BRANCH  10  24
ATOM     24  C   UNL     1       0.158   0.095   5.356  0.00  0.00    -0.021 A 
ATOM     25  C   UNL     1       0.279   0.188   6.750  0.00  0.00    +0.010 A 
ATOM     26  C   UNL     1       0.375   1.414   7.344  0.00  0.00    +0.023 A 
ATOM     27  C   UNL     1       0.351   2.571   6.569  0.00  0.00    +0.029 A 
ATOM     28  C   UNL     1       0.230   2.483   5.184  0.00  0.00    +0.023 A 
ATOM     29  C   UNL     1       0.140   1.262   4.580  0.00  0.00    +0.010 A 
BRANCH  27  30
ATOM     30  N   UNL     1       0.449   3.817   7.179  0.00  0.00    -0.336 N 
ATOM     31  C   UNL     1       0.688   3.910   8.621  0.00  0.00    +0.129 C 
ATOM     32  C   UNL     1       0.311   5.037   6.379  0.00  0.00    +0.129 C 
ENDBRANCH  27  30
ENDBRANCH  10  24
TORSDOF 3
