REMARK  Name = ZINC09969431
REMARK  5 active torsions:
REMARK  status: ('A' for Active; 'I' for Inactive)
REMARK    1  A    between atoms: C_1  and  C_2
REMARK    2  A    between atoms: C_8  and  N_20
REMARK    3  A    between atoms: C_9  and  S_11
REMARK    4  A    between atoms: S_11  and  C_14
REMARK    5  A    between atoms: N_23  and  C_26
REMARK                            x       y       z     vdW  Elec       q    Type
REMARK                         _______ _______ _______ _____ _____    ______ ____
ROOT
ATOM      1  C   UNL     1      -2.375   1.348   4.378  0.00  0.00    +0.044 C 
ATOM      2  C   UNL     1      -2.758   0.572   3.144  0.00  0.00    -0.050 A 
ATOM      3  C   UNL     1      -4.040   0.038   3.038  0.00  0.00    +0.005 A 
ATOM      4  C   UNL     1      -4.417  -0.668   1.937  0.00  0.00    +0.026 A 
ATOM      5  C   UNL     1      -3.504  -0.864   0.887  0.00  0.00    +0.048 A 
ATOM      6  C   UNL     1      -2.202  -0.320   0.998  0.00  0.00    +0.021 A 
ATOM      7  C   UNL     1      -1.846   0.402   2.147  0.00  0.00    +0.015 A 
ATOM      8  C   UNL     1      -1.284  -0.518  -0.060  0.00  0.00    +0.066 A 
ATOM      9  C   UNL     1      -1.714  -1.238  -1.165  0.00  0.00    +0.131 A 
ATOM     10  C   UNL     1      -3.006  -1.743  -1.196  0.00  0.00    +0.112 A 
ATOM     11  N   UNL     1      -3.922  -1.583  -0.212  0.00  0.00    -0.359 N 
ATOM     12  H   UNL     1      -4.869  -1.972  -0.281  0.00  0.00    +0.165 HD
ENDROOT
BRANCH   8  13
ATOM     13  N   UNL     1       0.002  -0.004   0.002  0.00  0.00    -0.325 N 
ATOM     14  C   UNL     1      -0.021   1.462   0.101  0.00  0.00    +0.124 C 
ATOM     15  C   UNL     1       1.414   1.994   0.087  0.00  0.00    +0.124 C 
ATOM     16  N   UNL     1       2.163   1.405   1.206  0.00  0.00    -0.325 N 
ATOM     17  C   UNL     1       2.186  -0.061   1.108  0.00  0.00    +0.124 C 
ATOM     18  C   UNL     1       0.751  -0.593   1.121  0.00  0.00    +0.124 C 
BRANCH  16  19
ATOM     19  C   UNL     1       3.460   1.924   1.269  0.00  0.00    +0.065 A 
ATOM     20  C   UNL     1       4.354   1.691   0.233  0.00  0.00    +0.026 A 
ATOM     21  C   UNL     1       5.633   2.208   0.296  0.00  0.00    +0.002 A 
ATOM     22  C   UNL     1       6.029   2.949   1.394  0.00  0.00    +0.003 A 
ATOM     23  C   UNL     1       5.144   3.180   2.432  0.00  0.00    +0.040 A 
ATOM     24  C   UNL     1       3.860   2.669   2.373  0.00  0.00    +0.144 A 
ATOM     25  F   UNL     1       2.995   2.894   3.387  0.00  0.00    -0.204 F 
ENDBRANCH  16  19
ENDBRANCH   8  13
BRANCH   9  26
ATOM     26  S   UNL     1      -0.622  -1.515  -2.520  0.00  0.00    +0.028 S 
ATOM     27  O   UNL     1       0.598  -1.990  -1.968  0.00  0.00    -0.164 OA
ATOM     28  O   UNL     1      -1.357  -2.249  -3.490  0.00  0.00    -0.164 OA
BRANCH  26  29
ATOM     29  C   UNL     1      -0.273   0.057  -3.237  0.00  0.00    +0.094 A 
ATOM     30  C   UNL     1      -1.072   0.546  -4.253  0.00  0.00    +0.027 A 
ATOM     31  C   UNL     1      -0.800   1.781  -4.812  0.00  0.00    +0.002 A 
ATOM     32  C   UNL     1       0.277   2.522  -4.361  0.00  0.00    +0.000 A 
ATOM     33  C   UNL     1       1.079   2.030  -3.349  0.00  0.00    +0.002 A 
ATOM     34  C   UNL     1       0.804   0.797  -2.786  0.00  0.00    +0.027 A 
ENDBRANCH  26  29
ENDBRANCH   9  26
TORSDOF 4
