REMARK  Name = ZINC20854806
REMARK  6 active torsions:
REMARK  status: ('A' for Active; 'I' for Inactive)
REMARK    1  A    between atoms: C_1  and  C_2
REMARK    2  A    between atoms: N_4  and  C_5
REMARK    3  A    between atoms: C_8  and  N_11
REMARK    4  A    between atoms: C_12  and  C_14
REMARK    5  A    between atoms: C_18  and  N_20
REMARK    6  A    between atoms: C_27  and  C_36
REMARK                            x       y       z     vdW  Elec       q    Type
REMARK                         _______ _______ _______ _____ _____    ______ ____
ROOT
ATOM      1  C   UNL     1       4.827   3.556   0.165  0.00  0.00    +0.039 A 
ATOM      2  C   UNL     1       4.893   4.912  -0.160  0.00  0.00    +0.013 A 
ATOM      3  C   UNL     1       3.732   5.641  -0.319  0.00  0.00    +0.003 A 
ATOM      4  C   UNL     1       2.501   5.031  -0.164  0.00  0.00    +0.024 A 
ATOM      5  C   UNL     1       2.425   3.683   0.165  0.00  0.00    +0.042 A 
ATOM      6  C   UNL     1       3.585   2.942   0.328  0.00  0.00    +0.036 A 
ENDROOT
BRANCH   5   7
ATOM      7  N   UNL     1       1.176   3.071   0.327  0.00  0.00    -0.216 N 
ATOM      8  C   UNL     1       0.342   3.008  -0.722  0.00  0.00    +0.310 C 
ATOM      9  O   UNL     1       0.667   3.547  -1.762  0.00  0.00    -0.252 OA
ATOM     10  N   UNL     1      -0.839   2.369  -0.666  0.00  0.00    -0.292 N 
ATOM     11  C   UNL     1      -1.221   1.648   0.559  0.00  0.00    +0.114 C 
ATOM     12  C   UNL     1      -0.709   2.458   1.758  0.00  0.00    +0.096 C 
ATOM     13  C   UNL     1       0.820   2.523   1.633  0.00  0.00    +0.185 C 
ATOM     14  O   UNL     1       1.343   1.207   1.790  0.00  0.00    -0.468 OA
ATOM     15  C   UNL     1       0.734   0.181   1.142  0.00  0.00    +0.128 A 
ATOM     16  C   UNL     1      -0.504   0.326   0.541  0.00  0.00    +0.016 A 
ATOM     17  C   UNL     1      -1.096  -0.748  -0.099  0.00  0.00    +0.029 A 
ATOM     18  C   UNL     1      -0.449  -1.970  -0.148  0.00  0.00    +0.042 A 
ATOM     19  C   UNL     1       0.792  -2.118   0.444  0.00  0.00    +0.023 A 
ATOM     20  C   UNL     1       1.383  -1.049   1.087  0.00  0.00    +0.047 A 
ATOM     21 CL   UNL     1      -1.195  -3.316  -0.952  0.00  0.00    -0.084 Cl
ATOM     22  C   UNL     1       1.381   3.427   2.733  0.00  0.00    +0.079 C 
ATOM     23  H   UNL     1      -1.518   2.383  -1.531  0.00  0.00    +0.151 HD
ENDBRANCH   5   7
BRANCH   1  25
ATOM     24  N   UNL     1       7.268   3.369   0.180  0.00  0.00    -0.282 N 
ATOM     25  C   UNL     1       6.069   2.773   0.338  0.00  0.00    +0.248 C 
ATOM     26  O   UNL     1       6.010   1.593   0.621  0.00  0.00    -0.270 OA
ATOM     27  H   UNL     1       7.325   4.454   0.008  0.00  0.00    +0.155 HD
BRANCH  24  31
ATOM     28  C   UNL     1      10.761   1.098   0.341  0.00  0.00    +0.033 A 
ATOM     29  C   UNL     1       9.594   0.542  -0.166  0.00  0.00    +0.025 A 
ATOM     30  C   UNL     1       8.437   1.294  -0.219  0.00  0.00    +0.025 A 
ATOM     31  C   UNL     1       8.441   2.606   0.234  0.00  0.00    +0.034 A 
ATOM     32  C   UNL     1       9.609   3.164   0.737  0.00  0.00    +0.025 A 
ATOM     33  C   UNL     1      10.764   2.411   0.795  0.00  0.00    +0.025 A 
BRANCH  28  37
ATOM     34  C   UNL     1      14.111  -0.240   1.419  0.00  0.00    +0.109 C 
ATOM     35  C   UNL     1      12.797   0.498   1.418  0.00  0.00    +0.214 C 
ATOM     36  O   UNL     1      12.516   1.238   2.337  0.00  0.00    -0.276 OA
ATOM     37  N   UNL     1      11.935   0.336   0.395  0.00  0.00    -0.286 N 
ATOM     38  H   UNL     1      12.152  -0.396  -0.397  0.00  0.00    +0.155 HD
ENDBRANCH  28  37
ENDBRANCH  24  31
ENDBRANCH   1  25
TORSDOF 4
