REMARK  Name = ZINC05348402
REMARK  3 active torsions:
REMARK  status: ('A' for Active; 'I' for Inactive)
REMARK    1  A    between atoms: C_3  and  C_6
REMARK    2  A    between atoms: C_11  and  O_29
REMARK    3  A    between atoms: C_19  and  C_24
REMARK                            x       y       z     vdW  Elec       q    Type
REMARK                         _______ _______ _______ _____ _____    ______ ____
ROOT
ATOM      1  C   UNL     1      -0.013   1.086   0.008  0.00  0.00    +0.127 C 
ATOM      2  C   UNL     1      -0.737   1.568   1.237  0.00  0.00    +0.010 A 
ATOM      3  C   UNL     1      -2.119   1.523   1.276  0.00  0.00    +0.012 A 
ATOM      4  C   UNL     1      -2.798   1.959   2.397  0.00  0.00    +0.046 A 
ATOM      5  C   UNL     1      -2.092   2.445   3.489  0.00  0.00    +0.120 A 
ATOM      6  C   UNL     1      -0.708   2.493   3.451  0.00  0.00    +0.092 A 
ATOM      7  C   UNL     1      -0.026   2.055   2.323  0.00  0.00    +0.138 A 
ATOM      8  O   UNL     1       1.327   2.110   2.303  0.00  0.00    -0.437 OA
ATOM      9  C   UNL     1       1.996   2.088   1.127  0.00  0.00    +0.230 A 
ATOM     10  C   UNL     1       1.394   1.601  -0.003  0.00  0.00    +0.073 A 
ATOM     11  C   UNL     1       2.160   1.604  -1.180  0.00  0.00    +0.167 A 
ATOM     12  N   UNL     1       1.908   1.219  -2.407  0.00  0.00    -0.206 NA
ATOM     13  C   UNL     1       2.987   1.433  -3.173  0.00  0.00    +0.189 A 
ATOM     14  N   UNL     1       3.953   1.965  -2.437  0.00  0.00    -0.143 NA
ATOM     15  N   UNL     1       3.455   2.090  -1.148  0.00  0.00    -0.201 N 
ATOM     16  C   UNL     1       3.992   2.565   0.004  0.00  0.00    +0.229 A 
ATOM     17  N   UNL     1       3.256   2.549   1.088  0.00  0.00    -0.201 NA
ENDROOT
BRANCH   1  20
ATOM     18  C   UNL     1      -1.849   1.683  -3.131  0.00  0.00    +0.041 A 
ATOM     19  C   UNL     1      -1.279   0.810  -2.176  0.00  0.00    +0.045 A 
ATOM     20  C   UNL     1      -0.735   1.582  -1.218  0.00  0.00    +0.117 A 
ATOM     21  O   UNL     1      -0.949   2.869  -1.537  0.00  0.00    -0.467 OA
ATOM     22  C   UNL     1      -1.619   2.936  -2.699  0.00  0.00    +0.195 A 
ENDBRANCH   1  20
BRANCH  13  23
ATOM     23  C   UNL     1       3.086   1.124  -4.616  0.00  0.00    +0.058 A 
ATOM     24  C   UNL     1       4.141   1.309  -5.468  0.00  0.00    +0.019 A 
ATOM     25  C   UNL     1       4.000   0.941  -6.787  0.00  0.00    +0.008 A 
ATOM     26  C   UNL     1       2.822   0.407  -7.202  0.00  0.00    +0.046 A 
ATOM     27  S   UNL     1       1.861   0.406  -5.698  0.00  0.00    -0.093 S 
ENDBRANCH  13  23
BRANCH   5  28
ATOM     28  O   UNL     1      -2.758   2.874   4.593  0.00  0.00    -0.507 OA
ATOM     29  H   UNL     1      -2.913   2.183   5.252  0.00  0.00    +0.292 HD
ENDBRANCH   5  28
TORSDOF 3
