REMARK  Name = ZINC22749084
REMARK  6 active torsions:
REMARK  status: ('A' for Active; 'I' for Inactive)
REMARK    1  A    between atoms: C_1  and  C_2
REMARK    2  A    between atoms: C_8  and  C_31
REMARK    3  A    between atoms: C_13  and  C_20
REMARK    4  A    between atoms: C_22  and  C_26
REMARK    5  A    between atoms: N_24  and  C_25
REMARK    6  A    between atoms: N_34  and  C_36
REMARK                            x       y       z     vdW  Elec       q    Type
REMARK                         _______ _______ _______ _____ _____    ______ ____
ROOT
ATOM      1  C   UNL     1      -0.018   1.503   0.010  0.00  0.00    +0.063 C 
ATOM      2  C   UNL     1       0.002  -0.004   0.002  0.00  0.00    +0.051 C 
ATOM      3  N   UNL     1       0.008  -0.775  -1.037  0.00  0.00    -0.155 NA
ATOM      4  N   UNL     1       0.056  -2.127  -0.698  0.00  0.00    -0.115 NA
ATOM      5  C   UNL     1       0.128  -2.303   0.571  0.00  0.00    +0.227 C 
ATOM      6  C   UNL     1       0.026  -0.917   1.205  0.00  0.00    +0.135 C 
ATOM      7  C   UNL     1       1.316  -0.741   2.012  0.00  0.00    +0.078 C 
ATOM      8  C   UNL     1       1.622  -2.018   2.746  0.00  0.00    +0.067 A 
ATOM      9  C   UNL     1       2.471  -1.983   3.870  0.00  0.00    +0.167 A 
ATOM     10  N   UNL     1       3.103  -1.004   4.471  0.00  0.00    -0.205 NA
ATOM     11  C   UNL     1       3.793  -1.491   5.512  0.00  0.00    +0.202 A 
ATOM     12  N   UNL     1       3.608  -2.801   5.590  0.00  0.00    -0.142 NA
ATOM     13  N   UNL     1       2.762  -3.152   4.548  0.00  0.00    -0.201 N 
ATOM     14  C   UNL     1       2.241  -4.338   4.145  0.00  0.00    +0.229 A 
ATOM     15  N   UNL     1       1.453  -4.345   3.098  0.00  0.00    -0.201 NA
ATOM     16  C   UNL     1       1.130  -3.245   2.399  0.00  0.00    +0.231 A 
ATOM     17  O   UNL     1       0.279  -3.403   1.335  0.00  0.00    -0.421 OA
ENDROOT
BRANCH  11  18
ATOM     18  C   UNL     1       4.631  -0.690   6.431  0.00  0.00    +0.126 A 
ATOM     19  C   UNL     1       4.832   0.661   6.375  0.00  0.00    +0.101 A 
ATOM     20  C   UNL     1       5.685   1.010   7.423  0.00  0.00    +0.184 A 
ATOM     21  N   UNL     1       5.992  -0.073   8.091  0.00  0.00    -0.165 NA
ATOM     22  N   UNL     1       5.341  -1.162   7.496  0.00  0.00    -0.262 N 
ATOM     23  C   UNL     1       5.413  -2.557   7.937  0.00  0.00    +0.173 C 
ATOM     24 CL   UNL     1       4.149   1.748   5.208  0.00  0.00    -0.079 Cl
BRANCH  20  25
ATOM     25  C   UNL     1       6.171   2.402   7.735  0.00  0.00    +0.437 C 
ATOM     26  F   UNL     1       5.279   3.021   8.617  0.00  0.00    -0.164 F 
ATOM     27  F   UNL     1       7.437   2.332   8.325  0.00  0.00    -0.164 F 
ATOM     28  F   UNL     1       6.248   3.144   6.551  0.00  0.00    -0.164 F 
ENDBRANCH  20  25
ENDBRANCH  11  18
BRANCH   7  29
ATOM     29  C   UNL     1       1.140   0.381   3.003  0.00  0.00    -0.001 A 
ATOM     30  C   UNL     1       0.191   0.430   4.029  0.00  0.00    +0.138 A 
ATOM     31  N   UNL     1       0.348   1.556   4.677  0.00  0.00    -0.180 NA
ATOM     32  N   UNL     1       1.403   2.260   4.083  0.00  0.00    -0.274 N 
ATOM     33  C   UNL     1       1.876   1.515   3.061  0.00  0.00    +0.112 A 
ATOM     34  C   UNL     1       1.909   3.570   4.500  0.00  0.00    +0.172 C 
ENDBRANCH   7  29
TORSDOF 3
