REMARK  Name = ZINC44167389
REMARK  9 active torsions:
REMARK  status: ('A' for Active; 'I' for Inactive)
REMARK    1  A    between atoms: C_1  and  O_2
REMARK    2  A    between atoms: O_2  and  C_3
REMARK    3  A    between atoms: C_6  and  O_30
REMARK    4  A    between atoms: C_7  and  C_9
REMARK    5  A    between atoms: C_14  and  C_17
REMARK    6  A    between atoms: N_19  and  C_20
REMARK    7  A    between atoms: C_20  and  C_21
REMARK    8  A    between atoms: C_21  and  C_22
REMARK    9  A    between atoms: O_30  and  C_31
REMARK                            x       y       z     vdW  Elec       q    Type
REMARK                         _______ _______ _______ _____ _____    ______ ____
ROOT
ATOM      1  C   UNL     1      -2.519  -4.151  -0.015  0.00  0.00    -0.026 C 
ATOM      2  C   UNL     1      -2.791  -4.629   1.416  0.00  0.00    +0.058 C 
ATOM      3  S   UNL     1      -2.939  -6.443   1.393  0.00  0.00    -0.163 S 
ATOM      4  C   UNL     1      -1.455  -6.952   0.472  0.00  0.00    +0.062 C 
ATOM      5  C   UNL     1      -1.383  -6.127  -0.818  0.00  0.00    +0.027 C 
ATOM      6  N   UNL     1      -1.250  -4.705  -0.491  0.00  0.00    +0.392 N 
ATOM      7  H   UNL     1      -0.958  -4.203  -1.315  0.00  0.00    -0.084 HD
ATOM      8  H   UNL     1      -0.551  -4.594   0.228  0.00  0.00    -0.084 HD
ENDROOT
BRANCH   1  13
ATOM      9  C   UNL     1      -1.153  -0.628  -0.068  0.00  0.00    +0.121 A 
ATOM     10  C   UNL     1      -2.319   0.122  -0.073  0.00  0.00    +0.049 A 
ATOM     11  C   UNL     1      -3.547  -0.510  -0.058  0.00  0.00    +0.049 A 
ATOM     12  C   UNL     1      -3.614  -1.896  -0.039  0.00  0.00    +0.122 A 
ATOM     13  C   UNL     1      -2.447  -2.646  -0.035  0.00  0.00    -0.015 A 
ATOM     14  C   UNL     1      -1.219  -2.014  -0.056  0.00  0.00    +0.051 A 
BRANCH   9  16
ATOM     15  C   UNL     1       0.050   1.423  -0.095  0.00  0.00    +0.277 C 
ATOM     16  O   UNL     1       0.056  -0.006  -0.083  0.00  0.00    -0.495 OA
ENDBRANCH   9  16
BRANCH  12  17
ATOM     17  O   UNL     1      -4.822  -2.518  -0.024  0.00  0.00    -0.495 OA
ATOM     18  C   UNL     1      -5.982  -1.683  -0.028  0.00  0.00    +0.277 C 
ENDBRANCH  12  17
ENDBRANCH   1  13
BRANCH   5  19
ATOM     19  C   UNL     1      -2.641  -6.341  -1.620  0.00  0.00    +0.200 C 
ATOM     20  O   UNL     1      -3.121  -5.423  -2.252  0.00  0.00    -0.278 OA
ATOM     21  N   UNL     1      -3.233  -7.551  -1.635  0.00  0.00    -0.316 N 
ATOM     22  H   UNL     1      -2.849  -8.285  -1.129  0.00  0.00    +0.149 HD
BRANCH  21  23
ATOM     23  C   UNL     1      -4.456  -7.759  -2.414  0.00  0.00    +0.109 C 
BRANCH  23  24
ATOM     24  C   UNL     1      -4.918  -9.210  -2.261  0.00  0.00    +0.055 C 
BRANCH  24  25
ATOM     25  C   UNL     1      -6.176  -9.423  -3.063  0.00  0.00    -0.027 A 
ATOM     26  C   UNL     1      -7.412  -9.306  -2.454  0.00  0.00    +0.006 A 
ATOM     27  C   UNL     1      -8.566  -9.502  -3.188  0.00  0.00    +0.020 A 
ATOM     28  C   UNL     1      -8.485  -9.815  -4.534  0.00  0.00    +0.042 A 
ATOM     29  C   UNL     1      -7.250  -9.932  -5.144  0.00  0.00    +0.040 A 
ATOM     30  C   UNL     1      -6.095  -9.731  -4.409  0.00  0.00    +0.046 A 
ATOM     31 CL   UNL     1      -4.543  -9.871  -5.175  0.00  0.00    -0.083 Cl
ATOM     32 CL   UNL     1      -9.935 -10.061  -5.456  0.00  0.00    -0.083 Cl
ENDBRANCH  24  25
ENDBRANCH  23  24
ENDBRANCH  21  23
ENDBRANCH   5  19
TORSDOF 7
