REMARK  Name = ZINC66222979
REMARK  6 active torsions:
REMARK  status: ('A' for Active; 'I' for Inactive)
REMARK    1  A    between atoms: C_1  and  C_2
REMARK    2  A    between atoms: C_2  and  O_3
REMARK    3  A    between atoms: O_3  and  C_4
REMARK    4  A    between atoms: C_7  and  N_11
REMARK    5  A    between atoms: C_12  and  C_14
REMARK    6  A    between atoms: C_19  and  N_22
REMARK                            x       y       z     vdW  Elec       q    Type
REMARK                         _______ _______ _______ _____ _____    ______ ____
ROOT
ATOM      1  N   UNL     1       1.102  -5.938  -1.832  0.00  0.00    -0.278 N 
ATOM      2  C   UNL     1       1.635  -6.441  -2.963  0.00  0.00    +0.303 C 
ATOM      3  O   UNL     1       2.103  -5.695  -3.798  0.00  0.00    -0.265 OA
ATOM      4  H   UNL     1       0.797  -6.535  -1.132  0.00  0.00    +0.155 HD
ENDROOT
BRANCH   1   8
ATOM      5  C   UNL     1       0.763  -1.811  -1.344  0.00  0.00    +0.156 A 
ATOM      6  C   UNL     1       1.008  -2.622  -0.246  0.00  0.00    +0.050 A 
ATOM      7  C   UNL     1       1.120  -3.989  -0.407  0.00  0.00    +0.027 A 
ATOM      8  C   UNL     1       0.987  -4.553  -1.669  0.00  0.00    +0.037 A 
ATOM      9  C   UNL     1       0.742  -3.742  -2.770  0.00  0.00    +0.065 A 
ATOM     10  C   UNL     1       0.624  -2.374  -2.607  0.00  0.00    +0.167 A 
ATOM     11  F   UNL     1       0.380  -1.585  -3.675  0.00  0.00    -0.202 F 
BRANCH   5  12
ATOM     12  O   UNL     1       0.653  -0.465  -1.184  0.00  0.00    -0.489 OA
BRANCH  12  14
ATOM     13  C   UNL     1       0.651   1.567   0.123  0.00  0.00    +0.048 C 
ATOM     14  C   UNL     1       0.807   0.045   0.141  0.00  0.00    +0.226 C 
ENDBRANCH  12  14
ENDBRANCH   5  12
ENDBRANCH   1   8
BRANCH   2  15
ATOM     15  C   UNL     1       1.650  -7.917  -3.188  0.00  0.00    +0.302 C 
ATOM     16  O   UNL     1       1.181  -8.664  -2.354  0.00  0.00    -0.265 OA
ATOM     17  N   UNL     1       2.183  -8.421  -4.319  0.00  0.00    -0.295 N 
ATOM     18  C   UNL     1       2.787  -7.636  -5.405  0.00  0.00    +0.106 C 
ATOM     19  C   UNL     1       3.236  -8.632  -6.496  0.00  0.00    +0.005 C 
ATOM     20  C   UNL     1       2.349  -9.874  -6.217  0.00  0.00    -0.049 C 
ATOM     21  C   UNL     1       2.263  -9.851  -4.668  0.00  0.00    +0.093 C 
BRANCH  20  22
ATOM     22  N   UNL     1       3.002 -11.103  -6.688  0.00  0.00    +0.383 N 
ATOM     23  C   UNL     1       2.103 -12.269  -6.492  0.00  0.00    -0.078 C 
ATOM     24  C   UNL     1       2.648 -13.311  -7.500  0.00  0.00    -0.020 C 
ATOM     25  C   UNL     1       3.049 -12.441  -8.714  0.00  0.00    -0.020 C 
ATOM     26  C   UNL     1       3.248 -11.024  -8.145  0.00  0.00    -0.078 C 
ATOM     27  H   UNL     1       3.871 -11.246  -6.196  0.00  0.00    -0.081 HD
ENDBRANCH  20  22
ENDBRANCH   2  15
TORSDOF 5
