REMARK  Name = ZINC60364056
REMARK  19 active torsions:
REMARK  status: ('A' for Active; 'I' for Inactive)
REMARK    1  A    between atoms: C_1  and  C_2
REMARK    2  A    between atoms: C_2  and  C_3
REMARK    3  A    between atoms: C_3  and  O_4
REMARK    4  A    between atoms: O_4  and  C_5
REMARK    5  A    between atoms: C_8  and  C_15
REMARK    6  A    between atoms: C_10  and  O_11
REMARK    7  A    between atoms: O_11  and  C_12
REMARK    8  A    between atoms: C_12  and  C_13
REMARK    9  A    between atoms: C_13  and  C_14
REMARK   10  A    between atoms: C_15  and  C_17
REMARK   11  A    between atoms: C_15  and  N_18
REMARK   12  A    between atoms: C_19  and  C_21
REMARK   13  A    between atoms: C_21  and  C_22
REMARK   14  A    between atoms: C_22  and  C_23
REMARK   15  A    between atoms: C_23  and  C_24
REMARK   16  A    between atoms: N_26  and  C_27
REMARK   17  A    between atoms: N_26  and  C_29
REMARK   18  A    between atoms: C_27  and  C_28
REMARK   19  A    between atoms: C_29  and  C_30
REMARK                            x       y       z     vdW  Elec       q    Type
REMARK                         _______ _______ _______ _____ _____    ______ ____
ROOT
ATOM      1  C   UNL     1       3.243  -4.423  -5.653  0.00  0.00    +0.100 C 
ATOM      2  C   UNL     1       4.759  -4.417  -5.446  0.00  0.00    +0.033 C 
ENDROOT
BRANCH   1   6
ATOM      3  C   UNL     1       1.342  -2.530  -2.323  0.00  0.00    +0.162 A 
ATOM      4  C   UNL     1       1.908  -1.763  -3.329  0.00  0.00    +0.050 A 
ATOM      5  C   UNL     1       2.522  -2.378  -4.404  0.00  0.00    +0.009 A 
ATOM      6  C   UNL     1       2.573  -3.758  -4.479  0.00  0.00    -0.024 A 
ATOM      7  C   UNL     1       2.009  -4.529  -3.479  0.00  0.00    +0.055 A 
ATOM      8  C   UNL     1       1.397  -3.918  -2.396  0.00  0.00    +0.162 A 
BRANCH   3   9
ATOM      9  O   UNL     1       0.738  -1.926  -1.265  0.00  0.00    -0.488 OA
BRANCH   9  10
ATOM     10  C   UNL     1       0.718  -0.497  -1.257  0.00  0.00    +0.229 C 
BRANCH  10  12
ATOM     11  C   UNL     1      -0.019   1.526   0.010  0.00  0.00    +0.007 C 
ATOM     12  C   UNL     1       0.002  -0.004   0.002  0.00  0.00    +0.038 C 
ENDBRANCH  10  12
ENDBRANCH   9  10
ENDBRANCH   3   9
BRANCH   8  13
ATOM     13  O   UNL     1       0.847  -4.675  -1.408  0.00  0.00    -0.488 OA
BRANCH  13  14
ATOM     14  C   UNL     1       0.942  -6.094  -1.549  0.00  0.00    +0.229 C 
BRANCH  14  15
ATOM     15  C   UNL     1       0.273  -6.771  -0.352  0.00  0.00    +0.038 C 
ATOM     16  C   UNL     1       0.374  -8.290  -0.503  0.00  0.00    +0.007 C 
ENDBRANCH  14  15
ENDBRANCH  13  14
ENDBRANCH   8  13
ENDBRANCH   1   6
BRANCH   1  17
ATOM     17  N   UNL     1       2.915  -3.694  -6.880  0.00  0.00    -0.309 N 
ATOM     18  C   UNL     1       2.950  -4.326  -8.070  0.00  0.00    +0.213 C 
ATOM     19  O   UNL     1       3.254  -5.499  -8.125  0.00  0.00    -0.276 OA
ATOM     20  H   UNL     1       2.672  -2.756  -6.837  0.00  0.00    +0.149 HD
BRANCH  18  21
ATOM     21  C   UNL     1       2.612  -3.575  -9.333  0.00  0.00    +0.096 C 
BRANCH  21  22
ATOM     22  C   UNL     1       2.728  -4.518 -10.533  0.00  0.00    +0.018 C 
BRANCH  22  23
ATOM     23  C   UNL     1       2.386  -3.756 -11.814  0.00  0.00    +0.096 C 
BRANCH  23  24
ATOM     24  C   UNL     1       2.500  -4.684 -12.996  0.00  0.00    +0.216 C 
ATOM     25  O   UNL     1       2.824  -5.840 -12.830  0.00  0.00    -0.276 OA
ATOM     26  N   UNL     1       2.242  -4.228 -14.238  0.00  0.00    -0.302 N 
BRANCH  26  27
ATOM     27  C   UNL     1       1.851  -2.830 -14.439  0.00  0.00    +0.104 C 
ATOM     28  C   UNL     1       3.102  -1.978 -14.662  0.00  0.00    +0.024 C 
ENDBRANCH  26  27
BRANCH  26  29
ATOM     29  C   UNL     1       2.353  -5.130 -15.387  0.00  0.00    +0.104 C 
ATOM     30  C   UNL     1       1.005  -5.810 -15.634  0.00  0.00    +0.024 C 
ENDBRANCH  26  29
ENDBRANCH  23  24
ENDBRANCH  22  23
ENDBRANCH  21  22
ENDBRANCH  18  21
ENDBRANCH   1  17
TORSDOF 14
