REMARK  Name = ZINC40578483
REMARK  4 active torsions:
REMARK  status: ('A' for Active; 'I' for Inactive)
REMARK    1  A    between atoms: C_1  and  C_2
REMARK    2  A    between atoms: C_2  and  C_4
REMARK    3  A    between atoms: C_2  and  N_7
REMARK    4  A    between atoms: C_20  and  C_22
REMARK                            x       y       z     vdW  Elec       q    Type
REMARK                         _______ _______ _______ _____ _____    ______ ____
ROOT
ATOM      1  N   UNL     1      -1.372  -0.511   0.012  0.00  0.00    -0.288 N 
ATOM      2  C   UNL     1      -2.029  -0.655   1.181  0.00  0.00    +0.304 C 
ATOM      3  O   UNL     1      -1.480  -0.364   2.226  0.00  0.00    -0.253 OA
ATOM      4  N   UNL     1      -3.293  -1.122   1.190  0.00  0.00    -0.269 N 
ATOM      5  C   UNL     1      -4.129  -1.326   2.362  0.00  0.00    +0.082 C 
ATOM      6  C   UNL     1      -3.924  -0.402   3.544  0.00  0.00    +0.023 C 
ATOM      7  C   UNL     1      -4.894  -0.850   4.650  0.00  0.00    +0.002 C 
ATOM      8  C   UNL     1      -6.339  -0.834   4.162  0.00  0.00    +0.000 C 
ATOM      9  C   UNL     1      -6.513  -1.676   2.888  0.00  0.00    +0.005 C 
ATOM     10  C   UNL     1      -5.573  -1.086   1.843  0.00  0.00    +0.012 C 
ATOM     11  C   UNL     1      -5.519  -1.865   0.519  0.00  0.00    +0.039 C 
ATOM     12  C   UNL     1      -4.095  -1.517   0.008  0.00  0.00    +0.191 C 
ATOM     13  H   UNL     1      -1.810  -0.743  -0.822  0.00  0.00    +0.151 HD
ENDROOT
BRANCH  12  14
ATOM     14  C   UNL     1      -3.479  -2.726  -0.649  0.00  0.00    +0.376 C 
ATOM     15  O   UNL     1      -2.562  -3.316  -0.103  0.00  0.00    -0.244 OA
ATOM     16  O   UNL     1      -3.898  -3.114  -1.726  0.00  0.00    -0.244 OA
ENDBRANCH  12  14
BRANCH   1  18
ATOM     17  C   UNL     1      -0.019   1.526   0.010  0.00  0.00    +0.038 C 
ATOM     18  C   UNL     1       0.002  -0.004   0.002  0.00  0.00    +0.157 C 
BRANCH  18  19
ATOM     19  C   UNL     1       0.707  -0.490  -1.238  0.00  0.00    +0.231 C 
ATOM     20  O   UNL     1       0.120  -1.191  -2.034  0.00  0.00    -0.274 OA
ATOM     21  N   UNL     1       1.991  -0.146  -1.462  0.00  0.00    -0.328 N 
ATOM     22  H   UNL     1       2.461   0.415  -0.825  0.00  0.00    +0.145 HD
ATOM     23  H   UNL     1       2.445  -0.459  -2.260  0.00  0.00    +0.145 HD
ENDBRANCH  18  19
ENDBRANCH   1  18
TORSDOF 3
