REMARK  Name = ZINC39873731
REMARK  8 active torsions:
REMARK  status: ('A' for Active; 'I' for Inactive)
REMARK    1  A    between atoms: C_1  and  C_2
REMARK    2  A    between atoms: C_2  and  O_3
REMARK    3  A    between atoms: O_3  and  C_4
REMARK    4  A    between atoms: C_7  and  C_12
REMARK    5  A    between atoms: C_9  and  O_10
REMARK    6  A    between atoms: O_10  and  C_11
REMARK    7  A    between atoms: N_27  and  C_28
REMARK    8  A    between atoms: C_31  and  C_35
REMARK                            x       y       z     vdW  Elec       q    Type
REMARK                         _______ _______ _______ _____ _____    ______ ____
ROOT
ATOM      1  C   UNL     1      -1.996  -6.097  -0.011  0.00  0.00    +0.150 C 
ATOM      2  C   UNL     1      -1.762  -6.637  -1.383  0.00  0.00    +0.072 A 
ATOM      3  C   UNL     1      -2.455  -6.388  -2.651  0.00  0.00    +0.199 A 
ATOM      4  O   UNL     1      -3.285  -5.508  -2.796  0.00  0.00    -0.287 OA
ATOM      5  C   UNL     1      -2.047  -7.309  -3.742  0.00  0.00    +0.066 A 
ATOM      6  C   UNL     1      -2.752  -7.333  -4.946  0.00  0.00    +0.035 A 
ATOM      7  C   UNL     1      -2.363  -8.198  -5.946  0.00  0.00    +0.042 A 
ATOM      8  C   UNL     1      -1.275  -9.040  -5.752  0.00  0.00    +0.023 A 
ATOM      9  C   UNL     1      -0.572  -9.024  -4.569  0.00  0.00    +0.048 A 
ATOM     10  C   UNL     1      -0.944  -8.155  -3.543  0.00  0.00    +0.140 A 
ATOM     11  O   UNL     1      -0.229  -8.153  -2.395  0.00  0.00    -0.450 OA
ATOM     12  C   UNL     1      -0.703  -7.498  -1.317  0.00  0.00    +0.199 A 
ATOM     13  C   UNL     1      -0.233  -7.545   0.078  0.00  0.00    +0.287 C 
ATOM     14  O   UNL     1       0.695  -8.220   0.478  0.00  0.00    -0.266 OA
ATOM     15  N   UNL     1      -0.983  -6.729   0.849  0.00  0.00    -0.253 N 
ATOM     16 CL   UNL     1      -3.233  -8.235  -7.447  0.00  0.00    -0.084 Cl
ENDROOT
BRANCH  15  17
ATOM     17  C   UNL     1      -0.826  -6.520   2.223  0.00  0.00    +0.039 A 
ATOM     18  C   UNL     1      -1.676  -5.652   2.897  0.00  0.00    +0.024 A 
ATOM     19  C   UNL     1      -1.518  -5.448   4.253  0.00  0.00    +0.006 A 
ATOM     20  C   UNL     1      -0.515  -6.106   4.941  0.00  0.00    -0.032 A 
ATOM     21  C   UNL     1       0.334  -6.971   4.274  0.00  0.00    +0.046 A 
ATOM     22  C   UNL     1       0.177  -7.184   2.917  0.00  0.00    +0.043 A 
ATOM     23 CL   UNL     1       1.592  -7.793   5.142  0.00  0.00    -0.083 Cl
ATOM     24  C   UNL     1      -0.346  -5.880   6.422  0.00  0.00    +0.045 C 
ENDBRANCH  15  17
BRANCH   1  28
ATOM     25  C   UNL     1      -1.498  -1.849   0.006  0.00  0.00    +0.162 A 
ATOM     26  C   UNL     1      -0.389  -2.680  -0.003  0.00  0.00    +0.050 A 
ATOM     27  C   UNL     1      -0.553  -4.052  -0.008  0.00  0.00    +0.009 A 
ATOM     28  C   UNL     1      -1.823  -4.600  -0.005  0.00  0.00    -0.018 A 
ATOM     29  C   UNL     1      -2.934  -3.777   0.004  0.00  0.00    +0.055 A 
ATOM     30  C   UNL     1      -2.776  -2.400   0.016  0.00  0.00    +0.162 A 
BRANCH  30  31
ATOM     31  O   UNL     1      -3.868  -1.589   0.030  0.00  0.00    -0.491 OA
ATOM     32  C   UNL     1      -5.148  -2.225   0.039  0.00  0.00    +0.277 C 
ENDBRANCH  30  31
BRANCH  25  33
ATOM     33  O   UNL     1      -1.339  -0.499   0.012  0.00  0.00    -0.489 OA
BRANCH  33  35
ATOM     34  C   UNL     1      -0.019   1.526   0.010  0.00  0.00    +0.048 C 
ATOM     35  C   UNL     1       0.002  -0.004   0.002  0.00  0.00    +0.226 C 
ENDBRANCH  33  35
ENDBRANCH  25  33
ENDBRANCH   1  28
TORSDOF 5
