REMARK  Name = ZINC45187379
REMARK  7 active torsions:
REMARK  status: ('A' for Active; 'I' for Inactive)
REMARK    1  A    between atoms: C_1  and  N_2
REMARK    2  A    between atoms: C_11  and  C_16
REMARK    3  A    between atoms: C_16  and  C_17
REMARK    4  A    between atoms: C_17  and  N_18
REMARK    5  A    between atoms: C_21  and  N_24
REMARK    6  A    between atoms: N_24  and  C_25
REMARK    7  A    between atoms: C_25  and  C_26
REMARK                            x       y       z     vdW  Elec       q    Type
REMARK                         _______ _______ _______ _____ _____    ______ ____
ROOT
ATOM      1  N   UNL     1      -1.339  -5.225   2.191  0.00  0.00    -0.302 NA
ATOM      2  C   UNL     1      -0.822  -4.062   2.925  0.00  0.00    +0.083 C 
ATOM      3  C   UNL     1      -0.678  -4.416   4.407  0.00  0.00    -0.000 C 
ATOM      4  C   UNL     1      -2.043  -4.829   4.963  0.00  0.00    -0.069 C 
ATOM      5  C   UNL     1      -2.581  -6.010   4.151  0.00  0.00    -0.000 C 
ATOM      6  C   UNL     1      -2.671  -5.610   2.676  0.00  0.00    +0.083 C 
ENDROOT
BRANCH   4   7
ATOM      7  N   UNL     1      -1.900  -5.226   6.371  0.00  0.00    +0.385 N 
ATOM      8  H   UNL     1      -1.327  -6.054   6.430  0.00  0.00    -0.085 HD
ATOM      9  H   UNL     1      -1.464  -4.477   6.888  0.00  0.00    -0.085 HD
BRANCH   7  10
ATOM     10  C   UNL     1      -3.226  -5.506   6.937  0.00  0.00    -0.026 C 
BRANCH  10  11
ATOM     11  C   UNL     1      -3.079  -5.914   8.381  0.00  0.00    +0.025 A 
ATOM     12  C   UNL     1      -3.222  -4.965   9.380  0.00  0.00    +0.028 A 
ATOM     13  C   UNL     1      -3.086  -5.357  10.695  0.00  0.00    +0.001 A 
ATOM     14  C   UNL     1      -2.817  -6.690  10.989  0.00  0.00    +0.142 A 
ATOM     15  C   UNL     1      -2.683  -7.580   9.928  0.00  0.00    +0.156 A 
ATOM     16  N   UNL     1      -2.821  -7.171   8.683  0.00  0.00    -0.258 NA
ATOM     17  O   UNL     1      -2.739  -6.891  12.331  0.00  0.00    -0.490 OA
ATOM     18  C   UNL     1      -2.517  -5.630  12.987  0.00  0.00    +0.234 C 
ATOM     19  C   UNL     1      -3.163  -4.616  12.012  0.00  0.00    +0.080 C 
ENDBRANCH  10  11
ENDBRANCH   7  10
ENDBRANCH   4   7
BRANCH   1  20
ATOM     20  C   UNL     1      -1.360  -4.967   0.745  0.00  0.00    +0.089 C 
BRANCH  20  21
ATOM     21  C   UNL     1       0.071  -4.969   0.206  0.00  0.00    +0.052 C 
BRANCH  21  32
ATOM     22  C   UNL     1      -1.154 -10.365  -3.017  0.00  0.00    +0.173 C 
ATOM     23  N   UNL     1      -0.871  -9.104  -2.327  0.00  0.00    -0.267 N 
ATOM     24  C   UNL     1      -0.672  -7.888  -2.924  0.00  0.00    +0.069 A 
ATOM     25  C   UNL     1      -0.667  -7.459  -4.259  0.00  0.00    +0.030 A 
ATOM     26  C   UNL     1      -0.436  -6.167  -4.589  0.00  0.00    +0.030 A 
ATOM     27  C   UNL     1      -0.191  -5.192  -3.599  0.00  0.00    +0.072 A 
ATOM     28  C   UNL     1      -0.185  -5.572  -2.237  0.00  0.00    +0.016 A 
ATOM     29  C   UNL     1      -0.435  -6.970  -1.891  0.00  0.00    +0.029 A 
ATOM     30  C   UNL     1      -0.501  -7.681  -0.677  0.00  0.00    +0.143 A 
ATOM     31  N   UNL     1      -0.762  -8.931  -0.941  0.00  0.00    -0.179 NA
ATOM     32  C   UNL     1       0.058  -4.604  -1.256  0.00  0.00    -0.017 A 
ATOM     33  C   UNL     1       0.283  -3.314  -1.662  0.00  0.00    +0.063 A 
ATOM     34  C   UNL     1       0.265  -3.004  -3.019  0.00  0.00    +0.131 A 
ATOM     35  N   UNL     1       0.036  -3.918  -3.932  0.00  0.00    -0.253 NA
ATOM     36 CL   UNL     1       0.590  -2.072  -0.489  0.00  0.00    -0.082 Cl
ENDBRANCH  21  32
ENDBRANCH  20  21
ENDBRANCH   1  20
TORSDOF 6
