REMARK  Name = ZINC66226327
REMARK  9 active torsions:
REMARK  status: ('A' for Active; 'I' for Inactive)
REMARK    1  A    between atoms: C_1  and  C_2
REMARK    2  A    between atoms: C_2  and  C_3
REMARK    3  A    between atoms: C_2  and  C_4
REMARK    4  A    between atoms: C_4  and  O_5
REMARK    5  A    between atoms: O_5  and  C_6
REMARK    6  A    between atoms: C_9  and  N_12
REMARK    7  A    between atoms: N_12  and  C_13
REMARK    8  A    between atoms: C_13  and  C_14
REMARK    9  A    between atoms: N_16  and  C_17
REMARK                            x       y       z     vdW  Elec       q    Type
REMARK                         _______ _______ _______ _____ _____    ______ ____
ROOT
ATOM      1  N   UNL     1       5.273  -1.570  -5.485  0.00  0.00    -0.335 N 
ATOM      2  H   UNL     1       4.894  -2.078  -6.220  0.00  0.00    +0.147 HD
ENDROOT
BRANCH   1   6
ATOM      3  C   UNL     1       2.869  -0.443  -2.272  0.00  0.00    +0.121 A 
ATOM      4  C   UNL     1       2.326  -1.169  -3.322  0.00  0.00    +0.047 A 
ATOM      5  C   UNL     1       3.122  -1.542  -4.388  0.00  0.00    +0.026 A 
ATOM      6  C   UNL     1       4.466  -1.192  -4.407  0.00  0.00    +0.028 A 
ATOM      7  C   UNL     1       5.008  -0.466  -3.354  0.00  0.00    +0.026 A 
ATOM      8  C   UNL     1       4.209  -0.088  -2.293  0.00  0.00    +0.047 A 
BRANCH   3   9
ATOM      9  O   UNL     1       2.084  -0.076  -1.224  0.00  0.00    -0.492 OA
BRANCH   9  10
ATOM     10  C   UNL     1       0.713  -0.476  -1.268  0.00  0.00    +0.232 C 
BRANCH  10  12
ATOM     11  C   UNL     1      -0.029   1.555  -0.015  0.00  0.00    +0.010 C 
ATOM     12  C   UNL     1      -0.005   0.025  -0.013  0.00  0.00    +0.020 C 
ATOM     13  C   UNL     1      -1.439  -0.508   0.001  0.00  0.00    +0.010 C 
ENDBRANCH  10  12
ENDBRANCH   9  10
ENDBRANCH   3   9
ENDBRANCH   1   6
BRANCH   1  14
ATOM     14  C   UNL     1       6.690  -1.200  -5.505  0.00  0.00    +0.198 C 
BRANCH  14  15
ATOM     15  C   UNL     1       7.329  -1.725  -6.765  0.00  0.00    +0.234 C 
ATOM     16  O   UNL     1       6.666  -2.346  -7.568  0.00  0.00    -0.274 OA
ATOM     17  N   UNL     1       8.638  -1.503  -7.000  0.00  0.00    -0.284 N 
ATOM     18  H   UNL     1       9.152  -0.949  -6.392  0.00  0.00    +0.155 HD
BRANCH  17  19
ATOM     19  C   UNL     1       9.253  -2.071  -8.121  0.00  0.00    +0.033 A 
ATOM     20  C   UNL     1      10.572  -2.500  -8.047  0.00  0.00    +0.024 A 
ATOM     21  C   UNL     1      11.177  -3.061  -9.155  0.00  0.00    +0.017 A 
ATOM     22  C   UNL     1      10.471  -3.195 -10.337  0.00  0.00    +0.018 A 
ATOM     23  C   UNL     1       9.157  -2.768 -10.413  0.00  0.00    +0.017 A 
ATOM     24  C   UNL     1       8.545  -2.212  -9.307  0.00  0.00    +0.024 A 
ATOM     25 BR   UNL     1      11.303  -3.963 -11.851  0.00  0.00    -0.050 Br
ENDBRANCH  17  19
ENDBRANCH  14  15
ENDBRANCH   1  14
TORSDOF 7
