REMARK  Name = ZINC21928309
REMARK  6 active torsions:
REMARK  status: ('A' for Active; 'I' for Inactive)
REMARK    1  A    between atoms: C_4  and  N_8
REMARK    2  A    between atoms: C_9  and  C_11
REMARK    3  A    between atoms: C_11  and  S_12
REMARK    4  A    between atoms: S_12  and  C_13
REMARK    5  A    between atoms: N_23  and  C_24
REMARK    6  A    between atoms: C_24  and  C_25
REMARK                            x       y       z     vdW  Elec       q    Type
REMARK                         _______ _______ _______ _____ _____    ______ ____
ROOT
ATOM      1  C   UNL     1      -3.050   3.302  -2.750  0.00  0.00    +0.173 A 
ATOM      2  N   UNL     1      -3.389   3.723  -1.556  0.00  0.00    -0.223 NA
ATOM      3  C   UNL     1      -4.570   4.346  -1.335  0.00  0.00    +0.080 A 
ATOM      4  C   UNL     1      -4.931   4.800  -0.063  0.00  0.00    +0.048 A 
ATOM      5  C   UNL     1      -6.146   5.424   0.115  0.00  0.00    +0.043 A 
ATOM      6  C   UNL     1      -7.017   5.607  -0.954  0.00  0.00    +0.021 A 
ATOM      7  C   UNL     1      -6.686   5.171  -2.206  0.00  0.00    +0.017 A 
ATOM      8  C   UNL     1      -5.462   4.536  -2.415  0.00  0.00    +0.065 A 
ATOM      9  C   UNL     1      -5.059   4.049  -3.741  0.00  0.00    +0.263 A 
ATOM     10  O   UNL     1      -5.783   4.184  -4.710  0.00  0.00    -0.267 OA
ATOM     11  N   UNL     1      -3.852   3.446  -3.846  0.00  0.00    -0.280 N 
ATOM     12 CL   UNL     1      -6.596   5.990   1.694  0.00  0.00    -0.083 Cl
ENDROOT
BRANCH   1  13
ATOM     13  S   UNL     1      -1.490   2.507  -2.949  0.00  0.00    -0.078 S 
BRANCH  13  14
ATOM     14  C   UNL     1      -0.877   2.588  -1.248  0.00  0.00    +0.173 C 
BRANCH  14  16
ATOM     15  N   UNL     1       1.143   1.898   0.001  0.00  0.00    -0.282 N 
ATOM     16  C   UNL     1       0.486   1.949  -1.174  0.00  0.00    +0.228 C 
ATOM     17  O   UNL     1       0.992   1.484  -2.173  0.00  0.00    -0.275 OA
ATOM     18  H   UNL     1       0.722   2.392   0.889  0.00  0.00    +0.155 HD
BRANCH  15  22
ATOM     19  C   UNL     1       4.777  -0.126   0.271  0.00  0.00    +0.003 A 
ATOM     20  C   UNL     1       4.760   1.223  -0.033  0.00  0.00    +0.022 A 
ATOM     21  C   UNL     1       3.557   1.897  -0.123  0.00  0.00    +0.064 A 
ATOM     22  C   UNL     1       2.364   1.218   0.092  0.00  0.00    +0.070 A 
ATOM     23  C   UNL     1       2.385  -0.136   0.402  0.00  0.00    +0.064 A 
ATOM     24  C   UNL     1       3.592  -0.805   0.486  0.00  0.00    +0.022 A 
ATOM     25 CL   UNL     1       0.898  -0.988   0.678  0.00  0.00    -0.082 Cl
ATOM     26 CL   UNL     1       3.537   3.591  -0.504  0.00  0.00    -0.082 Cl
ENDBRANCH  15  22
ENDBRANCH  14  16
ENDBRANCH  13  14
ENDBRANCH   1  13
BRANCH  11  27
ATOM     27  C   UNL     1      -3.402   2.942  -5.146  0.00  0.00    +0.201 C 
BRANCH  27  28
ATOM     28  C   UNL     1      -3.853   1.514  -5.314  0.00  0.00    +0.125 A 
ATOM     29  C   UNL     1      -5.019   1.115  -5.853  0.00  0.00    +0.046 A 
ATOM     30  C   UNL     1      -5.025  -0.299  -5.815  0.00  0.00    +0.041 A 
ATOM     31  C   UNL     1      -3.866  -0.679  -5.248  0.00  0.00    +0.195 A 
ATOM     32  O   UNL     1      -3.160   0.423  -4.947  0.00  0.00    -0.466 OA
ENDBRANCH  27  28
ENDBRANCH  11  27
TORSDOF 6
