REMARK  Name = ZINC55321455
REMARK  6 active torsions:
REMARK  status: ('A' for Active; 'I' for Inactive)
REMARK    1  A    between atoms: C_1  and  C_2
REMARK    2  A    between atoms: C_2  and  C_3
REMARK    3  A    between atoms: C_2  and  C_4
REMARK    4  A    between atoms: C_2  and  C_5
REMARK    5  A    between atoms: C_7  and  N_11
REMARK    6  A    between atoms: C_12  and  C_14
REMARK                            x       y       z     vdW  Elec       q    Type
REMARK                         _______ _______ _______ _____ _____    ______ ____
ROOT
ATOM      1  N   UNL     1       3.570  -1.163  -3.287  0.00  0.00    -0.267 N 
ATOM      2  C   UNL     1       4.687  -0.778  -2.639  0.00  0.00    +0.256 C 
ATOM      3  O   UNL     1       4.603  -0.206  -1.568  0.00  0.00    -0.270 OA
ATOM      4  H   UNL     1       3.633  -1.548  -4.175  0.00  0.00    +0.157 HD
ENDROOT
BRANCH   2   5
ATOM      5  C   UNL     1       6.005  -1.048  -3.224  0.00  0.00    +0.120 A 
ATOM      6  C   UNL     1       7.178  -0.756  -2.514  0.00  0.00    +0.131 A 
ATOM      7  N   UNL     1       8.351  -1.006  -3.058  0.00  0.00    -0.237 NA
ATOM      8  C   UNL     1       8.461  -1.535  -4.280  0.00  0.00    +0.140 A 
ATOM      9  C   UNL     1       9.739  -1.780  -4.809  0.00  0.00    +0.048 A 
ATOM     10  C   UNL     1       9.858  -2.320  -6.056  0.00  0.00    +0.020 A 
ATOM     11  C   UNL     1       8.704  -2.622  -6.791  0.00  0.00    +0.035 A 
ATOM     12  C   UNL     1       7.481  -2.378  -6.263  0.00  0.00    +0.111 A 
ATOM     13  N   UNL     1       7.354  -1.840  -5.019  0.00  0.00    -0.267 N 
ATOM     14  C   UNL     1       6.121  -1.613  -4.517  0.00  0.00    +0.271 A 
ATOM     15  O   UNL     1       5.127  -1.887  -5.166  0.00  0.00    -0.266 OA
ATOM     16 BR   UNL     1       8.855  -3.370  -8.521  0.00  0.00    -0.049 Br
ENDBRANCH   2   5
BRANCH   1  19
ATOM     17  C   UNL     1       0.710  -0.510  -1.227  0.00  0.00    +0.070 A 
ATOM     18  C   UNL     1       2.090  -0.484  -1.447  0.00  0.00    +0.068 A 
ATOM     19  C   UNL     1       2.324  -1.007  -2.682  0.00  0.00    +0.121 A 
ATOM     20  N   UNL     1       1.129  -1.348  -3.215  0.00  0.00    -0.264 N 
ATOM     21  H   UNL     1       0.986  -1.746  -4.088  0.00  0.00    +0.190 HD
ATOM     22  N   UNL     1       0.135  -1.032  -2.280  0.00  0.00    -0.177 NA
BRANCH  17  24
ATOM     23  C   UNL     1      -0.024   1.504   0.021  0.00  0.00    +0.017 C 
ATOM     24  C   UNL     1       0.005  -0.026   0.015  0.00  0.00    +0.006 C 
ATOM     25  C   UNL     1       0.752  -0.527   1.253  0.00  0.00    +0.017 C 
ATOM     26  C   UNL     1      -1.427  -0.564   0.030  0.00  0.00    +0.017 C 
ENDBRANCH  17  24
ENDBRANCH   1  19
TORSDOF 3
