REMARK  Name = ZINC20875171
REMARK  10 active torsions:
REMARK  status: ('A' for Active; 'I' for Inactive)
REMARK    1  A    between atoms: C_1  and  C_2
REMARK    2  A    between atoms: C_5  and  C_8
REMARK    3  A    between atoms: C_8  and  O_9
REMARK    4  A    between atoms: O_9  and  C_10
REMARK    5  A    between atoms: C_15  and  C_16
REMARK    6  A    between atoms: C_16  and  N_17
REMARK    7  A    between atoms: N_17  and  C_18
REMARK    8  A    between atoms: C_18  and  C_19
REMARK    9  A    between atoms: C_19  and  C_21
REMARK   10  A    between atoms: C_19  and  O_27
REMARK                            x       y       z     vdW  Elec       q    Type
REMARK                         _______ _______ _______ _____ _____    ______ ____
ROOT
ATOM      1  C   UNL     1       1.055   4.194   1.196  0.00  0.00    +0.125 A 
ATOM      2  C   UNL     1       1.006   5.580   1.203  0.00  0.00    +0.047 A 
ATOM      3  C   UNL     1       1.174   6.282   0.025  0.00  0.00    +0.023 A 
ATOM      4  C   UNL     1       1.399   5.603  -1.160  0.00  0.00    +0.041 A 
ATOM      5  C   UNL     1       1.454   4.221  -1.167  0.00  0.00    +0.028 A 
ATOM      6  C   UNL     1       1.286   3.516   0.009  0.00  0.00    +0.009 A 
ATOM      7 CL   UNL     1       1.610   6.487  -2.639  0.00  0.00    -0.084 Cl
ENDROOT
BRANCH   1   8
ATOM      8  O   UNL     1       0.883   3.502   2.353  0.00  0.00    -0.487 OA
BRANCH   8   9
ATOM      9  C   UNL     1       0.650   4.266   3.538  0.00  0.00    +0.264 C 
BRANCH   9  14
ATOM     10  C   UNL     1       0.017   0.697   8.039  0.00  0.00    +0.044 C 
ATOM     11  C   UNL     1       0.182   1.628   6.865  0.00  0.00    -0.050 A 
ATOM     12  C   UNL     1       1.437   2.100   6.529  0.00  0.00    +0.004 A 
ATOM     13  C   UNL     1       1.588   2.954   5.452  0.00  0.00    +0.007 A 
ATOM     14  C   UNL     1       0.485   3.335   4.712  0.00  0.00    -0.010 A 
ATOM     15  C   UNL     1      -0.771   2.866   5.051  0.00  0.00    +0.007 A 
ATOM     16  C   UNL     1      -0.922   2.009   6.125  0.00  0.00    +0.004 A 
ENDBRANCH   9  14
ENDBRANCH   8   9
ENDBRANCH   1   8
BRANCH   6  17
ATOM     17  C   UNL     1       1.346   2.010   0.000  0.00  0.00    +0.120 C 
BRANCH  17  18
ATOM     18  N   UNL     1      -0.018   1.465   0.010  0.00  0.00    -0.309 NA
ATOM     19  H   UNL     1      -0.542   1.806   0.915  0.00  0.00    +0.122 HD
BRANCH  18  20
ATOM     20  C   UNL     1       0.002  -0.004   0.002  0.00  0.00    +0.117 C 
BRANCH  20  21
ATOM     21  C   UNL     1      -1.433  -0.534   0.013  0.00  0.00    +0.158 C 
BRANCH  21  22
ATOM     22  C   UNL     1      -1.414  -2.036   0.129  0.00  0.00    -0.018 A 
ATOM     23  C   UNL     1      -1.178  -2.812  -0.991  0.00  0.00    +0.006 A 
ATOM     24  C   UNL     1      -1.155  -4.190  -0.884  0.00  0.00    +0.000 A 
ATOM     25  C   UNL     1      -1.378  -4.792   0.340  0.00  0.00    +0.000 A 
ATOM     26  C   UNL     1      -1.619  -4.016   1.459  0.00  0.00    +0.000 A 
ATOM     27  C   UNL     1      -1.637  -2.638   1.353  0.00  0.00    +0.006 A 
ENDBRANCH  21  22
BRANCH  21  28
ATOM     28  O   UNL     1      -2.089  -0.158  -1.200  0.00  0.00    -0.386 OA
ATOM     29  H   UNL     1      -3.135  -0.451  -1.374  0.00  0.00    +0.210 HD
ENDBRANCH  21  28
ENDBRANCH  20  21
ENDBRANCH  18  20
ENDBRANCH  17  18
ENDBRANCH   6  17
TORSDOF 9
