REMARK  Name = ZINC25907425
REMARK  2 active torsions:
REMARK  status: ('A' for Active; 'I' for Inactive)
REMARK    1  A    between atoms: C_6  and  C_7
REMARK    2  A    between atoms: C_13  and  C_15
REMARK                            x       y       z     vdW  Elec       q    Type
REMARK                         _______ _______ _______ _____ _____    ______ ____
ROOT
ATOM      1  C   UNL     1      -2.607  -2.534   0.014  0.00  0.00    +0.080 A 
ATOM      2  C   UNL     1      -3.687  -1.696   0.029  0.00  0.00    +0.076 A 
ATOM      3  S   UNL     1      -2.872  -0.105   0.037  0.00  0.00    -0.060 S 
ATOM      4  C   UNL     1      -1.192  -0.715   0.010  0.00  0.00    +0.165 A 
ATOM      5  N   UNL     1      -1.386  -2.021   0.004  0.00  0.00    -0.225 NA
ATOM      6  N   UNL     1       0.002  -0.004   0.002  0.00  0.00    -0.264 N 
ATOM      7  C   UNL     1      -0.016   1.344   0.009  0.00  0.00    +0.227 C 
ATOM      8  O   UNL     1      -1.075   1.936   0.018  0.00  0.00    -0.275 OA
ATOM      9  H   UNL     1       0.962  -0.541  -0.010  0.00  0.00    +0.157 HD
ENDROOT
BRANCH   7  10
ATOM     10  C   UNL     1       1.278   2.115   0.001  0.00  0.00    +0.116 C 
ATOM     11  C   UNL     1       2.098   1.748   1.239  0.00  0.00    +0.113 C 
ATOM     12  C   UNL     1       1.459   2.337   2.469  0.00  0.00    +0.218 C 
ATOM     13  O   UNL     1       1.497   1.724   3.515  0.00  0.00    -0.275 OA
ATOM     14  N   UNL     1       0.846   3.534   2.421  0.00  0.00    -0.285 N 
ATOM     15  C   UNL     1       0.778   4.247   1.220  0.00  0.00    +0.040 A 
ATOM     16  C   UNL     1       0.983   3.592   0.012  0.00  0.00    -0.014 A 
ATOM     17  C   UNL     1       0.916   4.295  -1.175  0.00  0.00    +0.009 A 
ATOM     18  C   UNL     1       0.645   5.651  -1.162  0.00  0.00    +0.039 A 
ATOM     19  C   UNL     1       0.439   6.308   0.040  0.00  0.00    +0.125 A 
ATOM     20  C   UNL     1       0.505   5.608   1.231  0.00  0.00    +0.062 A 
ATOM     21  F   UNL     1       0.175   7.632   0.048  0.00  0.00    -0.205 F 
ATOM     22  H   UNL     1       0.395   3.957   3.330  0.00  0.00    +0.155 HD
ENDBRANCH   7  10
BRANCH   1  28
ATOM     23  C   UNL     1      -4.086  -4.544   0.022  0.00  0.00    +0.013 A 
ATOM     24  C   UNL     1      -4.266  -5.909   0.015  0.00  0.00    +0.046 A 
ATOM     25  C   UNL     1      -3.166  -6.765   0.004  0.00  0.00    +0.124 A 
ATOM     26  C   UNL     1      -1.886  -6.221  -0.012  0.00  0.00    -0.002 A 
ATOM     27  C   UNL     1      -1.698  -4.859  -0.008  0.00  0.00    +0.017 A 
ATOM     28  C   UNL     1      -2.801  -4.005   0.007  0.00  0.00    +0.001 A 
ATOM     29  C   UNL     1      -0.910  -7.381  -0.038  0.00  0.00    +0.080 C 
ATOM     30  C   UNL     1      -1.827  -8.561  -0.438  0.00  0.00    +0.234 C 
ATOM     31  O   UNL     1      -3.121  -8.126   0.012  0.00  0.00    -0.491 OA
ENDBRANCH   1  28
TORSDOF 2
