REMARK  Name = ZINC38668946
REMARK  8 active torsions:
REMARK  status: ('A' for Active; 'I' for Inactive)
REMARK    1  A    between atoms: C_6  and  C_21
REMARK    2  A    between atoms: C_8  and  C_11
REMARK    3  A    between atoms: C_11  and  C_12
REMARK    4  A    between atoms: C_12  and  N_13
REMARK    5  A    between atoms: C_14  and  C_16
REMARK    6  A    between atoms: C_16  and  C_17
REMARK    7  A    between atoms: C_17  and  C_18
REMARK    8  A    between atoms: N_28  and  C_31
REMARK                            x       y       z     vdW  Elec       q    Type
REMARK                         _______ _______ _______ _____ _____    ______ ____
ROOT
ATOM      1  C   UNL     1      -0.467   0.919  -0.009  0.00  0.00    +0.001 A 
ATOM      2  C   UNL     1       0.644   1.770  -0.077  0.00  0.00    +0.002 A 
ATOM      3  C   UNL     1       1.913   1.311  -0.114  0.00  0.00    +0.026 A 
ATOM      4  C   UNL     1       2.173  -0.087  -0.084  0.00  0.00    +0.043 A 
ATOM      5  N   UNL     1       3.293  -0.767  -0.110  0.00  0.00    -0.374 N 
ATOM      6  C   UNL     1       2.973  -2.198  -0.057  0.00  0.00    +0.130 C 
ATOM      7  C   UNL     1       1.464  -2.283   0.006  0.00  0.00    -0.033 C 
ATOM      8  C   UNL     1       1.016  -1.007  -0.012  0.00  0.00    -0.000 A 
ATOM      9  C   UNL     1      -0.332  -0.426   0.024  0.00  0.00    +0.010 A 
ATOM     10  H   UNL     1       4.185  -0.388  -0.156  0.00  0.00    +0.161 HD
ENDROOT
BRANCH   6  11
ATOM     11  C   UNL     1       3.483  -2.891  -1.294  0.00  0.00    +0.020 C 
ATOM     12  C   UNL     1       4.446  -3.834  -1.192  0.00  0.00    +0.099 C 
ATOM     13  C   UNL     1       5.124  -4.381  -2.387  0.00  0.00    +0.274 C 
ATOM     14  O   UNL     1       4.798  -3.951  -3.624  0.00  0.00    -0.268 OA
ATOM     15  N   UNL     1       6.054  -5.299  -2.215  0.00  0.00    -0.154 NA
ATOM     16  C   UNL     1       6.399  -5.743  -1.007  0.00  0.00    +0.167 C 
ATOM     17  S   UNL     1       7.621  -6.937  -0.905  0.00  0.00    -0.016 S 
ATOM     18  N   UNL     1       5.843  -5.309   0.134  0.00  0.00    -0.245 N 
ATOM     19  C   UNL     1       4.878  -4.365   0.125  0.00  0.00    +0.257 C 
ATOM     20  O   UNL     1       4.376  -3.967   1.159  0.00  0.00    -0.269 OA
BRANCH  18  21
ATOM     21  C   UNL     1       6.296  -5.864   1.411  0.00  0.00    +0.084 C 
ATOM     22  C   UNL     1       5.116  -6.525   2.127  0.00  0.00    +0.023 C 
ATOM     23  C   UNL     1       5.589  -7.105   3.461  0.00  0.00    +0.002 C 
ATOM     24  C   UNL     1       6.150  -5.982   4.335  0.00  0.00    +0.000 C 
ATOM     25  C   UNL     1       7.330  -5.320   3.620  0.00  0.00    +0.002 C 
ATOM     26  C   UNL     1       6.857  -4.740   2.285  0.00  0.00    +0.023 C 
ENDBRANCH  18  21
ENDBRANCH   6  11
BRANCH   7  27
ATOM     27  C   UNL     1       0.629  -3.536   0.073  0.00  0.00    +0.052 C 
BRANCH  27  28
ATOM     28  C   UNL     1      -0.853  -3.159   0.122  0.00  0.00    +0.108 C 
BRANCH  28  29
ATOM     29  N   UNL     1      -1.665  -4.377   0.188  0.00  0.00    -0.315 N 
ATOM     30  C   UNL     1      -3.009  -4.289   0.238  0.00  0.00    +0.214 C 
ATOM     31  O   UNL     1      -3.546  -3.202   0.230  0.00  0.00    -0.276 OA
ATOM     32  H   UNL     1      -1.235  -5.246   0.194  0.00  0.00    +0.149 HD
BRANCH  30  33
ATOM     33  C   UNL     1      -3.843  -5.542   0.306  0.00  0.00    +0.107 C 
BRANCH  33  34
ATOM     34  C   UNL     1      -5.325  -5.165   0.355  0.00  0.00    +0.134 C 
BRANCH  34  35
ATOM     35  C   UNL     1      -6.160  -6.418   0.422  0.00  0.00    +0.356 C 
ATOM     36  O   UNL     1      -5.620  -7.511   0.431  0.00  0.00    -0.246 OA
ATOM     37  O   UNL     1      -7.376  -6.338   0.468  0.00  0.00    -0.246 OA
ENDBRANCH  34  35
ENDBRANCH  33  34
ENDBRANCH  30  33
ENDBRANCH  28  29
ENDBRANCH  27  28
ENDBRANCH   7  27
TORSDOF 8
