REMARK  Name = ZINC65525851
REMARK  8 active torsions:
REMARK  status: ('A' for Active; 'I' for Inactive)
REMARK    1  A    between atoms: C_1  and  C_2
REMARK    2  A    between atoms: C_5  and  C_8
REMARK    3  A    between atoms: C_8  and  C_14
REMARK    4  A    between atoms: C_14  and  N_15
REMARK    5  A    between atoms: C_19  and  C_22
REMARK    6  A    between atoms: C_24  and  C_27
REMARK    7  A    between atoms: C_27  and  C_28
REMARK    8  A    between atoms: C_27  and  C_29
REMARK                            x       y       z     vdW  Elec       q    Type
REMARK                         _______ _______ _______ _____ _____    ______ ____
ROOT
ATOM      1  C   UNL     1       0.569  -4.683   1.495  0.00  0.00    -0.066 C 
ENDROOT
BRANCH   1   2
ATOM      2  C   UNL     1       0.026  -4.171   0.159  0.00  0.00    -0.005 C 
ATOM      3  C   UNL     1       1.140  -4.195  -0.891  0.00  0.00    -0.008 C 
ATOM      4  C   UNL     1       1.593  -5.640  -1.114  0.00  0.00    -0.082 C 
ATOM      5  N   UNL     1       0.458  -6.444  -1.583  0.00  0.00    +0.379 N 
ATOM      6  C   UNL     1      -0.584  -6.485  -0.551  0.00  0.00    -0.082 C 
ATOM      7  C   UNL     1      -1.121  -5.073  -0.306  0.00  0.00    -0.008 C 
ATOM      8  H   UNL     1       0.081  -6.034  -2.425  0.00  0.00    -0.086 HD
ATOM      9  H   UNL     1       0.772  -7.383  -1.780  0.00  0.00    -0.086 HD
BRANCH   2  14
ATOM     10  C   UNL     1      -1.894   1.181   0.896  0.00  0.00    +0.045 C 
ATOM     11  C   UNL     1      -1.389  -0.220   0.664  0.00  0.00    -0.032 A 
ATOM     12  C   UNL     1      -1.156  -0.679  -0.624  0.00  0.00    +0.006 A 
ATOM     13  C   UNL     1      -0.692  -1.974  -0.789  0.00  0.00    +0.024 A 
ATOM     14  C   UNL     1      -0.478  -2.761   0.327  0.00  0.00    +0.046 A 
ATOM     15  N   UNL     1      -0.711  -2.292   1.537  0.00  0.00    -0.259 NA
ATOM     16  C   UNL     1      -1.147  -1.062   1.732  0.00  0.00    +0.114 A 
ENDBRANCH   2  14
ENDBRANCH   1   2
BRANCH   1  17
ATOM     17  N   UNL     1       1.878  -4.069   1.758  0.00  0.00    +0.381 N 
ATOM     18  C   UNL     1       1.707  -2.628   1.974  0.00  0.00    -0.079 C 
ATOM     19  C   UNL     1       3.075  -1.971   2.169  0.00  0.00    -0.018 C 
ATOM     20  C   UNL     1       3.765  -2.592   3.386  0.00  0.00    +0.009 C 
ATOM     21  C   UNL     1       3.871  -4.106   3.183  0.00  0.00    +0.061 C 
ATOM     22  C   UNL     1       2.474  -4.684   2.951  0.00  0.00    -0.066 C 
ATOM     23  H   UNL     1       2.484  -4.219   0.966  0.00  0.00    -0.082 HD
BRANCH  21  24
ATOM     24  C   UNL     1       4.480  -4.737   4.409  0.00  0.00    +0.229 A 
ATOM     25  N   UNL     1       5.590  -5.421   4.445  0.00  0.00    -0.196 NA
ATOM     26  C   UNL     1       5.834  -5.835   5.694  0.00  0.00    +0.174 A 
ATOM     27  N   UNL     1       4.877  -5.416   6.471  0.00  0.00    -0.061 NA
ATOM     28  O   UNL     1       3.978  -4.686   5.649  0.00  0.00    -0.338 OA
BRANCH  26  29
ATOM     29  C   UNL     1       7.023  -6.652   6.130  0.00  0.00    +0.054 C 
ATOM     30  C   UNL     1       7.821  -5.874   7.178  0.00  0.00    +0.015 C 
ATOM     31  C   UNL     1       6.540  -7.972   6.734  0.00  0.00    +0.015 C 
ENDBRANCH  26  29
ENDBRANCH  21  24
ENDBRANCH   1  17
TORSDOF 5
