REMARK  Name = ZINC58573525
REMARK  7 active torsions:
REMARK  status: ('A' for Active; 'I' for Inactive)
REMARK    1  A    between atoms: C_5  and  N_7
REMARK    2  A    between atoms: N_7  and  S_8
REMARK    3  A    between atoms: S_8  and  C_11
REMARK    4  A    between atoms: C_15  and  C_17
REMARK    5  A    between atoms: N_19  and  N_20
REMARK    6  A    between atoms: N_20  and  C_21
REMARK    7  A    between atoms: C_25  and  C_27
REMARK                            x       y       z     vdW  Elec       q    Type
REMARK                         _______ _______ _______ _____ _____    ______ ____
ROOT
ATOM      1  C   UNL     1       0.233  -4.641  -0.026  0.00  0.00    +0.111 A 
ATOM      2  C   UNL     1       0.391  -5.304  -1.231  0.00  0.00    +0.029 A 
ATOM      3  C   UNL     1       0.718  -6.648  -1.250  0.00  0.00    +0.003 A 
ATOM      4  C   UNL     1       0.890  -7.337  -0.067  0.00  0.00    +0.013 A 
ATOM      5  C   UNL     1       0.733  -6.674   1.151  0.00  0.00    +0.040 A 
ATOM      6  C   UNL     1       0.408  -5.317   1.164  0.00  0.00    +0.042 A 
ENDROOT
BRANCH   5   7
ATOM      7  C   UNL     1       0.915  -7.406   2.423  0.00  0.00    +0.260 C 
ATOM      8  O   UNL     1       0.778  -6.827   3.483  0.00  0.00    -0.269 OA
ATOM      9  N   UNL     1       1.234  -8.715   2.407  0.00  0.00    -0.232 N 
ATOM     10  H   UNL     1       1.343  -9.178   1.562  0.00  0.00    +0.173 HD
BRANCH   9  11
ATOM     11  N   UNL     1       1.407  -9.409   3.612  0.00  0.00    -0.264 N 
ATOM     12  H   UNL     1       1.297  -8.946   4.458  0.00  0.00    +0.170 HD
BRANCH  11  13
ATOM     13  C   UNL     1       1.737 -10.766   3.596  0.00  0.00    +0.045 A 
ATOM     14  C   UNL     1       1.900 -11.428   2.386  0.00  0.00    +0.024 A 
ATOM     15  C   UNL     1       2.227 -12.770   2.373  0.00  0.00    +0.002 A 
ATOM     16  C   UNL     1       2.392 -13.454   3.564  0.00  0.00    +0.012 A 
ATOM     17  C   UNL     1       2.230 -12.798   4.770  0.00  0.00    +0.057 A 
ATOM     18  C   UNL     1       1.908 -11.455   4.790  0.00  0.00    +0.036 A 
BRANCH  17  19
ATOM     19  C   UNL     1       2.411 -13.548   6.065  0.00  0.00    +0.417 C 
ATOM     20  F   UNL     1       2.735 -14.880   5.791  0.00  0.00    -0.166 F 
ATOM     21  F   UNL     1       3.442 -12.959   6.805  0.00  0.00    -0.166 F 
ATOM     22  F   UNL     1       1.222 -13.499   6.801  0.00  0.00    -0.166 F 
ENDBRANCH  17  19
ENDBRANCH  11  13
ENDBRANCH   9  11
ENDBRANCH   5   7
BRANCH   1  23
ATOM     23  S   UNL     1      -0.184  -2.930  -0.012  0.00  0.00    +0.092 S 
ATOM     24  O   UNL     1      -0.804  -2.673   1.241  0.00  0.00    -0.148 OA
ATOM     25  O   UNL     1      -0.828  -2.659  -1.250  0.00  0.00    -0.148 OA
BRANCH  23  26
ATOM     26  N   UNL     1       1.236  -2.079  -0.021  0.00  0.00    -0.095 NA
BRANCH  26  31
ATOM     27  C   UNL     1      -0.017   1.377   0.010  0.00  0.00    +0.002 A 
ATOM     28  C   UNL     1       1.170   2.087   0.002  0.00  0.00    +0.003 A 
ATOM     29  C   UNL     1       2.380   1.418  -0.013  0.00  0.00    +0.040 A 
ATOM     30  C   UNL     1       2.406   0.035  -0.021  0.00  0.00    +0.148 A 
ATOM     31  C   UNL     1       1.214  -0.681  -0.013  0.00  0.00    +0.109 A 
ATOM     32  C   UNL     1       0.002  -0.004   0.002  0.00  0.00    +0.029 A 
ATOM     33  F   UNL     1       3.588  -0.619  -0.036  0.00  0.00    -0.203 F 
ENDBRANCH  26  31
ENDBRANCH  23  26
ENDBRANCH   1  23
TORSDOF 7
