REMARK  Name = ZINC02666980
REMARK  10 active torsions:
REMARK  status: ('A' for Active; 'I' for Inactive)
REMARK    1  A    between atoms: C_1  and  C_2
REMARK    2  A    between atoms: C_2  and  C_3
REMARK    3  A    between atoms: C_2  and  C_4
REMARK    4  A    between atoms: C_4  and  C_5
REMARK    5  A    between atoms: N_7  and  C_8
REMARK    6  A    between atoms: C_8  and  C_10
REMARK    7  A    between atoms: C_8  and  N_14
REMARK    8  A    between atoms: N_14  and  C_15
REMARK    9  A    between atoms: C_15  and  N_17
REMARK   10  A    between atoms: N_17  and  C_18
REMARK                            x       y       z     vdW  Elec       q    Type
REMARK                         _______ _______ _______ _____ _____    ______ ____
ROOT
ATOM      1  N   UNL     1       2.202   9.372   0.231  0.00  0.00    -0.305 N 
ATOM      2  H   UNL     1       1.356   9.846   0.241  0.00  0.00    +0.150 HD
ENDROOT
BRANCH   1   3
ATOM      3  C   UNL     1       2.221   8.029   0.122  0.00  0.00    +0.136 C 
ATOM      4  S   UNL     1       3.715   7.192   0.104  0.00  0.00    -0.019 S 
BRANCH   3   5
ATOM      5  N   UNL     1       1.064   7.344   0.028  0.00  0.00    -0.297 N 
ATOM      6  H   UNL     1       0.221   7.821  -0.023  0.00  0.00    +0.154 HD
BRANCH   5   7
ATOM      7  C   UNL     1       1.079   5.946   0.005  0.00  0.00    +0.033 A 
ATOM      8  C   UNL     1       1.994   5.277  -0.817  0.00  0.00    +0.024 A 
ATOM      9  C   UNL     1       2.031   3.919  -0.860  0.00  0.00    +0.010 A 
ATOM     10  C   UNL     1       1.142   3.168  -0.071  0.00  0.00    -0.018 A 
ATOM     11  C   UNL     1       1.157   1.763  -0.095  0.00  0.00    +0.008 A 
ATOM     12  C   UNL     1       0.283   1.066   0.680  0.00  0.00    +0.001 A 
ATOM     13  C   UNL     1      -0.635   1.724   1.497  0.00  0.00    +0.001 A 
ATOM     14  C   UNL     1      -0.676   3.083   1.551  0.00  0.00    +0.008 A 
ATOM     15  C   UNL     1       0.212   3.838   0.764  0.00  0.00    -0.016 A 
ATOM     16  C   UNL     1       0.194   5.242   0.790  0.00  0.00    +0.031 A 
ENDBRANCH   5   7
ENDBRANCH   3   5
ENDBRANCH   1   3
BRANCH   1  17
ATOM     17  C   UNL     1       3.460  10.117   0.333  0.00  0.00    +0.211 C 
BRANCH  17  20
ATOM     18  C   UNL     1       4.550   9.942   2.505  0.00  0.00    +0.215 C 
ATOM     19  O   UNL     1       5.198   9.012   2.073  0.00  0.00    -0.276 OA
ATOM     20  N   UNL     1       3.652  10.563   1.715  0.00  0.00    -0.294 N 
ATOM     21  H   UNL     1       3.134  11.306   2.061  0.00  0.00    +0.151 HD
BRANCH  18  22
ATOM     22  C   UNL     1       4.747  10.401   3.927  0.00  0.00    +0.098 C 
BRANCH  22  24
ATOM     23  C   UNL     1       6.104  10.078   6.000  0.00  0.00    +0.008 C 
ATOM     24  C   UNL     1       5.814   9.534   4.599  0.00  0.00    -0.008 C 
ATOM     25  C   UNL     1       5.308   8.094   4.706  0.00  0.00    +0.008 C 
ENDBRANCH  22  24
ENDBRANCH  18  22
ENDBRANCH  17  20
BRANCH  17  26
ATOM     26  C   UNL     1       3.409  11.333  -0.594  0.00  0.00    +0.225 C 
ATOM     27 CL   UNL     1       2.039  12.400  -0.111  0.00  0.00    -0.080 Cl
ATOM     28 CL   UNL     1       4.957  12.249  -0.468  0.00  0.00    -0.080 Cl
ATOM     29 CL   UNL     1       3.173  10.783  -2.295  0.00  0.00    -0.080 Cl
ENDBRANCH  17  26
ENDBRANCH   1  17
TORSDOF 8
