REMARK  Name = ZINC40485015
REMARK  5 active torsions:
REMARK  status: ('A' for Active; 'I' for Inactive)
REMARK    1  A    between atoms: C_1  and  C_2
REMARK    2  A    between atoms: C_7  and  N_8
REMARK    3  A    between atoms: C_9  and  C_11
REMARK    4  A    between atoms: C_12  and  C_28
REMARK    5  A    between atoms: C_19  and  C_21
REMARK                            x       y       z     vdW  Elec       q    Type
REMARK                         _______ _______ _______ _____ _____    ______ ____
ROOT
ATOM      1  C   UNL     1       0.113   0.176   4.707  0.00  0.00    +0.060 C 
ATOM      2  C   UNL     1       0.201  -0.449   5.890  0.00  0.00    +0.018 C 
ATOM      3  N   UNL     1       0.225   0.237   7.080  0.00  0.00    -0.287 N 
ATOM      4  C   UNL     1      -0.108   1.584   7.048  0.00  0.00    +0.218 A 
ATOM      5  N   UNL     1      -0.378   2.409   8.022  0.00  0.00    -0.201 NA
ATOM      6  C   UNL     1      -0.652   3.618   7.522  0.00  0.00    +0.247 A 
ATOM      7  N   UNL     1      -0.556   3.576   6.216  0.00  0.00    -0.156 NA
ATOM      8  N   UNL     1      -0.202   2.270   5.881  0.00  0.00    -0.221 N 
ATOM      9  C   UNL     1       0.050   1.674   4.571  0.00  0.00    +0.177 C 
ATOM     10  C   UNL     1       0.277  -1.954   5.915  0.00  0.00    +0.061 C 
ATOM     11  H   UNL     1       0.464  -0.203   7.911  0.00  0.00    +0.155 HD
ENDROOT
BRANCH   9  12
ATOM     12  C   UNL     1       1.359   2.184   4.025  0.00  0.00    -0.018 A 
ATOM     13  C   UNL     1       2.533   1.956   4.719  0.00  0.00    +0.007 A 
ATOM     14  C   UNL     1       3.733   2.424   4.219  0.00  0.00    +0.020 A 
ATOM     15  C   UNL     1       3.760   3.121   3.024  0.00  0.00    +0.041 A 
ATOM     16  C   UNL     1       2.585   3.349   2.330  0.00  0.00    +0.020 A 
ATOM     17  C   UNL     1       1.386   2.875   2.828  0.00  0.00    +0.007 A 
ATOM     18 CL   UNL     1       5.268   3.709   2.396  0.00  0.00    -0.084 Cl
ENDBRANCH   9  12
BRANCH   1  20
ATOM     19  N   UNL     1       1.198  -1.245   3.117  0.00  0.00    -0.281 N 
ATOM     20  C   UNL     1       0.084  -0.610   3.531  0.00  0.00    +0.248 C 
ATOM     21  O   UNL     1      -0.948  -0.712   2.892  0.00  0.00    -0.270 OA
ATOM     22  H   UNL     1       2.005  -1.210   3.655  0.00  0.00    +0.155 HD
BRANCH  19  29
ATOM     23  C   UNL     1       3.579  -1.269   1.560  0.00  0.00    +0.046 C 
ATOM     24  C   UNL     1       2.333  -1.993   1.120  0.00  0.00    -0.027 A 
ATOM     25  C   UNL     1       2.326  -2.700  -0.067  0.00  0.00    +0.043 A 
ATOM     26  C   UNL     1       1.181  -3.365  -0.471  0.00  0.00    +0.124 A 
ATOM     27  C   UNL     1       0.040  -3.324   0.313  0.00  0.00    +0.040 A 
ATOM     28  C   UNL     1       0.043  -2.619   1.501  0.00  0.00    +0.026 A 
ATOM     29  C   UNL     1       1.192  -1.955   1.911  0.00  0.00    +0.037 A 
ATOM     30  F   UNL     1       1.176  -4.054  -1.633  0.00  0.00    -0.205 F 
ENDBRANCH  19  29
ENDBRANCH   1  20
TORSDOF 3
