REMARK  Name = ZINC04736953
REMARK  8 active torsions:
REMARK  status: ('A' for Active; 'I' for Inactive)
REMARK    1  A    between atoms: C_1  and  C_2
REMARK    2  A    between atoms: C_7  and  N_8
REMARK    3  A    between atoms: C_9  and  C_11
REMARK    4  A    between atoms: C_12  and  C_31
REMARK    5  A    between atoms: C_19  and  C_21
REMARK    6  A    between atoms: C_26  and  O_27
REMARK    7  A    between atoms: O_27  and  C_28
REMARK    8  A    between atoms: C_28  and  C_29
REMARK                            x       y       z     vdW  Elec       q    Type
REMARK                         _______ _______ _______ _____ _____    ______ ____
ROOT
ATOM      1  C   UNL     1       0.078  -0.254   4.738  0.00  0.00    +0.060 C 
ATOM      2  C   UNL     1       0.067  -1.190   5.698  0.00  0.00    +0.018 C 
ATOM      3  N   UNL     1      -0.021  -0.871   7.031  0.00  0.00    -0.287 N 
ATOM      4  C   UNL     1      -0.363   0.435   7.353  0.00  0.00    +0.218 A 
ATOM      5  N   UNL     1      -0.726   0.953   8.495  0.00  0.00    -0.201 NA
ATOM      6  C   UNL     1      -0.966   2.259   8.337  0.00  0.00    +0.247 A 
ATOM      7  N   UNL     1      -0.755   2.588   7.086  0.00  0.00    -0.156 NA
ATOM      8  N   UNL     1      -0.359   1.425   6.426  0.00  0.00    -0.221 N 
ATOM      9  C   UNL     1       0.013   1.222   5.028  0.00  0.00    +0.181 C 
ATOM     10  C   UNL     1       0.154  -2.642   5.301  0.00  0.00    +0.061 C 
ATOM     11  H   UNL     1       0.148  -1.532   7.720  0.00  0.00    +0.155 HD
ENDROOT
BRANCH   9  12
ATOM     12  C   UNL     1       1.359   1.845   4.766  0.00  0.00    +0.023 A 
ATOM     13  C   UNL     1       2.464   1.432   5.485  0.00  0.00    +0.009 A 
ATOM     14  C   UNL     1       3.700   2.003   5.245  0.00  0.00    +0.001 A 
ATOM     15  C   UNL     1       3.834   2.990   4.285  0.00  0.00    +0.004 A 
ATOM     16  C   UNL     1       2.732   3.406   3.563  0.00  0.00    +0.046 A 
ATOM     17  C   UNL     1       1.492   2.830   3.798  0.00  0.00    +0.126 A 
BRANCH  17  18
ATOM     18  O   UNL     1       0.408   3.234   3.085  0.00  0.00    -0.488 OA
BRANCH  18  19
ATOM     19  C   UNL     1       0.638   4.164   2.025  0.00  0.00    +0.256 C 
BRANCH  19  20
ATOM     20  C   UNL     1      -0.661   4.451   1.318  0.00  0.00    +0.006 C 
ATOM     21  C   UNL     1      -0.984   5.684   1.015  0.00  0.00    +0.007 C 
ENDBRANCH  19  20
ENDBRANCH  18  19
ENDBRANCH  17  18
ENDBRANCH   9  12
BRANCH   1  23
ATOM     22  N   UNL     1       1.336  -1.095   2.885  0.00  0.00    -0.281 N 
ATOM     23  C   UNL     1       0.160  -0.673   3.389  0.00  0.00    +0.248 C 
ATOM     24  O   UNL     1      -0.833  -0.653   2.684  0.00  0.00    -0.270 OA
ATOM     25  H   UNL     1       2.110  -1.178   3.463  0.00  0.00    +0.155 HD
BRANCH  22  32
ATOM     26  C   UNL     1       3.523  -2.712   2.048  0.00  0.00    +0.045 C 
ATOM     27  C   UNL     1       2.493  -2.199   1.075  0.00  0.00    -0.029 A 
ATOM     28  C   UNL     1       2.590  -2.515  -0.266  0.00  0.00    +0.005 A 
ATOM     29  C   UNL     1       1.646  -2.045  -1.159  0.00  0.00    +0.000 A 
ATOM     30  C   UNL     1       0.600  -1.256  -0.714  0.00  0.00    +0.002 A 
ATOM     31  C   UNL     1       0.497  -0.936   0.625  0.00  0.00    +0.023 A 
ATOM     32  C   UNL     1       1.441  -1.412   1.527  0.00  0.00    +0.037 A 
ENDBRANCH  22  32
ENDBRANCH   1  23
TORSDOF 6
