REMARK  Name = ZINC19738461
REMARK  14 active torsions:
REMARK  status: ('A' for Active; 'I' for Inactive)
REMARK    1  A    between atoms: C_1  and  C_2
REMARK    2  A    between atoms: C_2  and  O_3
REMARK    3  A    between atoms: O_3  and  C_4
REMARK    4  A    between atoms: C_4  and  C_5
REMARK    5  A    between atoms: C_5  and  O_6
REMARK    6  A    between atoms: O_6  and  C_7
REMARK    7  A    between atoms: C_12  and  C_13
REMARK    8  A    between atoms: C_13  and  N_14
REMARK    9  A    between atoms: N_14  and  C_15
REMARK   10  A    between atoms: C_20  and  O_21
REMARK   11  A    between atoms: O_21  and  C_22
REMARK   12  A    between atoms: C_22  and  C_23
REMARK   13  A    between atoms: C_23  and  C_24
REMARK   14  A    between atoms: C_24  and  C_25
REMARK                            x       y       z     vdW  Elec       q    Type
REMARK                         _______ _______ _______ _____ _____    ______ ____
ROOT
ATOM      1  C   UNL     1      -0.013   1.088  -4.791  0.00  0.00    +0.070 A 
ATOM      2  C   UNL     1      -0.565   1.458  -6.009  0.00  0.00    +0.026 A 
ATOM      3  C   UNL     1      -1.704   2.240  -6.042  0.00  0.00    +0.002 A 
ATOM      4  C   UNL     1      -2.299   2.651  -4.863  0.00  0.00    +0.004 A 
ATOM      5  C   UNL     1      -1.758   2.280  -3.646  0.00  0.00    +0.047 A 
ATOM      6  C   UNL     1      -0.617   1.497  -3.604  0.00  0.00    +0.141 A 
ENDROOT
BRANCH   1   7
ATOM      7  N   UNL     1       1.143   0.300  -4.755  0.00  0.00    -0.337 N 
ATOM      8  H   UNL     1       1.577   0.004  -3.789  0.00  0.00    +0.147 HD
BRANCH   7   9
ATOM      9  C   UNL     1       1.776  -0.129  -6.005  0.00  0.00    +0.140 C 
BRANCH   9  15
ATOM     10  C   UNL     1       2.854  -2.294  -5.345  0.00  0.00    +0.125 A 
ATOM     11  C   UNL     1       3.978  -3.056  -5.057  0.00  0.00    +0.046 A 
ATOM     12  C   UNL     1       5.233  -2.482  -5.117  0.00  0.00    +0.004 A 
ATOM     13  C   UNL     1       5.370  -1.151  -5.463  0.00  0.00    +0.001 A 
ATOM     14  C   UNL     1       4.253  -0.391  -5.755  0.00  0.00    +0.009 A 
ATOM     15  C   UNL     1       2.995  -0.959  -5.691  0.00  0.00    +0.011 A 
BRANCH  10  16
ATOM     16  O   UNL     1       1.618  -2.856  -5.287  0.00  0.00    -0.489 OA
BRANCH  16  17
ATOM     17  C   UNL     1       1.550  -4.237  -4.923  0.00  0.00    +0.257 C 
BRANCH  17  18
ATOM     18  C   UNL     1       0.088  -4.689  -4.912  0.00  0.00    +0.200 C 
BRANCH  18  19
ATOM     19  O   UNL     1      -0.442  -4.620  -6.237  0.00  0.00    -0.377 OA
BRANCH  19  21
ATOM     20  C   UNL     1      -2.269  -4.911  -7.793  0.00  0.00    +0.034 C 
ATOM     21  C   UNL     1      -1.809  -5.024  -6.338  0.00  0.00    +0.156 C 
ENDBRANCH  19  21
ENDBRANCH  18  19
ENDBRANCH  17  18
ENDBRANCH  16  17
ENDBRANCH  10  16
ENDBRANCH   9  15
ENDBRANCH   7   9
ENDBRANCH   1   7
BRANCH   6  22
ATOM     22  O   UNL     1      -0.084   1.132  -2.407  0.00  0.00    -0.490 OA
BRANCH  22  23
ATOM     23  C   UNL     1      -0.753   1.593  -1.232  0.00  0.00    +0.229 C 
BRANCH  23  24
ATOM     24  C   UNL     1      -0.013   1.086   0.008  0.00  0.00    +0.046 C 
BRANCH  24  25
ATOM     25  C   UNL     1      -0.729   1.579   1.267  0.00  0.00    +0.038 C 
BRANCH  25  26
ATOM     26  C   UNL     1       0.000   1.080   2.488  0.00  0.00    -0.047 A 
ATOM     27  C   UNL     1      -0.347  -0.133   3.052  0.00  0.00    +0.003 A 
ATOM     28  C   UNL     1       0.325  -0.593   4.169  0.00  0.00    +0.000 A 
ATOM     29  C   UNL     1       1.337   0.164   4.728  0.00  0.00    +0.000 A 
ATOM     30  C   UNL     1       1.680   1.380   4.167  0.00  0.00    +0.000 A 
ATOM     31  C   UNL     1       1.012   1.838   3.046  0.00  0.00    +0.003 A 
ENDBRANCH  25  26
ENDBRANCH  24  25
ENDBRANCH  23  24
ENDBRANCH  22  23
ENDBRANCH   6  22
TORSDOF 13
