REMARK  Name = ZINC02333545
REMARK  9 active torsions:
REMARK  status: ('A' for Active; 'I' for Inactive)
REMARK    1  A    between atoms: C_6  and  N_10
REMARK    2  A    between atoms: C_7  and  C_8
REMARK    3  A    between atoms: C_11  and  C_13
REMARK    4  A    between atoms: C_13  and  C_14
REMARK    5  A    between atoms: C_14  and  C_15
REMARK    6  A    between atoms: C_15  and  C_16
REMARK    7  A    between atoms: C_16  and  C_17
REMARK    8  A    between atoms: N_19  and  C_20
REMARK    9  A    between atoms: C_21  and  C_28
REMARK                            x       y       z     vdW  Elec       q    Type
REMARK                         _______ _______ _______ _____ _____    ______ ____
ROOT
ATOM      1  C   UNL     1       2.457   1.002  -0.016  0.00  0.00    +0.010 C 
ENDROOT
BRANCH   1   2
ATOM      2  C   UNL     1       1.280   1.980   0.001  0.00  0.00    +0.096 C 
BRANCH   2   4
ATOM      3  N   UNL     1      -1.191   1.867   0.018  0.00  0.00    -0.279 N 
ATOM      4  C   UNL     1      -0.014   1.209   0.009  0.00  0.00    +0.218 C 
ATOM      5  O   UNL     1       0.002  -0.004   0.002  0.00  0.00    -0.275 OA
ATOM      6  H   UNL     1      -1.204   2.836   0.023  0.00  0.00    +0.155 HD
BRANCH   3  12
ATOM      7  C   UNL     1      -6.761  -0.672  -0.408  0.00  0.00    +0.010 C 
ATOM      8  C   UNL     1      -6.298   0.729   0.040  0.00  0.00    +0.037 C 
ATOM      9  C   UNL     1      -4.770   0.677   0.030  0.00  0.00    -0.021 A 
ATOM     10  C   UNL     1      -4.387  -0.613   0.021  0.00  0.00    -0.004 A 
ATOM     11  S   UNL     1      -2.612  -0.558   0.012  0.00  0.00    -0.077 S 
ATOM     12  C   UNL     1      -2.381   1.157   0.020  0.00  0.00    +0.086 A 
ATOM     13  C   UNL     1      -3.676   1.649   0.034  0.00  0.00    +0.095 A 
ATOM     14  C   UNL     1      -5.564  -1.550   0.019  0.00  0.00    +0.043 C 
BRANCH  13  15
ATOM     15  C   UNL     1      -3.942   3.089   0.049  0.00  0.00    +0.389 C 
ATOM     16  O   UNL     1      -4.060   3.697  -0.998  0.00  0.00    -0.240 OA
ATOM     17  O   UNL     1      -4.054   3.742   1.224  0.00  0.00    -0.240 OA
ENDBRANCH  13  15
ENDBRANCH   3  12
ENDBRANCH   2   4
ENDBRANCH   1   2
BRANCH   1  18
ATOM     18  C   UNL     1       3.771   1.784  -0.024  0.00  0.00    +0.010 C 
BRANCH  18  19
ATOM     19  C   UNL     1       4.947   0.806  -0.041  0.00  0.00    +0.096 C 
BRANCH  19  20
ATOM     20  C   UNL     1       6.242   1.577  -0.049  0.00  0.00    +0.218 C 
ATOM     21  O   UNL     1       6.226   2.790  -0.042  0.00  0.00    -0.275 OA
ATOM     22  N   UNL     1       7.418   0.919  -0.064  0.00  0.00    -0.279 N 
ATOM     23  H   UNL     1       7.431  -0.051  -0.069  0.00  0.00    +0.155 HD
BRANCH  22  24
ATOM     24  C   UNL     1       8.609   1.629  -0.071  0.00  0.00    +0.086 A 
ATOM     25  C   UNL     1       9.904   1.137  -0.081  0.00  0.00    +0.095 A 
ATOM     26  C   UNL     1      10.997   2.109  -0.090  0.00  0.00    -0.021 A 
ATOM     27  C   UNL     1      10.615   3.398  -0.080  0.00  0.00    -0.004 A 
ATOM     28  S   UNL     1       8.839   3.344  -0.064  0.00  0.00    -0.077 S 
ATOM     29  C   UNL     1      11.791   4.336  -0.088  0.00  0.00    +0.043 C 
ATOM     30  C   UNL     1      12.982   3.462  -0.542  0.00  0.00    +0.010 C 
ATOM     31  C   UNL     1      12.525   2.057  -0.102  0.00  0.00    +0.037 C 
BRANCH  25  32
ATOM     32  C   UNL     1      10.169  -0.303  -0.085  0.00  0.00    +0.389 C 
ATOM     33  O   UNL     1      10.273  -0.899  -1.140  0.00  0.00    -0.240 OA
ATOM     34  O   UNL     1      10.298  -0.969   1.081  0.00  0.00    -0.240 OA
ENDBRANCH  25  32
ENDBRANCH  22  24
ENDBRANCH  19  20
ENDBRANCH  18  19
ENDBRANCH   1  18
TORSDOF 9
