REMARK  Name = ZINC45342435
REMARK  11 active torsions:
REMARK  status: ('A' for Active; 'I' for Inactive)
REMARK    1  A    between atoms: C_1  and  C_2
REMARK    2  A    between atoms: C_2  and  C_3
REMARK    3  A    between atoms: C_3  and  N_4
REMARK    4  A    between atoms: C_8  and  S_29
REMARK    5  A    between atoms: C_12  and  S_13
REMARK    6  A    between atoms: S_13  and  C_14
REMARK    7  A    between atoms: C_14  and  C_16
REMARK    8  A    between atoms: C_14  and  C_17
REMARK    9  A    between atoms: N_19  and  C_20
REMARK   10  A    between atoms: C_23  and  C_26
REMARK   11  A    between atoms: S_29  and  N_32
REMARK                            x       y       z     vdW  Elec       q    Type
REMARK                         _______ _______ _______ _____ _____    ______ ____
ROOT
ATOM      1  N   UNL     1       0.764  -1.990   1.244  0.00  0.00    -0.319 N 
ATOM      2  C   UNL     1      -0.181  -2.831   1.809  0.00  0.00    +0.070 A 
ATOM      3  C   UNL     1      -1.363  -2.620   2.503  0.00  0.00    +0.030 A 
ATOM      4  C   UNL     1      -2.100  -3.699   2.947  0.00  0.00    +0.030 A 
ATOM      5  C   UNL     1      -1.666  -4.994   2.705  0.00  0.00    +0.107 A 
ATOM      6  C   UNL     1      -0.495  -5.221   2.018  0.00  0.00    +0.058 A 
ATOM      7  C   UNL     1       0.262  -4.140   1.561  0.00  0.00    +0.092 A 
ATOM      8  N   UNL     1       1.430  -4.043   0.872  0.00  0.00    -0.222 NA
ATOM      9  C   UNL     1       1.724  -2.781   0.680  0.00  0.00    +0.171 A 
ENDROOT
BRANCH   5  10
ATOM     10  S   UNL     1      -2.621  -6.358   3.282  0.00  0.00    +0.056 S 
ATOM     11  O   UNL     1      -1.728  -7.455   3.406  0.00  0.00    -0.153 OA
ATOM     12  O   UNL     1      -3.396  -5.879   4.372  0.00  0.00    -0.153 OA
BRANCH  10  13
ATOM     13  N   UNL     1      -3.689  -6.751   2.079  0.00  0.00    -0.204 NA
ATOM     14  H   UNL     1      -3.693  -6.247   1.250  0.00  0.00    +0.144 HD
ATOM     15  H   UNL     1      -4.311  -7.485   2.203  0.00  0.00    +0.144 HD
ENDBRANCH  10  13
ENDBRANCH   5  10
BRANCH   1  16
ATOM     16  C   UNL     1       0.735  -0.525   1.246  0.00  0.00    +0.124 C 
BRANCH  16  18
ATOM     17  C   UNL     1      -0.042   1.502   0.010  0.00  0.00    +0.005 C 
ATOM     18  C   UNL     1      -0.013  -0.027   0.008  0.00  0.00    +0.018 C 
ENDBRANCH  16  18
ENDBRANCH   1  16
BRANCH   9  19
ATOM     19  S   UNL     1       3.148  -2.192  -0.175  0.00  0.00    -0.075 S 
BRANCH  19  20
ATOM     20  C   UNL     1       4.015  -3.704  -0.677  0.00  0.00    +0.137 C 
ATOM     21  C   UNL     1       4.494  -4.454   0.568  0.00  0.00    +0.029 C 
BRANCH  20  22
ATOM     22  C   UNL     1       5.202  -3.341  -1.532  0.00  0.00    +0.230 C 
ATOM     23  O   UNL     1       5.716  -2.248  -1.425  0.00  0.00    -0.274 OA
ATOM     24  N   UNL     1       5.692  -4.233  -2.416  0.00  0.00    -0.285 N 
ATOM     25  H   UNL     1       5.325  -5.129  -2.456  0.00  0.00    +0.155 HD
BRANCH  24  26
ATOM     26  C   UNL     1       6.728  -3.865  -3.275  0.00  0.00    +0.033 A 
ATOM     27  C   UNL     1       7.720  -2.995  -2.833  0.00  0.00    +0.024 A 
ATOM     28  C   UNL     1       8.744  -2.630  -3.678  0.00  0.00    +0.015 A 
ATOM     29  C   UNL     1       8.787  -3.136  -4.980  0.00  0.00    +0.037 A 
ATOM     30  C   UNL     1       7.789  -4.010  -5.420  0.00  0.00    +0.015 A 
ATOM     31  C   UNL     1       6.771  -4.375  -4.569  0.00  0.00    +0.024 A 
BRANCH  29  32
ATOM     32  C   UNL     1       9.883  -2.747  -5.889  0.00  0.00    +0.242 C 
ATOM     33  O   UNL     1      10.750  -1.986  -5.505  0.00  0.00    -0.270 OA
ATOM     34  N   UNL     1       9.923  -3.235  -7.144  0.00  0.00    -0.325 N 
ATOM     35  H   UNL     1       9.231  -3.842  -7.451  0.00  0.00    +0.145 HD
ATOM     36  H   UNL     1      10.643  -2.979  -7.742  0.00  0.00    +0.145 HD
ENDBRANCH  29  32
ENDBRANCH  24  26
ENDBRANCH  20  22
ENDBRANCH  19  20
ENDBRANCH   9  19
TORSDOF 9
