REMARK  Name = ZINC08781440
REMARK  10 active torsions:
REMARK  status: ('A' for Active; 'I' for Inactive)
REMARK    1  A    between atoms: C_1  and  N_2
REMARK    2  A    between atoms: N_2  and  C_3
REMARK    3  A    between atoms: N_2  and  C_4
REMARK    4  A    between atoms: C_7  and  C_10
REMARK    5  A    between atoms: C_14  and  C_17
REMARK    6  A    between atoms: C_17  and  S_18
REMARK    7  A    between atoms: S_18  and  C_19
REMARK    8  A    between atoms: C_20  and  C_34
REMARK    9  A    between atoms: C_21  and  C_30
REMARK   10  A    between atoms: C_23  and  C_25
REMARK                            x       y       z     vdW  Elec       q    Type
REMARK                         _______ _______ _______ _____ _____    ______ ____
ROOT
ATOM      1  S   UNL     1      -4.161  -3.570  -6.742  0.00  0.00    -0.102 S 
ENDROOT
BRANCH   1   2
ATOM      2  C   UNL     1      -4.997  -4.652  -7.853  0.00  0.00    +0.116 A 
ATOM      3  C   UNL     1      -6.347  -4.981  -7.625  0.00  0.00    +0.095 A 
ATOM      4  C   UNL     1      -6.998  -5.844  -8.519  0.00  0.00    +0.077 A 
ATOM      5  C   UNL     1      -6.286  -6.339  -9.591  0.00  0.00    +0.042 A 
ATOM      6  C   UNL     1      -4.947  -5.970  -9.756  0.00  0.00    +0.079 A 
ATOM      7  N   UNL     1      -4.354  -5.146  -8.898  0.00  0.00    -0.239 NA
BRANCH   6   8
ATOM      8  C   UNL     1      -4.184  -6.498 -10.902  0.00  0.00    +0.038 A 
ATOM      9  C   UNL     1      -2.875  -6.273 -11.246  0.00  0.00    +0.017 A 
ATOM     10  C   UNL     1      -2.374  -6.881 -12.373  0.00  0.00    +0.008 A 
ATOM     11  C   UNL     1      -3.187  -7.684 -13.110  0.00  0.00    +0.046 A 
ATOM     12  S   UNL     1      -4.720  -7.603 -12.198  0.00  0.00    -0.095 S 
ENDBRANCH   6   8
BRANCH   4  13
ATOM     13  C   UNL     1      -8.442  -6.222  -8.312  0.00  0.00    +0.419 C 
ATOM     14  F   UNL     1      -8.848  -7.086  -9.334  0.00  0.00    -0.166 F 
ATOM     15  F   UNL     1      -8.584  -6.862  -7.076  0.00  0.00    -0.166 F 
ATOM     16  F   UNL     1      -9.233  -5.069  -8.334  0.00  0.00    -0.166 F 
ENDBRANCH   4  13
BRANCH   3  17
ATOM     17  C   UNL     1      -7.046  -4.442  -6.497  0.00  0.00    +0.102 C 
ATOM     18  N   UNL     1      -7.600  -4.015  -5.602  0.00  0.00    -0.191 NA
ENDBRANCH   3  17
ENDBRANCH   1   2
BRANCH   1  19
ATOM     19  C   UNL     1      -2.489  -3.439  -7.433  0.00  0.00    +0.105 C 
BRANCH  19  23
ATOM     20  C   UNL     1      -0.006  -2.813  -4.924  0.00  0.00    +0.094 C 
ATOM     21  N   UNL     1       0.570  -1.959  -5.986  0.00  0.00    +0.401 N 
ATOM     22  C   UNL     1      -0.250  -2.284  -7.186  0.00  0.00    -0.046 C 
ATOM     23  C   UNL     1      -1.645  -2.514  -6.552  0.00  0.00    +0.110 C 
ATOM     24  O   UNL     1      -1.352  -3.141  -5.291  0.00  0.00    -0.388 OA
ATOM     25  H   UNL     1       0.475  -0.983  -5.747  0.00  0.00    -0.081 HD
ATOM     26  H   UNL     1       1.538  -2.194  -6.144  0.00  0.00    -0.081 HD
BRANCH  20  30
ATOM     27  C   UNL     1      -0.000  -0.695  -1.212  0.00  0.00    +0.029 A 
ATOM     28  C   UNL     1       0.606  -1.942  -1.303  0.00  0.00    +0.023 A 
ATOM     29  C   UNL     1       0.602  -2.623  -2.504  0.00  0.00    +0.006 A 
ATOM     30  C   UNL     1      -0.005  -2.066  -3.615  0.00  0.00    -0.036 A 
ATOM     31  C   UNL     1      -0.609  -0.826  -3.527  0.00  0.00    +0.006 A 
ATOM     32  C   UNL     1      -0.614  -0.141  -2.328  0.00  0.00    +0.023 A 
BRANCH  27  34
ATOM     33  C   UNL     1      -0.644   1.308   0.098  0.00  0.00    +0.129 C 
ATOM     34  N   UNL     1       0.002  -0.003   0.002  0.00  0.00    -0.336 N 
ATOM     35  C   UNL     1       0.649  -0.589   1.178  0.00  0.00    +0.129 C 
ENDBRANCH  27  34
ENDBRANCH  20  30
ENDBRANCH  19  23
ENDBRANCH   1  19
TORSDOF 8
