REMARK  Name = ZINC40010744
REMARK  7 active torsions:
REMARK  status: ('A' for Active; 'I' for Inactive)
REMARK    1  A    between atoms: C_1  and  C_2
REMARK    2  A    between atoms: C_8  and  C_14
REMARK    3  A    between atoms: C_18  and  O_35
REMARK    4  A    between atoms: C_19  and  O_33
REMARK    5  A    between atoms: C_25  and  C_27
REMARK    6  A    between atoms: O_33  and  C_34
REMARK    7  A    between atoms: O_35  and  C_36
REMARK                            x       y       z     vdW  Elec       q    Type
REMARK                         _______ _______ _______ _____ _____    ______ ____
ROOT
ATOM      1  C   UNL     1       1.778  -2.879   4.632  0.00  0.00    +0.122 C 
ATOM      2  C   UNL     1       2.405  -4.231   4.863  0.00  0.00    -0.019 A 
ATOM      3  C   UNL     1       2.694  -5.008   3.749  0.00  0.00    +0.055 A 
ATOM      4  C   UNL     1       3.260  -6.261   3.894  0.00  0.00    +0.162 A 
ATOM      5  C   UNL     1       3.540  -6.745   5.169  0.00  0.00    +0.162 A 
ATOM      6  C   UNL     1       3.255  -5.966   6.274  0.00  0.00    +0.053 A 
ATOM      7  C   UNL     1       2.691  -4.704   6.125  0.00  0.00    -0.037 A 
ATOM      8  C   UNL     1       2.434  -3.904   7.375  0.00  0.00    +0.054 C 
ATOM      9  C   UNL     1       1.409  -2.801   7.114  0.00  0.00    +0.113 C 
ATOM     10  N   UNL     1       1.799  -2.105   5.877  0.00  0.00    -0.293 N 
ATOM     11  C   UNL     1       2.162  -0.807   5.890  0.00  0.00    +0.219 C 
ATOM     12  O   UNL     1       2.545  -0.274   4.870  0.00  0.00    -0.275 OA
ENDROOT
BRANCH   1  20
ATOM     13  C   UNL     1      -2.027  -0.042   0.740  0.00  0.00    +0.045 C 
ATOM     14  C   UNL     1      -1.398  -1.411   0.700  0.00  0.00    -0.029 A 
ATOM     15  C   UNL     1      -1.389  -2.115  -0.462  0.00  0.00    +0.005 A 
ATOM     16  C   UNL     1      -0.824  -3.386  -0.567  0.00  0.00    +0.001 A 
ATOM     17  C   UNL     1      -0.245  -3.994   0.501  0.00  0.00    +0.009 A 
ATOM     18  C   UNL     1      -0.220  -3.291   1.784  0.00  0.00    -0.007 A 
ATOM     19  C   UNL     1       0.350  -3.862   2.883  0.00  0.00    -0.003 C 
ATOM     20  C   UNL     1       0.330  -3.062   4.171  0.00  0.00    +0.123 C 
ATOM     21  C   UNL     1      -0.319  -1.696   4.131  0.00  0.00    +0.226 C 
ATOM     22  O   UNL     1      -0.362  -1.012   5.136  0.00  0.00    -0.275 OA
ATOM     23  N   UNL     1      -0.840  -1.250   3.001  0.00  0.00    -0.284 N 
ATOM     24  C   UNL     1      -0.820  -1.948   1.865  0.00  0.00    +0.043 A 
ATOM     25  H   UNL     1      -1.251  -0.372   2.996  0.00  0.00    +0.155 HD
ENDBRANCH   1  20
BRANCH  11  26
ATOM     26  C   UNL     1       2.091  -0.017   7.171  0.00  0.00    +0.075 C 
ATOM     27  C   UNL     1       0.664   0.493   7.378  0.00  0.00    +0.013 C 
ATOM     28  C   UNL     1       0.592   1.295   8.679  0.00  0.00    +0.001 C 
ATOM     29  C   UNL     1       1.552   2.484   8.599  0.00  0.00    +0.000 C 
ATOM     30  C   UNL     1       2.979   1.974   8.393  0.00  0.00    +0.001 C 
ATOM     31  C   UNL     1       3.051   1.172   7.092  0.00  0.00    +0.013 C 
ENDBRANCH  11  26
BRANCH   5  32
ATOM     32  O   UNL     1       4.092  -7.978   5.326  0.00  0.00    -0.491 OA
ATOM     33  C   UNL     1       4.351  -8.407   6.664  0.00  0.00    +0.277 C 
ENDBRANCH   5  32
BRANCH   4  34
ATOM     34  O   UNL     1       3.542  -7.016   2.799  0.00  0.00    -0.491 OA
ATOM     35  C   UNL     1       3.226  -6.452   1.524  0.00  0.00    +0.277 C 
ENDBRANCH   4  34
TORSDOF 4
