REMARK  Name = ZINC58300879
REMARK  4 active torsions:
REMARK  status: ('A' for Active; 'I' for Inactive)
REMARK    1  A    between atoms: C_1  and  C_2
REMARK    2  A    between atoms: C_4  and  C_8
REMARK    3  A    between atoms: C_13  and  N_14
REMARK    4  A    between atoms: C_15  and  C_17
REMARK                            x       y       z     vdW  Elec       q    Type
REMARK                         _______ _______ _______ _____ _____    ______ ____
ROOT
ATOM      1  N   UNL     1      -0.177  -1.743  -3.653  0.00  0.00    -0.280 N 
ATOM      2  C   UNL     1      -0.380  -1.608  -4.979  0.00  0.00    +0.255 C 
ATOM      3  O   UNL     1      -0.556  -2.594  -5.671  0.00  0.00    -0.269 OA
ATOM      4  H   UNL     1      -0.115  -0.957  -3.089  0.00  0.00    +0.155 HD
ENDROOT
BRANCH   2   5
ATOM      5  C   UNL     1      -0.389  -0.276  -5.585  0.00  0.00    +0.075 A 
ATOM      6  C   UNL     1      -0.584   0.075  -6.915  0.00  0.00    +0.028 A 
ATOM      7  C   UNL     1      -0.555   1.396  -7.277  0.00  0.00    +0.005 A 
ATOM      8  C   UNL     1      -0.326   2.317  -6.243  0.00  0.00    +0.030 A 
ATOM      9  S   UNL     1      -0.160   1.316  -4.803  0.00  0.00    -0.083 S 
ATOM     10  C   UNL     1      -0.278   3.754  -6.475  0.00  0.00    +0.031 A 
ATOM     11  C   UNL     1       0.199   4.675  -5.555  0.00  0.00    +0.012 A 
ATOM     12  C   UNL     1       0.218   6.018  -5.879  0.00  0.00    +0.001 A 
ATOM     13  C   UNL     1      -0.237   6.441  -7.117  0.00  0.00    +0.004 A 
ATOM     14  C   UNL     1      -0.721   5.532  -8.039  0.00  0.00    +0.046 A 
ATOM     15  C   UNL     1      -0.757   4.184  -7.733  0.00  0.00    +0.129 A 
ATOM     16  O   UNL     1      -1.266   3.278  -8.600  0.00  0.00    -0.487 OA
ATOM     17  C   UNL     1      -0.742   1.954  -8.683  0.00  0.00    +0.265 C 
ENDBRANCH   2   5
BRANCH   1  23
ATOM     18  C   UNL     1      -0.548  -3.265  -1.804  0.00  0.00    +0.040 A 
ATOM     19  C   UNL     1      -0.428  -4.542  -1.256  0.00  0.00    +0.013 A 
ATOM     20  C   UNL     1       0.179  -5.548  -1.980  0.00  0.00    +0.001 A 
ATOM     21  C   UNL     1       0.670  -5.295  -3.250  0.00  0.00    +0.002 A 
ATOM     22  C   UNL     1       0.557  -4.036  -3.804  0.00  0.00    +0.024 A 
ATOM     23  C   UNL     1      -0.057  -3.015  -3.092  0.00  0.00    +0.044 A 
BRANCH  18  27
ATOM     24  C   UNL     1      -2.251   1.242  -0.519  0.00  0.00    +0.090 C 
ATOM     25  C   UNL     1      -1.943  -0.232  -0.461  0.00  0.00    +0.148 A 
ATOM     26  N   UNL     1      -1.297  -0.921  -1.398  0.00  0.00    -0.212 NA
ATOM     27  C   UNL     1      -1.197  -2.184  -1.033  0.00  0.00    +0.158 A 
ATOM     28  N   UNL     1      -1.796  -2.313   0.174  0.00  0.00    -0.258 N 
ATOM     29  H   UNL     1      -1.881  -3.126   0.697  0.00  0.00    +0.191 HD
ATOM     30  N   UNL     1      -2.263  -1.035   0.520  0.00  0.00    -0.157 NA
ENDBRANCH  18  27
ENDBRANCH   1  23
TORSDOF 3
