REMARK  Name = ZINC22908600
REMARK  7 active torsions:
REMARK  status: ('A' for Active; 'I' for Inactive)
REMARK    1  A    between atoms: C_1  and  N_2
REMARK    2  A    between atoms: N_5  and  C_8
REMARK    3  A    between atoms: C_8  and  C_10
REMARK    4  A    between atoms: C_8  and  C_24
REMARK    5  A    between atoms: C_10  and  N_11
REMARK    6  A    between atoms: C_12  and  C_14
REMARK    7  A    between atoms: C_17  and  N_21
REMARK                            x       y       z     vdW  Elec       q    Type
REMARK                         _______ _______ _______ _____ _____    ______ ____
ROOT
ATOM      1  C   UNL     1       0.013   0.003  -0.001  0.00  0.00    +0.104 C 
ENDROOT
BRANCH   1   6
ATOM      2  C   UNL     1      -4.811  -0.744  -2.843  0.00  0.00    -0.096 C 
ATOM      3  N   UNL     1      -3.680  -0.269  -2.035  0.00  0.00    +0.379 N 
ATOM      4  C   UNL     1      -3.477  -1.126  -0.858  0.00  0.00    -0.064 C 
ATOM      5  C   UNL     1      -2.344  -0.553  -0.003  0.00  0.00    +0.066 C 
ATOM      6  N   UNL     1      -1.119  -0.471  -0.809  0.00  0.00    -0.297 NA
ATOM      7  C   UNL     1      -1.322   0.385  -1.986  0.00  0.00    +0.066 C 
ATOM      8  C   UNL     1      -2.454  -0.187  -2.841  0.00  0.00    -0.064 C 
ATOM      9  H   UNL     1      -3.922   0.744  -1.680  0.00  0.00    -0.082 HD
ENDBRANCH   1   6
BRANCH   1  10
ATOM     10  C   UNL     1       0.086   1.507  -0.074  0.00  0.00    -0.029 A 
ATOM     11  C   UNL     1      -1.048   2.265   0.149  0.00  0.00    +0.008 A 
ATOM     12  C   UNL     1      -0.981   3.644   0.088  0.00  0.00    +0.038 A 
ATOM     13  C   UNL     1       0.220   4.266  -0.208  0.00  0.00    +0.123 A 
ATOM     14  C   UNL     1       1.354   3.505  -0.437  0.00  0.00    +0.038 A 
ATOM     15  C   UNL     1       1.286   2.126  -0.369  0.00  0.00    +0.008 A 
ATOM     16  F   UNL     1       0.285   5.614  -0.274  0.00  0.00    -0.205 F 
ENDBRANCH   1  10
BRANCH   1  17
ATOM     17  C   UNL     1      -0.183  -0.428   1.454  0.00  0.00    +0.128 C 
BRANCH  17  18
ATOM     18  N   UNL     1      -0.241  -1.890   1.526  0.00  0.00    -0.309 N 
ATOM     19  C   UNL     1      -0.301  -2.503   2.724  0.00  0.00    +0.246 C 
ATOM     20  O   UNL     1      -0.308  -1.844   3.745  0.00  0.00    -0.270 OA
ATOM     21  H   UNL     1      -0.235  -2.487   0.602  0.00  0.00    +0.149 HD
BRANCH  19  22
ATOM     22  C   UNL     1      -0.359  -3.978   2.797  0.00  0.00    +0.055 A 
ATOM     23  C   UNL     1      -0.352  -4.739   1.627  0.00  0.00    +0.017 A 
ATOM     24  C   UNL     1      -0.406  -6.115   1.702  0.00  0.00    +0.033 A 
ATOM     25  C   UNL     1      -0.468  -6.743   2.934  0.00  0.00    +0.128 A 
ATOM     26  C   UNL     1      -0.476  -5.997   4.098  0.00  0.00    +0.053 A 
ATOM     27  C   UNL     1      -0.416  -4.618   4.038  0.00  0.00    +0.055 A 
ATOM     28 CL   UNL     1      -0.418  -3.682   5.500  0.00  0.00    -0.083 Cl
BRANCH  25  29
ATOM     29  N   UNL     1      -0.525  -8.220   3.006  0.00  0.00    +0.056 N 
ATOM     30  O   UNL     1      -0.518  -8.880   1.982  0.00  0.00    -0.126 OA
ATOM     31  O   UNL     1      -0.579  -8.776   4.089  0.00  0.00    -0.126 OA
ENDBRANCH  25  29
ENDBRANCH  19  22
ENDBRANCH  17  18
ENDBRANCH   1  17
TORSDOF 6
