REMARK  Name = ZINC09371057
REMARK  7 active torsions:
REMARK  status: ('A' for Active; 'I' for Inactive)
REMARK    1  A    between atoms: C_1  and  C_2
REMARK    2  A    between atoms: C_5  and  N_9
REMARK    3  A    between atoms: N_11  and  C_12
REMARK    4  A    between atoms: C_12  and  N_14
REMARK    5  A    between atoms: N_14  and  C_15
REMARK    6  A    between atoms: C_24  and  C_29
REMARK    7  A    between atoms: C_26  and  C_28
REMARK                            x       y       z     vdW  Elec       q    Type
REMARK                         _______ _______ _______ _____ _____    ______ ____
ROOT
ATOM      1  N   UNL     1       1.476  -4.224   0.820  0.00  0.00    -0.328 N 
ATOM      2  C   UNL     1       0.675  -5.071   1.533  0.00  0.00    +0.200 C 
ATOM      3  N   UNL     1       0.494  -6.314   1.120  0.00  0.00    -0.159 NA
ATOM      4  N   UNL     1       0.061  -4.633   2.676  0.00  0.00    -0.297 N 
ATOM      5  C   UNL     1       0.173  -3.303   3.058  0.00  0.00    +0.231 A 
ATOM      6  N   UNL     1       0.797  -2.451   2.258  0.00  0.00    -0.217 NA
ATOM      7  C   UNL     1       0.921  -1.177   2.592  0.00  0.00    +0.044 A 
ATOM      8  C   UNL     1       0.391  -0.739   3.795  0.00  0.00    +0.046 A 
ATOM      9  C   UNL     1      -0.255  -1.657   4.608  0.00  0.00    +0.044 A 
ATOM     10  N   UNL     1      -0.350  -2.916   4.211  0.00  0.00    -0.217 NA
ATOM     11  C   UNL     1      -0.848  -1.226   5.925  0.00  0.00    +0.066 C 
ATOM     12  C   UNL     1       1.633  -0.215   1.676  0.00  0.00    +0.066 C 
ATOM     13  H   UNL     1       1.858  -3.442   1.248  0.00  0.00    +0.169 HD
ATOM     14  H   UNL     1      -0.453  -5.251   3.218  0.00  0.00    +0.172 HD
ENDROOT
BRANCH   1  19
ATOM     15  C   UNL     1       2.570  -5.279  -4.646  0.00  0.00    +0.045 C 
ATOM     16  C   UNL     1       2.279  -4.999  -3.194  0.00  0.00    -0.032 A 
ATOM     17  C   UNL     1       2.143  -3.694  -2.757  0.00  0.00    +0.007 A 
ATOM     18  C   UNL     1       1.877  -3.434  -1.427  0.00  0.00    +0.026 A 
ATOM     19  C   UNL     1       1.745  -4.485  -0.527  0.00  0.00    +0.043 A 
ATOM     20  C   UNL     1       1.882  -5.794  -0.969  0.00  0.00    +0.046 A 
ATOM     21  C   UNL     1       2.143  -6.048  -2.302  0.00  0.00    +0.046 A 
ATOM     22 CL   UNL     1       2.308  -7.685  -2.857  0.00  0.00    -0.083 Cl
ENDBRANCH   1  19
BRANCH   3  23
ATOM     23  C   UNL     1      -0.171  -7.186   1.891  0.00  0.00    +0.161 C 
ATOM     24  S   UNL     1      -1.838  -6.953   2.204  0.00  0.00    -0.016 S 
BRANCH  23  25
ATOM     25  N   UNL     1       0.472  -8.246   2.419  0.00  0.00    -0.295 N 
ATOM     26  H   UNL     1       0.688  -8.260   3.365  0.00  0.00    +0.154 HD
BRANCH  25  27
ATOM     27  C   UNL     1       0.828  -9.325   1.604  0.00  0.00    +0.033 A 
ATOM     28  C   UNL     1       0.392  -9.376   0.286  0.00  0.00    +0.023 A 
ATOM     29  C   UNL     1       0.745 -10.443  -0.516  0.00  0.00    +0.002 A 
ATOM     30  C   UNL     1       1.533 -11.460  -0.009  0.00  0.00    +0.000 A 
ATOM     31  C   UNL     1       1.970 -11.412   1.302  0.00  0.00    +0.002 A 
ATOM     32  C   UNL     1       1.624 -10.345   2.108  0.00  0.00    +0.023 A 
ENDBRANCH  25  27
ENDBRANCH  23  25
ENDBRANCH   3  23
TORSDOF 4
