REMARK  Name = ZINC46719300
REMARK  6 active torsions:
REMARK  status: ('A' for Active; 'I' for Inactive)
REMARK    1  A    between atoms: C_1  and  O_2
REMARK    2  A    between atoms: O_2  and  C_3
REMARK    3  A    between atoms: C_7  and  C_15
REMARK    4  A    between atoms: C_11  and  O_13
REMARK    5  A    between atoms: O_13  and  C_14
REMARK    6  A    between atoms: N_17  and  C_18
REMARK                            x       y       z     vdW  Elec       q    Type
REMARK                         _______ _______ _______ _____ _____    ______ ____
ROOT
ATOM      1  C   UNL     1       2.682  -5.237   4.362  0.00  0.00    +0.265 C 
ATOM      2  O   UNL     1       2.428  -6.331   3.894  0.00  0.00    -0.268 OA
ATOM      3  N   UNL     1       3.356  -5.141   5.525  0.00  0.00    -0.279 N 
ATOM      4  H   UNL     1       3.616  -4.271   5.864  0.00  0.00    +0.155 HD
ENDROOT
BRANCH   3   5
ATOM      5  C   UNL     1       3.681  -6.298   6.244  0.00  0.00    +0.056 A 
ATOM      6  C   UNL     1       3.996  -7.470   5.569  0.00  0.00    +0.074 A 
ATOM      7  C   UNL     1       4.318  -8.615   6.280  0.00  0.00    +0.164 A 
ATOM      8  C   UNL     1       4.326  -8.588   7.670  0.00  0.00    +0.164 A 
ATOM      9  C   UNL     1       4.009  -7.418   8.342  0.00  0.00    +0.071 A 
ATOM     10  C   UNL     1       3.693  -6.274   7.633  0.00  0.00    +0.066 A 
ATOM     11 CL   UNL     1       3.303  -4.808   8.478  0.00  0.00    -0.081 Cl
ATOM     12  O   UNL     1       4.647  -9.702   8.386  0.00  0.00    -0.485 OA
ATOM     13  C   UNL     1       4.596 -10.952   7.689  0.00  0.00    +0.270 C 
ATOM     14  C   UNL     1       5.303 -10.779   6.338  0.00  0.00    +0.270 C 
ATOM     15  O   UNL     1       4.622  -9.757   5.603  0.00  0.00    -0.485 OA
ENDBRANCH   3   5
BRANCH   1  20
ATOM     16  C   UNL     1       0.670  -0.620   1.015  0.00  0.00    +0.124 A 
ATOM     17  C   UNL     1       0.721  -1.996   1.067  0.00  0.00    +0.056 A 
ATOM     18  C   UNL     1       1.356  -2.630   2.145  0.00  0.00    +0.007 A 
ATOM     19  C   UNL     1       1.572  -3.987   2.482  0.00  0.00    +0.041 A 
ATOM     20  C   UNL     1       2.255  -4.019   3.657  0.00  0.00    +0.103 A 
ATOM     21  N   UNL     1       2.483  -2.726   4.083  0.00  0.00    -0.348 N 
ATOM     22  H   UNL     1       2.951  -2.473   4.894  0.00  0.00    +0.166 HD
ATOM     23  C   UNL     1       1.938  -1.855   3.165  0.00  0.00    +0.089 A 
ATOM     24  C   UNL     1       1.876  -0.462   3.094  0.00  0.00    +0.147 A 
ATOM     25  C   UNL     1       1.251   0.146   2.023  0.00  0.00    +0.093 A 
BRANCH  16  27
ATOM     26  C   UNL     1       0.042   1.424  -0.027  0.00  0.00    +0.277 C 
ATOM     27  O   UNL     1       0.054  -0.005  -0.030  0.00  0.00    -0.495 OA
ENDBRANCH  16  27
BRANCH  24  28
ATOM     28  O   UNL     1       2.434   0.295   4.075  0.00  0.00    -0.493 OA
ATOM     29  C   UNL     1       2.334   1.714   3.937  0.00  0.00    +0.277 C 
ENDBRANCH  24  28
ENDBRANCH   1  20
TORSDOF 4
