REMARK  Name = ZINC55614341
REMARK  9 active torsions:
REMARK  status: ('A' for Active; 'I' for Inactive)
REMARK    1  A    between atoms: C_1  and  C_2
REMARK    2  A    between atoms: C_4  and  S_10
REMARK    3  A    between atoms: C_6  and  C_7
REMARK    4  A    between atoms: S_10  and  N_13
REMARK    5  A    between atoms: N_13  and  C_14
REMARK    6  A    between atoms: C_19  and  N_20
REMARK    7  A    between atoms: N_23  and  C_24
REMARK    8  A    between atoms: C_24  and  C_25
REMARK    9  A    between atoms: C_24  and  C_26
REMARK                            x       y       z     vdW  Elec       q    Type
REMARK                         _______ _______ _______ _____ _____    ______ ____
ROOT
ATOM      1  C   UNL     1       1.937  -4.431  -3.851  0.00  0.00    +0.095 A 
ATOM      2  C   UNL     1       0.929  -5.066  -4.561  0.00  0.00    +0.028 A 
ATOM      3  C   UNL     1       1.250  -5.944  -5.580  0.00  0.00    +0.002 A 
ATOM      4  C   UNL     1       2.574  -6.191  -5.893  0.00  0.00    +0.002 A 
ATOM      5  C   UNL     1       3.584  -5.562  -5.190  0.00  0.00    +0.025 A 
ATOM      6  C   UNL     1       3.271  -4.676  -4.171  0.00  0.00    +0.059 A 
ENDROOT
BRANCH   6   7
ATOM      7  N   UNL     1       4.295  -4.031  -3.461  0.00  0.00    -0.268 N 
ATOM      8  C   UNL     1       5.503  -3.856  -4.032  0.00  0.00    +0.304 C 
ATOM      9  O   UNL     1       5.676  -4.162  -5.196  0.00  0.00    -0.253 OA
ATOM     10  N   UNL     1       6.519  -3.340  -3.312  0.00  0.00    -0.297 N 
ATOM     11  H   UNL     1       4.133  -3.712  -2.560  0.00  0.00    +0.156 HD
ATOM     12  H   UNL     1       6.381  -3.095  -2.384  0.00  0.00    +0.151 HD
BRANCH  10  13
ATOM     13  C   UNL     1       7.833  -3.149  -3.932  0.00  0.00    +0.068 C 
ATOM     14  C   UNL     1       7.861  -1.804  -4.662  0.00  0.00    +0.027 C 
ATOM     15  C   UNL     1       8.914  -3.165  -2.850  0.00  0.00    +0.027 C 
ENDBRANCH  10  13
ENDBRANCH   6   7
BRANCH   1  16
ATOM     16  N   UNL     1       1.614  -3.541  -2.820  0.00  0.00    -0.096 NA
BRANCH  16  17
ATOM     17  S   UNL     1       0.028  -3.252  -2.441  0.00  0.00    +0.098 S 
ATOM     18  O   UNL     1      -0.495  -4.469  -1.927  0.00  0.00    -0.148 OA
ATOM     19  O   UNL     1      -0.542  -2.590  -3.562  0.00  0.00    -0.148 OA
BRANCH  17  23
ATOM     20  C   UNL     1      -0.054   1.498  -0.027  0.00  0.00    +0.045 C 
ATOM     21  C   UNL     1      -0.024  -0.009  -0.025  0.00  0.00    -0.027 A 
ATOM     22  C   UNL     1      -0.015  -0.741  -1.185  0.00  0.00    +0.041 A 
ATOM     23  C   UNL     1       0.013  -2.096  -1.111  0.00  0.00    +0.149 A 
ATOM     24  S   UNL     1       0.028  -2.419   0.537  0.00  0.00    -0.061 S 
ATOM     25  C   UNL     1       0.003  -0.746   1.153  0.00  0.00    +0.105 A 
BRANCH  25  26
ATOM     26  C   UNL     1       0.008  -0.288   2.495  0.00  0.00    +0.393 C 
ATOM     27  O   UNL     1      -0.014   0.914   2.731  0.00  0.00    -0.240 OA
ATOM     28  O   UNL     1       0.034  -1.093   3.417  0.00  0.00    -0.240 OA
ENDBRANCH  25  26
ENDBRANCH  17  23
ENDBRANCH  16  17
ENDBRANCH   1  16
TORSDOF 6
