REMARK  Name = ZINC09270464
REMARK  2 active torsions:
REMARK  status: ('A' for Active; 'I' for Inactive)
REMARK    1  A    between atoms: C_1  and  N_51
REMARK    2  A    between atoms: C_11  and  C_13
REMARK                            x       y       z     vdW  Elec       q    Type
REMARK                         _______ _______ _______ _____ _____    ______ ____
ROOT
ATOM      1  C   UNL     1      -1.902  -0.535  -5.132  0.00  0.00    -0.096 C 
ATOM      2  C   UNL     1      -1.799   1.564  -3.930  0.00  0.00    -0.074 C 
ATOM      3  C   UNL     1      -2.392   2.342  -2.752  0.00  0.00    +0.052 C 
ATOM      4  C   UNL     1      -2.049   1.625  -1.448  0.00  0.00    +0.189 C 
ATOM      5  C   UNL     1      -2.565   0.188  -1.496  0.00  0.00    +0.052 C 
ATOM      6  C   UNL     1      -1.966  -0.525  -2.712  0.00  0.00    -0.074 C 
ATOM      7  N   UNL     1      -0.598   1.630  -1.238  0.00  0.00    -0.207 N 
ATOM      8  C   UNL     1      -0.013   1.086   0.008  0.00  0.00    +0.136 C 
ATOM      9  C   UNL     1       1.408   1.667  -0.002  0.00  0.00    +0.086 C 
ATOM     10  C   UNL     1       1.550   2.239  -1.398  0.00  0.00    +0.069 C 
ATOM     11  N   UNL     1       0.415   2.166  -2.012  0.00  0.00    -0.185 NA
ATOM     12  C   UNL     1      -0.831   1.618   1.156  0.00  0.00    +0.018 A 
ATOM     13  C   UNL     1      -0.317   1.554   2.437  0.00  0.00    +0.024 A 
ATOM     14  C   UNL     1      -1.054   2.019   3.510  0.00  0.00    +0.018 A 
ATOM     15  C   UNL     1      -2.313   2.550   3.297  0.00  0.00    +0.019 A 
ATOM     16  C   UNL     1      -2.831   2.670   1.976  0.00  0.00    +0.047 A 
ATOM     17  C   UNL     1      -2.083   2.195   0.898  0.00  0.00    +0.129 A 
ATOM     18  O   UNL     1      -2.628   2.316  -0.340  0.00  0.00    -0.467 OA
ATOM     19 BR   UNL     1      -0.343   1.931   5.260  0.00  0.00    -0.050 Br
ATOM     20  N   UNL     1      -2.367   0.199  -3.937  0.00  0.00    +0.378 N 
ATOM     21  H   UNL     1      -3.392   0.265  -3.964  0.00  0.00    -0.082 HD
ENDROOT
BRANCH  10  22
ATOM     22  C   UNL     1       2.792   2.795  -1.967  0.00  0.00    +0.001 A 
ATOM     23  C   UNL     1       3.962   2.822  -1.204  0.00  0.00    +0.013 A 
ATOM     24  C   UNL     1       5.122   3.341  -1.739  0.00  0.00    +0.050 A 
ATOM     25  C   UNL     1       5.132   3.839  -3.034  0.00  0.00    +0.166 A 
ATOM     26  C   UNL     1       3.968   3.815  -3.801  0.00  0.00    +0.167 A 
ATOM     27  C   UNL     1       2.803   3.291  -3.273  0.00  0.00    +0.059 A 
ATOM     28  O   UNL     1       4.241   4.356  -5.025  0.00  0.00    -0.453 OA
ATOM     29  C   UNL     1       5.473   5.083  -4.857  0.00  0.00    +0.466 C 
ATOM     30  O   UNL     1       6.133   4.395  -3.779  0.00  0.00    -0.453 OA
ENDBRANCH  10  22
TORSDOF 1
