REMARK  Name = ZINC39639398
REMARK  6 active torsions:
REMARK  status: ('A' for Active; 'I' for Inactive)
REMARK    1  A    between atoms: C_1  and  C_2
REMARK    2  A    between atoms: C_5  and  C_8
REMARK    3  A    between atoms: C_8  and  C_10
REMARK    4  A    between atoms: C_8  and  N_11
REMARK    5  A    between atoms: C_12  and  C_14
REMARK    6  A    between atoms: C_25  and  C_27
REMARK                            x       y       z     vdW  Elec       q    Type
REMARK                         _______ _______ _______ _____ _____    ______ ____
ROOT
ATOM      1  C   UNL     1       2.465  -6.463   2.010  0.00  0.00    +0.100 C 
ATOM      2  C   UNL     1       1.735  -6.497   3.372  0.00  0.00    +0.121 C 
ATOM      3  N   UNL     1       1.238  -7.888   3.495  0.00  0.00    -0.296 N 
ATOM      4  C   UNL     1       2.335  -8.722   2.948  0.00  0.00    +0.115 C 
ATOM      5  C   UNL     1       2.861  -7.924   1.738  0.00  0.00    -0.004 C 
ATOM      6  C   UNL     1       2.201  -8.419   0.454  0.00  0.00    -0.010 C 
ATOM      7  C   UNL     1       2.654  -9.855   0.174  0.00  0.00    -0.082 C 
ATOM      8  N   UNL     1       4.115  -9.892   0.042  0.00  0.00    +0.379 N 
ATOM      9  C   UNL     1       4.743  -9.502   1.311  0.00  0.00    -0.082 C 
ATOM     10  C   UNL     1       4.378  -8.052   1.639  0.00  0.00    -0.010 C 
ATOM     11  C   UNL     1       0.056  -8.302   3.993  0.00  0.00    +0.248 C 
ATOM     12  O   UNL     1      -0.787  -7.486   4.317  0.00  0.00    -0.270 OA
ATOM     13  H   UNL     1       4.406 -10.826  -0.203  0.00  0.00    -0.086 HD
ATOM     14  H   UNL     1       4.402  -9.252  -0.684  0.00  0.00    -0.086 HD
ENDROOT
BRANCH  11  15
ATOM     15  C   UNL     1      -0.216  -9.737   4.143  0.00  0.00    +0.052 A 
ATOM     16  C   UNL     1       0.773 -10.605   4.479  0.00  0.00    +0.059 A 
ATOM     17  S   UNL     1       0.041 -12.113   4.542  0.00  0.00    -0.096 S 
ATOM     18  C   UNL     1      -1.623 -11.671   4.124  0.00  0.00    +0.020 A 
ATOM     19  C   UNL     1      -1.563 -10.276   3.941  0.00  0.00    +0.001 A 
ATOM     20  C   UNL     1      -2.759  -9.618   3.599  0.00  0.00    +0.010 A 
ATOM     21  C   UNL     1      -3.926 -10.327   3.459  0.00  0.00    +0.001 A 
ATOM     22  C   UNL     1      -3.960 -11.700   3.650  0.00  0.00    +0.001 A 
ATOM     23  C   UNL     1      -2.799 -12.374   3.976  0.00  0.00    +0.015 A 
ENDBRANCH  11  15
BRANCH   1  25
ATOM     24  N   UNL     1       2.041  -5.282  -0.121  0.00  0.00    -0.308 N 
ATOM     25  C   UNL     1       1.541  -5.959   0.932  0.00  0.00    +0.219 C 
ATOM     26  O   UNL     1       0.348  -6.164   1.011  0.00  0.00    -0.275 OA
ATOM     27  H   UNL     1       2.995  -5.119  -0.184  0.00  0.00    +0.149 HD
BRANCH  24  28
ATOM     28  C   UNL     1       1.142  -4.792  -1.170  0.00  0.00    +0.100 C 
ATOM     29  C   UNL     1       0.568  -3.436  -0.757  0.00  0.00    +0.033 C 
BRANCH  28  34
ATOM     30  C   UNL     1       4.083  -4.211  -6.110  0.00  0.00    +0.044 C 
ATOM     31  C   UNL     1       3.316  -4.363  -4.822  0.00  0.00    -0.050 A 
ATOM     32  C   UNL     1       2.029  -4.866  -4.839  0.00  0.00    +0.004 A 
ATOM     33  C   UNL     1       1.325  -5.005  -3.657  0.00  0.00    +0.006 A 
ATOM     34  C   UNL     1       1.909  -4.641  -2.458  0.00  0.00    -0.027 A 
ATOM     35  C   UNL     1       3.197  -4.139  -2.441  0.00  0.00    +0.006 A 
ATOM     36  C   UNL     1       3.902  -4.004  -3.622  0.00  0.00    +0.004 A 
ENDBRANCH  28  34
ENDBRANCH  24  28
ENDBRANCH   1  25
TORSDOF 4
