REMARK  Name = ZINC43158061
REMARK  7 active torsions:
REMARK  status: ('A' for Active; 'I' for Inactive)
REMARK    1  A    between atoms: C_1  and  N_2
REMARK    2  A    between atoms: N_2  and  C_3
REMARK    3  A    between atoms: N_2  and  C_4
REMARK    4  A    between atoms: C_4  and  C_6
REMARK    5  A    between atoms: C_4  and  C_18
REMARK    6  A    between atoms: C_6  and  N_7
REMARK    7  A    between atoms: N_10  and  C_11
REMARK                            x       y       z     vdW  Elec       q    Type
REMARK                         _______ _______ _______ _____ _____    ______ ____
ROOT
ATOM      1  N   UNL     1      -1.194  -2.661   1.133  0.00  0.00    -0.300 N 
ATOM      2  C   UNL     1      -1.432  -3.973   1.327  0.00  0.00    +0.304 C 
ATOM      3  O   UNL     1      -2.034  -4.613   0.487  0.00  0.00    -0.253 OA
ATOM      4  N   UNL     1      -1.002  -4.576   2.453  0.00  0.00    -0.269 N 
ATOM      5  H   UNL     1      -0.714  -2.150   1.803  0.00  0.00    +0.150 HD
ATOM      6  H   UNL     1      -0.579  -4.053   3.152  0.00  0.00    +0.156 HD
ENDROOT
BRANCH   4   7
ATOM      7  C   UNL     1      -1.167  -5.957   2.615  0.00  0.00    +0.048 A 
ATOM      8  C   UNL     1      -1.114  -6.798   1.511  0.00  0.00    +0.024 A 
ATOM      9  C   UNL     1      -1.277  -8.159   1.673  0.00  0.00    +0.002 A 
ATOM     10  C   UNL     1      -1.494  -8.686   2.934  0.00  0.00    +0.001 A 
ATOM     11  C   UNL     1      -1.547  -7.852   4.035  0.00  0.00    +0.016 A 
ATOM     12  C   UNL     1      -1.378  -6.489   3.880  0.00  0.00    +0.035 A 
ATOM     13  I   UNL     1      -1.450  -5.227   5.551  0.00  0.00    -0.042 I 
ENDBRANCH   4   7
BRANCH   1  14
ATOM     14  C   UNL     1      -1.662  -2.006  -0.092  0.00  0.00    +0.098 C 
BRANCH  14  15
ATOM     15  C   UNL     1      -1.378  -0.505  -0.007  0.00  0.00    +0.016 C 
BRANCH  15  16
ATOM     16  C   UNL     1       0.111  -0.275   0.019  0.00  0.00    +0.093 A 
ATOM     17  C   UNL     1       0.868   0.095  -1.029  0.00  0.00    +0.043 A 
ATOM     18  C   UNL     1       2.198   0.193  -0.560  0.00  0.00    +0.041 A 
ATOM     19  C   UNL     1       2.175  -0.124   0.747  0.00  0.00    +0.195 A 
ATOM     20  O   UNL     1       0.907  -0.401   1.094  0.00  0.00    -0.469 OA
ENDBRANCH  15  16
BRANCH  15  22
ATOM     21  C   UNL     1      -1.788   1.495   1.254  0.00  0.00    -0.096 C 
ATOM     22  N   UNL     1      -1.978   0.039   1.219  0.00  0.00    +0.384 N 
ATOM     23  C   UNL     1      -3.415  -0.268   1.239  0.00  0.00    -0.096 C 
ATOM     24  H   UNL     1      -1.534  -0.378   2.024  0.00  0.00    -0.082 HD
ENDBRANCH  15  22
ENDBRANCH  14  15
ENDBRANCH   1  14
TORSDOF 5
