REMARK  Name = ZINC63633133
REMARK  8 active torsions:
REMARK  status: ('A' for Active; 'I' for Inactive)
REMARK    1  A    between atoms: C_1  and  C_2
REMARK    2  A    between atoms: C_7  and  N_8
REMARK    3  A    between atoms: C_12  and  N_16
REMARK    4  A    between atoms: N_16  and  C_17
REMARK    5  A    between atoms: C_17  and  C_18
REMARK    6  A    between atoms: C_18  and  C_19
REMARK    7  A    between atoms: C_22  and  O_28
REMARK    8  A    between atoms: O_28  and  C_29
REMARK                            x       y       z     vdW  Elec       q    Type
REMARK                         _______ _______ _______ _____ _____    ______ ____
ROOT
ATOM      1  N   UNL     1       1.343   0.371   5.482  0.00  0.00    +0.387 N 
ATOM      2  H   UNL     1       0.954   0.760   6.327  0.00  0.00    -0.085 HD
ATOM      3  H   UNL     1       1.102  -0.606   5.419  0.00  0.00    -0.085 HD
ENDROOT
BRANCH   1   8
ATOM      4  N   UNL     1       0.025  -0.013   2.419  0.00  0.00    -0.212 N 
ATOM      5  C   UNL     1      -1.099   0.325   3.062  0.00  0.00    +0.225 C 
ATOM      6  O   UNL     1      -2.225   0.081   2.684  0.00  0.00    -0.275 OA
ATOM      7  C   UNL     1      -0.743   1.057   4.337  0.00  0.00    +0.090 C 
ATOM      8  C   UNL     1       0.799   1.085   4.319  0.00  0.00    +0.026 C 
ATOM      9  C   UNL     1       1.152   0.360   3.038  0.00  0.00    +0.213 C 
ATOM     10  O   UNL     1       2.276   0.152   2.636  0.00  0.00    -0.277 OA
BRANCH   4  17
ATOM     11  C   UNL     1      -0.018   1.503   0.010  0.00  0.00    +0.045 C 
ATOM     12  C   UNL     1       0.002  -0.004   0.002  0.00  0.00    -0.029 A 
ATOM     13  C   UNL     1       0.006  -0.689  -1.198  0.00  0.00    +0.005 A 
ATOM     14  C   UNL     1       0.025  -2.071  -1.206  0.00  0.00    +0.000 A 
ATOM     15  C   UNL     1       0.041  -2.773  -0.014  0.00  0.00    +0.002 A 
ATOM     16  C   UNL     1       0.037  -2.094   1.188  0.00  0.00    +0.024 A 
ATOM     17  C   UNL     1       0.023  -0.705   1.200  0.00  0.00    +0.047 A 
ENDBRANCH   4  17
ENDBRANCH   1   8
BRANCH   1  18
ATOM     18  C   UNL     1       2.805   0.515   5.505  0.00  0.00    -0.077 C 
BRANCH  18  19
ATOM     19  C   UNL     1       3.372  -0.229   6.716  0.00  0.00    +0.014 C 
BRANCH  19  20
ATOM     20  C   UNL     1       4.871  -0.082   6.739  0.00  0.00    -0.043 C 
ATOM     21  C   UNL     1       5.587   0.836   7.428  0.00  0.00    +0.002 A 
ATOM     22  C   UNL     1       5.202   1.929   8.327  0.00  0.00    +0.055 A 
ATOM     23  C   UNL     1       6.163   2.704   8.885  0.00  0.00    +0.121 A 
ATOM     24  C   UNL     1       7.531   2.499   8.635  0.00  0.00    +0.047 A 
ATOM     25  C   UNL     1       7.983   1.520   7.824  0.00  0.00    +0.029 A 
ATOM     26  C   UNL     1       7.029   0.621   7.166  0.00  0.00    +0.043 A 
ATOM     27  N   UNL     1       7.197  -0.388   6.348  0.00  0.00    -0.380 N 
ATOM     28  C   UNL     1       5.880  -0.934   6.003  0.00  0.00    +0.144 C 
ATOM     29  H   UNL     1       8.050  -0.721   6.028  0.00  0.00    +0.160 HD
BRANCH  23  30
ATOM     30  O   UNL     1       5.791   3.714   9.715  0.00  0.00    -0.495 OA
ATOM     31  C   UNL     1       6.837   4.506  10.282  0.00  0.00    +0.277 C 
ENDBRANCH  23  30
ENDBRANCH  19  20
ENDBRANCH  18  19
ENDBRANCH   1  18
TORSDOF 6
