REMARK  Name = ZINC36360047
REMARK  2 active torsions:
REMARK  status: ('A' for Active; 'I' for Inactive)
REMARK    1  A    between atoms: C_3  and  C_8
REMARK    2  A    between atoms: C_11  and  O_24
REMARK                            x       y       z     vdW  Elec       q    Type
REMARK                         _______ _______ _______ _____ _____    ______ ____
ROOT
ATOM      1  C   UNL     1       3.672   2.183  -0.022  0.00  0.00    +0.068 C 
ATOM      2  C   UNL     1       4.514   1.806   1.207  0.00  0.00    +0.109 C 
ATOM      3  C   UNL     1       5.958   2.151   0.985  0.00  0.00    +0.190 C 
ATOM      4  N   UNL     1       6.552   2.120  -0.160  0.00  0.00    -0.197 NA
ATOM      5  C   UNL     1       5.837   1.796  -1.309  0.00  0.00    +0.169 A 
ATOM      6  C   UNL     1       4.463   1.830  -1.233  0.00  0.00    +0.045 A 
ATOM      7  S   UNL     1       3.967   1.369  -2.866  0.00  0.00    -0.054 S 
ATOM      8  C   UNL     1       5.613   1.189  -3.545  0.00  0.00    +0.163 A 
ATOM      9  N   UNL     1       6.367   1.476  -2.495  0.00  0.00    -0.206 NA
ATOM     10  N   UNL     1       5.998   0.839  -4.829  0.00  0.00    -0.305 N 
ATOM     11  C   UNL     1       4.996   0.556  -5.869  0.00  0.00    +0.135 C 
ATOM     12  C   UNL     1       5.345   1.381  -7.113  0.00  0.00    +0.179 C 
ATOM     13  O   UNL     1       6.711   1.146  -7.466  0.00  0.00    -0.377 OA
ATOM     14  C   UNL     1       7.651   1.554  -6.470  0.00  0.00    +0.179 C 
ATOM     15  C   UNL     1       7.420   0.744  -5.194  0.00  0.00    +0.135 C 
ENDROOT
BRANCH   1  18
ATOM     16  C   UNL     1      -0.017   1.378   0.010  0.00  0.00    +0.001 A 
ATOM     17  C   UNL     1       1.171   2.086   0.002  0.00  0.00    +0.004 A 
ATOM     18  C   UNL     1       2.378   1.411  -0.013  0.00  0.00    -0.038 A 
ATOM     19  C   UNL     1       2.397   0.029  -0.022  0.00  0.00    +0.019 A 
ATOM     20  C   UNL     1       1.210  -0.679  -0.014  0.00  0.00    +0.018 A 
ATOM     21  C   UNL     1       0.002  -0.004   0.002  0.00  0.00    +0.015 A 
ATOM     22 BR   UNL     1       1.236  -2.570  -0.025  0.00  0.00    -0.050 Br
ENDBRANCH   1  18
BRANCH   3  23
ATOM     23  O   UNL     1       6.687   2.519   2.059  0.00  0.00    -0.495 OA
ATOM     24  H   UNL     1       7.609   2.730   1.856  0.00  0.00    +0.293 HD
ENDBRANCH   3  23
TORSDOF 2
