REMARK  Name = ZINC08824558
REMARK  5 active torsions:
REMARK  status: ('A' for Active; 'I' for Inactive)
REMARK    1  A    between atoms: C_1  and  C_2
REMARK    2  A    between atoms: C_4  and  C_32
REMARK    3  A    between atoms: C_8  and  C_31
REMARK    4  A    between atoms: N_14  and  S_17
REMARK    5  A    between atoms: S_17  and  C_20
REMARK                            x       y       z     vdW  Elec       q    Type
REMARK                         _______ _______ _______ _____ _____    ______ ____
ROOT
ATOM      1  C   UNL     1       9.684   3.212   1.681  0.00  0.00    +0.044 C 
ATOM      2  C   UNL     1       8.286   2.664   1.551  0.00  0.00    -0.050 A 
ATOM      3  C   UNL     1       8.097   1.294   1.391  0.00  0.00    +0.008 A 
ATOM      4  C   UNL     1       6.848   0.766   1.270  0.00  0.00    -0.026 A 
ATOM      5  C   UNL     1       5.727   1.613   1.308  0.00  0.00    +0.051 A 
ATOM      6  C   UNL     1       5.921   3.006   1.472  0.00  0.00    +0.002 A 
ATOM      7  C   UNL     1       7.224   3.515   1.593  0.00  0.00    +0.013 A 
ATOM      8  C   UNL     1       4.797   3.856   1.511  0.00  0.00    -0.038 A 
ATOM      9  C   UNL     1       3.561   3.298   1.384  0.00  0.00    +0.045 A 
ATOM     10  C   UNL     1       3.434   1.910   1.230  0.00  0.00    +0.099 A 
ATOM     11  N   UNL     1       2.168   1.356   1.108  0.00  0.00    -0.314 N 
ATOM     12  C   UNL     1       1.428   1.973  -0.001  0.00  0.00    +0.123 C 
ATOM     13  C   UNL     1      -0.018   1.467   0.010  0.00  0.00    +0.128 C 
ATOM     14  N   UNL     1       0.002  -0.004   0.002  0.00  0.00    -0.174 NA
ATOM     15  C   UNL     1       0.833  -0.694   1.000  0.00  0.00    +0.128 C 
ATOM     16  C   UNL     1       2.246  -0.103   0.950  0.00  0.00    +0.123 C 
ATOM     17  C   UNL     1       4.959   5.345   1.683  0.00  0.00    +0.044 C 
ATOM     18  C   UNL     1       6.668  -0.720   1.097  0.00  0.00    +0.046 C 
ATOM     19  N   UNL     1       4.478   1.046   1.185  0.00  0.00    -0.343 N 
ATOM     20  H   UNL     1       4.346   0.035   1.067  0.00  0.00    +0.167 HD
ENDROOT
BRANCH  14  21
ATOM     21  S   UNL     1      -0.888  -0.860  -1.101  0.00  0.00    +0.061 S 
ATOM     22  O   UNL     1      -1.112  -2.144  -0.534  0.00  0.00    -0.153 OA
ATOM     23  O   UNL     1      -1.952  -0.012  -1.510  0.00  0.00    -0.153 OA
BRANCH  21  24
ATOM     24  C   UNL     1       0.133  -1.106  -2.516  0.00  0.00    +0.109 A 
ATOM     25  C   UNL     1       0.123  -0.179  -3.542  0.00  0.00    +0.032 A 
ATOM     26  C   UNL     1       0.926  -0.363  -4.654  0.00  0.00    +0.051 A 
ATOM     27  C   UNL     1       1.732  -1.485  -4.740  0.00  0.00    +0.162 A 
ATOM     28  C   UNL     1       1.737  -2.418  -3.713  0.00  0.00    +0.164 A 
ATOM     29  C   UNL     1       0.937  -2.229  -2.600  0.00  0.00    +0.078 A 
ATOM     30  O   UNL     1       2.536  -3.521  -3.808  0.00  0.00    -0.488 OA
ATOM     31  C   UNL     1       2.173  -4.471  -4.811  0.00  0.00    +0.232 C 
ATOM     32  C   UNL     1       2.748  -4.076  -6.162  0.00  0.00    +0.082 C 
ATOM     33  C   UNL     1       2.162  -2.772  -6.681  0.00  0.00    +0.232 C 
ATOM     34  O   UNL     1       2.525  -1.681  -5.833  0.00  0.00    -0.488 OA
ENDBRANCH  21  24
ENDBRANCH  14  21
TORSDOF 2
