REMARK  Name = ZINC66939135
REMARK  10 active torsions:
REMARK  status: ('A' for Active; 'I' for Inactive)
REMARK    1  A    between atoms: C_1  and  N_2
REMARK    2  A    between atoms: N_2  and  C_3
REMARK    3  A    between atoms: N_2  and  C_4
REMARK    4  A    between atoms: C_4  and  C_5
REMARK    5  A    between atoms: C_8  and  C_11
REMARK    6  A    between atoms: C_16  and  C_17
REMARK    7  A    between atoms: C_17  and  N_18
REMARK    8  A    between atoms: N_18  and  C_19
REMARK    9  A    between atoms: C_19  and  C_21
REMARK   10  A    between atoms: C_19  and  C_28
REMARK                            x       y       z     vdW  Elec       q    Type
REMARK                         _______ _______ _______ _____ _____    ______ ____
ROOT
ATOM      1  C   UNL     1      -1.406  -6.616  -0.290  0.00  0.00    -0.013 A 
ATOM      2  C   UNL     1      -2.325  -7.422  -0.960  0.00  0.00    +0.009 A 
ATOM      3  C   UNL     1      -2.044  -8.756  -1.171  0.00  0.00    +0.001 A 
ATOM      4  C   UNL     1      -0.852  -9.294  -0.719  0.00  0.00    +0.000 A 
ATOM      5  C   UNL     1       0.064  -8.500  -0.054  0.00  0.00    +0.005 A 
ATOM      6  C   UNL     1      -0.205  -7.162   0.158  0.00  0.00    -0.026 A 
ENDROOT
BRANCH   1  10
ATOM      7  C   UNL     1      -2.255  -2.502   0.368  0.00  0.00    -0.064 A 
ATOM      8  C   UNL     1      -3.131  -3.468   0.828  0.00  0.00    +0.002 A 
ATOM      9  C   UNL     1      -2.860  -4.805   0.617  0.00  0.00    +0.009 A 
ATOM     10  C   UNL     1      -1.702  -5.180  -0.061  0.00  0.00    -0.018 A 
ATOM     11  C   UNL     1      -0.824  -4.202  -0.523  0.00  0.00    +0.009 A 
ATOM     12  C   UNL     1      -1.107  -2.868  -0.311  0.00  0.00    +0.002 A 
BRANCH   7  13
ATOM     13  C   UNL     1      -2.556  -1.044   0.601  0.00  0.00    -0.044 C 
BRANCH  13  15
ATOM     14  C   UNL     1      -3.742   0.865  -0.239  0.00  0.00    -0.096 C 
ATOM     15  N   UNL     1      -3.347  -0.521  -0.521  0.00  0.00    +0.379 N 
ATOM     16  C   UNL     1      -2.541  -0.560  -1.749  0.00  0.00    -0.096 C 
ATOM     17  H   UNL     1      -4.173  -1.088  -0.643  0.00  0.00    -0.082 HD
ENDBRANCH  13  15
ENDBRANCH   7  13
ENDBRANCH   1  10
BRANCH   6  18
ATOM     18  C   UNL     1       0.796  -6.296   0.877  0.00  0.00    +0.118 C 
BRANCH  18  19
ATOM     19  N   UNL     1       0.344  -6.067   2.256  0.00  0.00    -0.298 NA
ATOM     20  H   UNL     1      -0.559  -5.619   2.271  0.00  0.00    +0.123 HD
BRANCH  19  21
ATOM     21  C   UNL     1       1.333  -5.285   3.011  0.00  0.00    +0.171 C 
BRANCH  21  22
ATOM     22  C   UNL     1       0.643  -4.558   4.138  0.00  0.00    -0.021 A 
ATOM     23  C   UNL     1      -0.348  -5.191   4.863  0.00  0.00    +0.008 A 
ATOM     24  C   UNL     1      -0.981  -4.526   5.896  0.00  0.00    +0.038 A 
ATOM     25  C   UNL     1      -0.620  -3.225   6.205  0.00  0.00    +0.123 A 
ATOM     26  C   UNL     1       0.373  -2.592   5.477  0.00  0.00    +0.038 A 
ATOM     27  C   UNL     1       1.008  -3.261   4.448  0.00  0.00    +0.008 A 
ATOM     28  F   UNL     1      -1.238  -2.574   7.215  0.00  0.00    -0.205 F 
ENDBRANCH  21  22
BRANCH  21  29
ATOM     29  C   UNL     1       2.380  -6.210   3.576  0.00  0.00    +0.232 C 
ATOM     30  O   UNL     1       2.310  -7.403   3.370  0.00  0.00    -0.274 OA
ATOM     31  N   UNL     1       3.394  -5.711   4.310  0.00  0.00    -0.328 N 
ATOM     32  H   UNL     1       3.450  -4.756   4.475  0.00  0.00    +0.145 HD
ATOM     33  H   UNL     1       4.068  -6.306   4.674  0.00  0.00    +0.145 HD
ENDBRANCH  21  29
ENDBRANCH  19  21
ENDBRANCH  18  19
ENDBRANCH   6  18
TORSDOF 8
