REMARK  Name = ZINC41659681
REMARK  2 active torsions:
REMARK  status: ('A' for Active; 'I' for Inactive)
REMARK    1  A    between atoms: C_6  and  C_7
REMARK    2  A    between atoms: N_19  and  C_22
REMARK                            x       y       z     vdW  Elec       q    Type
REMARK                         _______ _______ _______ _____ _____    ______ ____
ROOT
ATOM      1  C   UNL     1      -1.258  -0.760   0.011  0.00  0.00    +0.058 C 
ATOM      2  C   UNL     1      -1.239  -2.112  -0.099  0.00  0.00    +0.176 C 
ATOM      3  C   UNL     1      -0.041  -2.965  -0.124  0.00  0.00    +0.231 C 
ATOM      4  O   UNL     1       1.125  -2.617  -0.052  0.00  0.00    -0.283 OA
ATOM      5  C   UNL     1      -0.567  -4.336  -0.255  0.00  0.00    +0.068 A 
ATOM      6  C   UNL     1       0.041  -5.589  -0.335  0.00  0.00    +0.019 A 
ATOM      7  C   UNL     1      -0.727  -6.711  -0.455  0.00  0.00    +0.047 A 
ATOM      8  C   UNL     1      -2.118  -6.612  -0.498  0.00  0.00    +0.130 A 
ATOM      9  C   UNL     1      -2.733  -5.375  -0.418  0.00  0.00    +0.051 A 
ATOM     10  C   UNL     1      -1.965  -4.221  -0.298  0.00  0.00    +0.147 A 
ATOM     11  O   UNL     1      -2.319  -2.921  -0.200  0.00  0.00    -0.451 OA
ATOM     12  C   UNL     1      -4.236  -5.254  -0.457  0.00  0.00    +0.130 C 
ATOM     13  N   UNL     1      -4.816  -6.494  -0.990  0.00  0.00    -0.261 NA
ATOM     14  C   UNL     1      -4.244  -7.661  -0.298  0.00  0.00    +0.319 C 
ATOM     15  O   UNL     1      -2.854  -7.747  -0.622  0.00  0.00    -0.476 OA
ENDROOT
BRANCH   1  21
ATOM     16  C   UNL     1       0.986  -0.370  -0.989  0.00  0.00    +0.009 A 
ATOM     17  C   UNL     1       2.159   0.350  -1.060  0.00  0.00    +0.016 A 
ATOM     18  C   UNL     1       2.360   1.438  -0.227  0.00  0.00    +0.018 A 
ATOM     19  C   UNL     1       1.385   1.812   0.684  0.00  0.00    +0.016 A 
ATOM     20  C   UNL     1       0.207   1.102   0.767  0.00  0.00    +0.009 A 
ATOM     21  C   UNL     1      -0.004   0.002  -0.072  0.00  0.00    -0.021 A 
ATOM     22 BR   UNL     1       3.974   2.418  -0.333  0.00  0.00    -0.050 Br
ENDBRANCH   1  21
BRANCH  13  23
ATOM     23  C   UNL     1      -6.281  -6.481  -0.877  0.00  0.00    +0.083 C 
ATOM     24  C   UNL     1      -6.844  -5.298  -1.682  0.00  0.00    +0.043 C 
ATOM     25  C   UNL     1      -8.383  -5.487  -1.807  0.00  0.00    +0.167 C 
ATOM     26  S   UNL     1      -8.476  -7.300  -2.117  0.00  0.00    -0.029 S 
ATOM     27  O   UNL     1      -9.512  -7.853  -1.317  0.00  0.00    -0.174 OA
ATOM     28  O   UNL     1      -8.477  -7.530  -3.519  0.00  0.00    -0.174 OA
ATOM     29  C   UNL     1      -6.850  -7.811  -1.428  0.00  0.00    +0.184 C 
ENDBRANCH  13  23
TORSDOF 2
