REMARK  Name = ZINC12701870
REMARK  13 active torsions:
REMARK  status: ('A' for Active; 'I' for Inactive)
REMARK    1  A    between atoms: C_1  and  C_2
REMARK    2  A    between atoms: C_5  and  N_9
REMARK    3  A    between atoms: C_6  and  C_8
REMARK    4  A    between atoms: N_9  and  C_10
REMARK    5  A    between atoms: C_10  and  C_12
REMARK    6  A    between atoms: C_10  and  C_16
REMARK    7  A    between atoms: C_12  and  C_13
REMARK    8  A    between atoms: C_13  and  C_14
REMARK    9  A    between atoms: C_13  and  C_15
REMARK   10  A    between atoms: N_18  and  C_19
REMARK   11  A    between atoms: C_24  and  C_26
REMARK   12  A    between atoms: C_27  and  N_34
REMARK   13  A    between atoms: C_28  and  C_31
REMARK                            x       y       z     vdW  Elec       q    Type
REMARK                         _______ _______ _______ _____ _____    ______ ____
ROOT
ATOM      1  N   UNL     1       1.180  -2.531  -0.625  0.00  0.00    -0.255 N 
ATOM      2  C   UNL     1       1.705  -3.477  -1.428  0.00  0.00    +0.261 C 
ATOM      3  O   UNL     1       2.469  -4.308  -0.970  0.00  0.00    -0.269 OA
ENDROOT
BRANCH   1   8
ATOM      4  C   UNL     1      -1.943   1.653  -2.842  0.00  0.00    +0.044 C 
ATOM      5  C   UNL     1      -1.114   0.541  -2.253  0.00  0.00    -0.050 A 
ATOM      6  C   UNL     1       0.218   0.760  -1.951  0.00  0.00    +0.005 A 
ATOM      7  C   UNL     1       0.981  -0.256  -1.411  0.00  0.00    +0.024 A 
ATOM      8  C   UNL     1       0.410  -1.499  -1.171  0.00  0.00    +0.040 A 
ATOM      9  C   UNL     1      -0.928  -1.716  -1.476  0.00  0.00    -0.029 A 
ATOM     10  C   UNL     1      -1.686  -0.695  -2.015  0.00  0.00    +0.008 A 
ATOM     11  C   UNL     1      -1.552  -3.063  -1.217  0.00  0.00    +0.045 C 
ENDBRANCH   1   8
BRANCH   2  12
ATOM     12  C   UNL     1       1.358  -3.506  -2.849  0.00  0.00    +0.116 A 
ATOM     13  C   UNL     1       1.759  -4.405  -3.840  0.00  0.00    +0.076 A 
ATOM     14  C   UNL     1       1.214  -4.102  -5.088  0.00  0.00    +0.155 A 
ATOM     15  N   UNL     1       0.421  -3.060  -5.208  0.00  0.00    -0.203 NA
ATOM     16  S   UNL     1       0.306  -2.409  -3.777  0.00  0.00    +0.019 S 
BRANCH  14  17
ATOM     17  C   UNL     1       1.524  -4.941  -6.260  0.00  0.00    +0.262 C 
ATOM     18  O   UNL     1       2.258  -5.903  -6.142  0.00  0.00    -0.269 OA
ATOM     19  N   UNL     1       0.994  -4.641  -7.462  0.00  0.00    -0.324 N 
ATOM     20  H   UNL     1       0.408  -3.874  -7.557  0.00  0.00    +0.145 HD
ATOM     21  H   UNL     1       1.198  -5.193  -8.233  0.00  0.00    +0.145 HD
ENDBRANCH  14  17
BRANCH  13  22
ATOM     22  N   UNL     1       2.604  -5.482  -3.609  0.00  0.00    -0.355 N 
ATOM     23  H   UNL     1       2.952  -5.643  -2.717  0.00  0.00    +0.142 HD
ATOM     24  H   UNL     1       2.847  -6.073  -4.338  0.00  0.00    +0.142 HD
ENDBRANCH  13  22
ENDBRANCH   2  12
BRANCH   1  25
ATOM     25  C   UNL     1       1.415  -2.583   0.820  0.00  0.00    +0.168 C 
BRANCH  25  26
ATOM     26  C   UNL     1       0.094  -2.553   1.546  0.00  0.00    +0.234 C 
ATOM     27  O   UNL     1      -0.831  -1.913   1.094  0.00  0.00    -0.274 OA
ATOM     28  N   UNL     1      -0.058  -3.237   2.697  0.00  0.00    -0.311 N 
ATOM     29  H   UNL     1       0.682  -3.749   3.058  0.00  0.00    +0.149 HD
BRANCH  28  30
ATOM     30  C   UNL     1      -1.342  -3.208   3.402  0.00  0.00    +0.073 C 
ATOM     31  C   UNL     1      -1.388  -2.003   4.365  0.00  0.00    +0.022 C 
ATOM     32  C   UNL     1      -2.154  -2.536   5.602  0.00  0.00    +0.002 C 
ATOM     33  C   UNL     1      -1.632  -3.989   5.728  0.00  0.00    +0.002 C 
ATOM     34  C   UNL     1      -1.497  -4.470   4.268  0.00  0.00    +0.022 C 
ENDBRANCH  28  30
ENDBRANCH  25  26
BRANCH  25  35
ATOM     35  C   UNL     1       2.257  -1.378   1.244  0.00  0.00    +0.035 C 
BRANCH  35  36
ATOM     36  C   UNL     1       3.663  -1.506   0.654  0.00  0.00    -0.015 C 
ATOM     37  C   UNL     1       4.466  -0.243   0.972  0.00  0.00    +0.007 C 
ATOM     38  C   UNL     1       4.363  -2.723   1.263  0.00  0.00    +0.007 C 
ENDBRANCH  35  36
ENDBRANCH  25  35
ENDBRANCH   1  25
TORSDOF 9
