REMARK  Name = ZINC48361871
REMARK  10 active torsions:
REMARK  status: ('A' for Active; 'I' for Inactive)
REMARK    1  A    between atoms: C_1  and  C_2
REMARK    2  A    between atoms: C_5  and  N_12
REMARK    3  A    between atoms: C_7  and  N_8
REMARK    4  A    between atoms: C_9  and  C_11
REMARK    5  A    between atoms: N_15  and  C_16
REMARK    6  A    between atoms: C_16  and  C_17
REMARK    7  A    between atoms: C_17  and  C_19
REMARK    8  A    between atoms: C_17  and  N_27
REMARK    9  A    between atoms: C_24  and  O_25
REMARK   10  A    between atoms: O_25  and  C_26
REMARK                            x       y       z     vdW  Elec       q    Type
REMARK                         _______ _______ _______ _____ _____    ______ ____
ROOT
ATOM      1  N   UNL     1       2.950  -4.808  -2.778  0.00  0.00    -0.269 N 
ATOM      2  C   UNL     1       1.715  -5.281  -2.515  0.00  0.00    +0.304 C 
ATOM      3  O   UNL     1       0.820  -4.513  -2.221  0.00  0.00    -0.253 OA
ATOM      4  N   UNL     1       1.474  -6.605  -2.579  0.00  0.00    -0.300 N 
ATOM      5  H   UNL     1       3.680  -5.424  -2.945  0.00  0.00    +0.156 HD
ATOM      6  H   UNL     1       2.188  -7.218  -2.813  0.00  0.00    +0.150 HD
ENDROOT
BRANCH   1  11
ATOM      7  C   UNL     1       3.869   0.794  -2.894  0.00  0.00    +0.045 C 
ATOM      8  C   UNL     1       3.626  -0.693  -2.865  0.00  0.00    -0.029 A 
ATOM      9  C   UNL     1       2.726  -1.228  -1.962  0.00  0.00    +0.007 A 
ATOM     10  C   UNL     1       2.500  -2.590  -1.932  0.00  0.00    +0.024 A 
ATOM     11  C   UNL     1       3.178  -3.427  -2.809  0.00  0.00    +0.037 A 
ATOM     12  C   UNL     1       4.082  -2.894  -3.717  0.00  0.00    +0.047 A 
ATOM     13  C   UNL     1       4.302  -1.524  -3.748  0.00  0.00    +0.038 A 
BRANCH  13  14
ATOM     14  N   UNL     1       5.208  -0.981  -4.666  0.00  0.00    -0.285 N 
ATOM     15  C   UNL     1       6.252  -1.716  -5.097  0.00  0.00    +0.214 C 
ATOM     16  O   UNL     1       6.364  -2.873  -4.750  0.00  0.00    -0.276 OA
ATOM     17  C   UNL     1       7.281  -1.101  -6.010  0.00  0.00    +0.109 C 
ATOM     18  H   UNL     1       5.084  -0.076  -4.992  0.00  0.00    +0.155 HD
ENDBRANCH  13  14
ENDBRANCH   1  11
BRANCH   4  19
ATOM     19  C   UNL     1       0.132  -7.119  -2.293  0.00  0.00    +0.095 C 
BRANCH  19  20
ATOM     20  C   UNL     1       0.158  -8.649  -2.308  0.00  0.00    -0.017 C 
BRANCH  20  21
ATOM     21  C   UNL     1       0.482  -9.133  -3.698  0.00  0.00    -0.018 A 
ATOM     22  C   UNL     1       1.766  -9.539  -4.006  0.00  0.00    +0.005 A 
ATOM     23  C   UNL     1       2.064  -9.983  -5.281  0.00  0.00    +0.000 A 
ATOM     24  C   UNL     1       1.079 -10.021  -6.251  0.00  0.00    +0.004 A 
ATOM     25  C   UNL     1      -0.206  -9.616  -5.947  0.00  0.00    +0.046 A 
ATOM     26  C   UNL     1      -0.509  -9.175  -4.667  0.00  0.00    +0.122 A 
BRANCH  26  27
ATOM     27  O   UNL     1      -1.774  -8.781  -4.365  0.00  0.00    -0.495 OA
ATOM     28  C   UNL     1      -2.744  -8.852  -5.412  0.00  0.00    +0.277 C 
ENDBRANCH  26  27
ENDBRANCH  20  21
BRANCH  20  29
ATOM     29  N   UNL     1       1.181  -9.130  -1.371  0.00  0.00    +0.385 N 
ATOM     30  C   UNL     1       0.898  -8.630  -0.001  0.00  0.00    -0.078 C 
ATOM     31  C   UNL     1       1.661  -9.627   0.906  0.00  0.00    -0.020 C 
ATOM     32  C   UNL     1       1.462 -10.978   0.179  0.00  0.00    -0.020 C 
ATOM     33  C   UNL     1       1.136 -10.605  -1.279  0.00  0.00    -0.078 C 
ATOM     34  H   UNL     1       2.097  -8.828  -1.670  0.00  0.00    -0.081 HD
ENDBRANCH  20  29
ENDBRANCH  19  20
ENDBRANCH   4  19
TORSDOF 7
