REMARK  Name = ZINC04781922
REMARK  10 active torsions:
REMARK  status: ('A' for Active; 'I' for Inactive)
REMARK    1  A    between atoms: C_1  and  C_2
REMARK    2  A    between atoms: C_2  and  C_3
REMARK    3  A    between atoms: C_2  and  C_4
REMARK    4  A    between atoms: C_4  and  N_5
REMARK    5  A    between atoms: C_6  and  C_8
REMARK    6  A    between atoms: C_10  and  N_17
REMARK    7  A    between atoms: C_13  and  N_14
REMARK    8  A    between atoms: N_14  and  C_15
REMARK    9  A    between atoms: N_14  and  C_16
REMARK   10  A    between atoms: C_18  and  C_20
REMARK                            x       y       z     vdW  Elec       q    Type
REMARK                         _______ _______ _______ _____ _____    ______ ____
ROOT
ATOM      1  C   UNL     1       0.619  -2.147  -1.029  0.00  0.00    +0.059 A 
ATOM      2  C   UNL     1       0.027  -2.859   0.017  0.00  0.00    +0.038 A 
ATOM      3  C   UNL     1       0.050  -4.242   0.009  0.00  0.00    +0.035 A 
ATOM      4  C   UNL     1       0.660  -4.926  -1.039  0.00  0.00    +0.025 A 
ATOM      5  C   UNL     1       1.247  -4.231  -2.076  0.00  0.00    +0.025 A 
ATOM      6  C   UNL     1       1.227  -2.842  -2.085  0.00  0.00    +0.042 A 
ENDROOT
BRANCH   1   8
ATOM      7  N   UNL     1       0.007  -0.008  -0.014  0.00  0.00    -0.311 N 
ATOM      8  C   UNL     1       0.598  -0.672  -1.027  0.00  0.00    +0.246 C 
ATOM      9  O   UNL     1       1.113  -0.056  -1.940  0.00  0.00    -0.270 OA
ATOM     10  H   UNL     1      -0.404  -0.500   0.714  0.00  0.00    +0.149 HD
BRANCH   7  11
ATOM     11  C   UNL     1      -0.013   1.457  -0.012  0.00  0.00    +0.107 C 
BRANCH  11  13
ATOM     12  C   UNL     1       0.061   1.560   2.483  0.00  0.00    +0.009 C 
ATOM     13  C   UNL     1      -0.738   1.955   1.240  0.00  0.00    -0.000 C 
ATOM     14  C   UNL     1      -0.869   3.478   1.181  0.00  0.00    +0.009 C 
ENDBRANCH  11  13
ENDBRANCH   7  11
ENDBRANCH   1   8
BRANCH   3  15
ATOM     15  N   UNL     1      -0.542  -4.957   1.058  0.00  0.00    -0.281 N 
ATOM     16  C   UNL     1      -1.159  -6.130   0.810  0.00  0.00    +0.248 C 
ATOM     17  O   UNL     1      -1.129  -6.608  -0.307  0.00  0.00    -0.270 OA
ATOM     18  H   UNL     1      -0.509  -4.608   1.962  0.00  0.00    +0.155 HD
BRANCH  16  19
ATOM     19  C   UNL     1      -1.872  -6.834   1.897  0.00  0.00    +0.040 A 
ATOM     20  C   UNL     1      -1.903  -6.290   3.182  0.00  0.00    +0.033 A 
ATOM     21  C   UNL     1      -2.576  -6.949   4.191  0.00  0.00    +0.043 A 
ATOM     22  C   UNL     1      -3.209  -8.153   3.934  0.00  0.00    +0.040 A 
ATOM     23  C   UNL     1      -3.176  -8.701   2.663  0.00  0.00    +0.043 A 
ATOM     24  C   UNL     1      -2.512  -8.048   1.643  0.00  0.00    +0.033 A 
ATOM     25 CL   UNL     1      -3.973 -10.211   2.349  0.00  0.00    -0.083 Cl
ATOM     26 CL   UNL     1      -2.621  -6.271   5.789  0.00  0.00    -0.083 Cl
ENDBRANCH  16  19
ENDBRANCH   3  15
BRANCH   6  27
ATOM     27  N   UNL     1       1.813  -2.143  -3.135  0.00  0.00    -0.335 N 
ATOM     28  C   UNL     1       3.244  -2.457  -3.242  0.00  0.00    +0.129 C 
ATOM     29  C   UNL     1       1.119  -2.413  -4.400  0.00  0.00    +0.129 C 
ENDBRANCH   6  27
TORSDOF 6
