REMARK  Name = ZINC51586116
REMARK  13 active torsions:
REMARK  status: ('A' for Active; 'I' for Inactive)
REMARK    1  A    between atoms: C_1  and  C_2
REMARK    2  A    between atoms: C_2  and  N_3
REMARK    3  A    between atoms: N_3  and  C_4
REMARK    4  A    between atoms: N_3  and  C_6
REMARK    5  A    between atoms: C_4  and  C_5
REMARK    6  A    between atoms: C_6  and  C_7
REMARK    7  A    between atoms: C_7  and  N_8
REMARK    8  A    between atoms: C_9  and  C_11
REMARK    9  A    between atoms: C_14  and  N_17
REMARK   10  A    between atoms: N_20  and  C_21
REMARK   11  A    between atoms: C_21  and  C_22
REMARK   12  A    between atoms: N_24  and  C_25
REMARK   13  A    between atoms: C_25  and  C_26
REMARK                            x       y       z     vdW  Elec       q    Type
REMARK                         _______ _______ _______ _____ _____    ______ ____
ROOT
ATOM      1  C   UNL     1       3.541  -5.385  -1.804  0.00  0.00    +0.037 A 
ATOM      2  C   UNL     1       2.972  -6.389  -1.015  0.00  0.00    +0.015 A 
ATOM      3  C   UNL     1       3.334  -7.703  -1.209  0.00  0.00    +0.024 A 
ATOM      4  C   UNL     1       4.264  -8.033  -2.190  0.00  0.00    +0.035 A 
ATOM      5  C   UNL     1       4.832  -7.036  -2.978  0.00  0.00    +0.024 A 
ATOM      6  C   UNL     1       4.471  -5.721  -2.792  0.00  0.00    +0.015 A 
ENDROOT
BRANCH   4   7
ATOM      7  N   UNL     1       4.627  -9.364  -2.385  0.00  0.00    -0.269 N 
ATOM      8  C   UNL     1       4.725 -10.197  -1.329  0.00  0.00    +0.304 C 
ATOM      9  O   UNL     1       4.418  -9.809  -0.218  0.00  0.00    -0.252 OA
ATOM     10  N   UNL     1       5.164 -11.459  -1.505  0.00  0.00    -0.291 N 
ATOM     11  H   UNL     1       4.810  -9.692  -3.279  0.00  0.00    +0.156 HD
ATOM     12  H   UNL     1       5.409 -11.768  -2.391  0.00  0.00    +0.151 HD
BRANCH  10  13
ATOM     13  C   UNL     1       5.270 -12.364  -0.358  0.00  0.00    +0.201 C 
BRANCH  13  14
ATOM     14  C   UNL     1       5.781 -13.704  -0.821  0.00  0.00    +0.231 C 
ATOM     15  O   UNL     1       6.032 -13.886  -1.994  0.00  0.00    -0.274 OA
ATOM     16  N   UNL     1       5.959 -14.701   0.068  0.00  0.00    -0.303 N 
ATOM     17  H   UNL     1       5.759 -14.556   1.006  0.00  0.00    +0.150 HD
BRANCH  16  18
ATOM     18  C   UNL     1       6.456 -16.004  -0.382  0.00  0.00    +0.193 C 
BRANCH  18  19
ATOM     19  C   UNL     1       6.563 -16.913   0.771  0.00  0.00    -0.087 C 
ATOM     20  C   UNL     1       6.648 -17.639   1.690  0.00  0.00    +0.005 C 
ENDBRANCH  18  19
ENDBRANCH  16  18
ENDBRANCH  13  14
ENDBRANCH  10  13
ENDBRANCH   4   7
BRANCH   1  22
ATOM     21  N   UNL     1       2.259  -3.654  -0.646  0.00  0.00    -0.313 N 
ATOM     22  C   UNL     1       3.156  -3.975  -1.599  0.00  0.00    +0.244 C 
ATOM     23  O   UNL     1       3.647  -3.104  -2.290  0.00  0.00    -0.270 OA
ATOM     24  H   UNL     1       1.866  -4.349  -0.095  0.00  0.00    +0.149 HD
BRANCH  21  25
ATOM     25  C   UNL     1       1.876  -2.255  -0.442  0.00  0.00    +0.086 C 
BRANCH  25  26
ATOM     26  C   UNL     1       0.852  -2.166   0.691  0.00  0.00    -0.060 C 
BRANCH  26  27
ATOM     27  N   UNL     1       0.468  -0.762   0.895  0.00  0.00    +0.380 N 
ATOM     28  H   UNL     1       1.296  -0.207   1.056  0.00  0.00    -0.082 HD
BRANCH  27  30
ATOM     29  C   UNL     1      -0.524   1.226  -0.135  0.00  0.00    -0.017 C 
ATOM     30  C   UNL     1      -0.229  -0.266  -0.299  0.00  0.00    -0.082 C 
ENDBRANCH  27  30
BRANCH  27  31
ATOM     31  C   UNL     1      -0.422  -0.662   2.059  0.00  0.00    -0.082 C 
ATOM     32  C   UNL     1       0.344  -1.059   3.323  0.00  0.00    -0.017 C 
ENDBRANCH  27  31
ENDBRANCH  26  27
ENDBRANCH  25  26
ENDBRANCH  21  25
ENDBRANCH   1  22
TORSDOF 11
