REMARK  Name = ZINC20527381
REMARK  7 active torsions:
REMARK  status: ('A' for Active; 'I' for Inactive)
REMARK    1  A    between atoms: C_5  and  C_7
REMARK    2  A    between atoms: C_7  and  S_8
REMARK    3  A    between atoms: S_8  and  C_9
REMARK    4  A    between atoms: N_13  and  N_14
REMARK    5  A    between atoms: N_15  and  N_16
REMARK    6  A    between atoms: C_17  and  C_18
REMARK    7  A    between atoms: C_20  and  N_25
REMARK                            x       y       z     vdW  Elec       q    Type
REMARK                         _______ _______ _______ _____ _____    ______ ____
ROOT
ATOM      1  C   UNL     1      -3.275  -1.941  -1.403  0.00  0.00    +0.210 A 
ATOM      2  N   UNL     1      -3.786  -2.258  -0.198  0.00  0.00    -0.119 NA
ATOM      3  N   UNL     1      -4.884  -2.910  -0.352  0.00  0.00    -0.109 NA
ATOM      4  C   UNL     1      -5.144  -3.051  -1.665  0.00  0.00    +0.254 A 
ATOM      5  N   UNL     1      -4.127  -2.432  -2.351  0.00  0.00    -0.211 N 
ATOM      6  N   UNL     1      -6.199  -3.673  -2.203  0.00  0.00    -0.204 N 
ATOM      7  H   UNL     1      -6.308  -3.726  -3.296  0.00  0.00    +0.177 HD
ENDROOT
BRANCH   5   8
ATOM      8  N   UNL     1      -3.994  -2.331  -3.707  0.00  0.00    -0.294 N 
ATOM      9  H   UNL     1      -4.754  -2.772  -4.368  0.00  0.00    +0.163 HD
ATOM     10  H   UNL     1      -3.127  -1.809  -4.137  0.00  0.00    +0.163 HD
ENDBRANCH   5   8
BRANCH   6  11
ATOM     11  N   UNL     1      -7.088  -4.210  -1.439  0.00  0.00    -0.187 NA
ATOM     12  C   UNL     1      -8.128  -4.823  -1.968  0.00  0.00    +0.142 C 
BRANCH  12  13
ATOM     13  C   UNL     1      -9.105  -5.413  -1.129  0.00  0.00    +0.043 A 
ATOM     14  C   UNL     1     -10.217  -6.068  -1.687  0.00  0.00    +0.046 A 
ATOM     15  C   UNL     1     -11.153  -6.635  -0.873  0.00  0.00    +0.127 A 
ATOM     16  C   UNL     1     -11.020  -6.571   0.508  0.00  0.00    +0.036 A 
ATOM     17  C   UNL     1      -9.937  -5.933   1.080  0.00  0.00    +0.054 A 
ATOM     18  C   UNL     1      -8.968  -5.354   0.275  0.00  0.00    +0.188 A 
ATOM     19  O   UNL     1      -7.901  -4.731   0.832  0.00  0.00    -0.287 OA
BRANCH  15  20
ATOM     20  N   UNL     1     -12.322  -7.323  -1.467  0.00  0.00    +0.056 N 
ATOM     21  O   UNL     1     -12.454  -7.387  -2.776  0.00  0.00    -0.126 OA
ATOM     22  O   UNL     1     -13.229  -7.872  -0.686  0.00  0.00    -0.126 OA
ENDBRANCH  15  20
ENDBRANCH  12  13
ENDBRANCH   6  11
BRANCH   1  23
ATOM     23  S   UNL     1      -1.827  -1.075  -1.694  0.00  0.00    -0.080 S 
BRANCH  23  24
ATOM     24  C   UNL     1      -1.292  -0.775   0.010  0.00  0.00    +0.114 C 
BRANCH  24  29
ATOM     25  C   UNL     1       2.396   0.029  -0.021  0.00  0.00    +0.000 A 
ATOM     26  C   UNL     1       2.378   1.411  -0.013  0.00  0.00    +0.001 A 
ATOM     27  C   UNL     1       1.173   2.087   0.002  0.00  0.00    +0.020 A 
ATOM     28  C   UNL     1      -0.017   1.379   0.010  0.00  0.00    +0.045 A 
ATOM     29  C   UNL     1       0.002  -0.004   0.002  0.00  0.00    -0.019 A 
ATOM     30  C   UNL     1       1.209  -0.679  -0.013  0.00  0.00    +0.006 A 
ATOM     31 CL   UNL     1      -1.532   2.227   0.021  0.00  0.00    -0.083 Cl
ENDBRANCH  24  29
ENDBRANCH  23  24
ENDBRANCH   1  23
TORSDOF 7
