REMARK  Name = ZINC62794118
REMARK  5 active torsions:
REMARK  status: ('A' for Active; 'I' for Inactive)
REMARK    1  A    between atoms: C_1  and  C_2
REMARK    2  A    between atoms: C_2  and  C_3
REMARK    3  A    between atoms: C_7  and  C_21
REMARK    4  A    between atoms: N_10  and  C_11
REMARK    5  A    between atoms: C_14  and  C_18
REMARK                            x       y       z     vdW  Elec       q    Type
REMARK                         _______ _______ _______ _____ _____    ______ ____
ROOT
ATOM      1  C   UNL     1      -1.506   0.927   2.070  0.00  0.00    +0.049 A 
ATOM      2  C   UNL     1      -1.729   2.297   1.965  0.00  0.00    +0.025 A 
ATOM      3  C   UNL     1      -1.102   3.166   2.828  0.00  0.00    +0.013 A 
ATOM      4  C   UNL     1      -0.240   2.673   3.812  0.00  0.00    +0.014 A 
ATOM      5  C   UNL     1      -0.018   1.298   3.916  0.00  0.00    +0.033 A 
ATOM      6  C   UNL     1      -0.653   0.432   3.053  0.00  0.00    +0.063 A 
ATOM      7 CL   UNL     1      -0.383  -1.278   3.185  0.00  0.00    -0.082 Cl
ENDROOT
BRANCH   1  13
ATOM      8  C   UNL     1      -1.552  -0.274  -0.113  0.00  0.00    +0.099 C 
ATOM      9  C   UNL     1      -1.522  -1.799  -0.266  0.00  0.00    +0.182 C 
ATOM     10  O   UNL     1      -2.826  -2.324  -0.009  0.00  0.00    -0.373 OA
ATOM     11  C   UNL     1      -3.301  -2.090   1.319  0.00  0.00    +0.132 C 
ATOM     12  C   UNL     1      -3.423  -0.579   1.552  0.00  0.00    +0.136 C 
ATOM     13  N   UNL     1      -2.142   0.051   1.195  0.00  0.00    -0.321 N 
ATOM     14  C   UNL     1      -4.671  -2.747   1.495  0.00  0.00    +0.039 C 
BRANCH   8  16
ATOM     15  C   UNL     1       0.431   0.061  -1.596  0.00  0.00    +0.006 C 
ATOM     16  C   UNL     1      -0.128   0.281  -0.189  0.00  0.00    +0.021 C 
ENDBRANCH   8  16
ENDBRANCH   1  13
BRANCH   4  17
ATOM     17  C   UNL     1       0.434   3.604   4.739  0.00  0.00    +0.094 C 
ATOM     18  N   UNL     1       1.255   3.132   5.676  0.00  0.00    -0.387 N 
ATOM     19  N   UNL     1       0.222   4.915   4.638  0.00  0.00    -0.345 N 
ATOM     20  H   UNL     1       1.410   2.177   5.750  0.00  0.00    +0.157 HD
ATOM     21  H   UNL     1      -0.376   5.259   3.956  0.00  0.00    +0.144 HD
ATOM     22  H   UNL     1       0.664   5.527   5.247  0.00  0.00    +0.144 HD
ATOM     23  H   UNL     1       1.698   3.743   6.285  0.00  0.00    +0.157 HD
ENDBRANCH   4  17
TORSDOF 3
