REMARK  Name = ZINC02161217
REMARK  6 active torsions:
REMARK  status: ('A' for Active; 'I' for Inactive)
REMARK    1  A    between atoms: C_1  and  C_2
REMARK    2  A    between atoms: C_13  and  C_15
REMARK    3  A    between atoms: C_15  and  C_16
REMARK    4  A    between atoms: C_16  and  C_17
REMARK    5  A    between atoms: N_21  and  C_24
REMARK    6  A    between atoms: C_24  and  C_25
REMARK                            x       y       z     vdW  Elec       q    Type
REMARK                         _______ _______ _______ _____ _____    ______ ____
ROOT
ATOM      1  C   UNL     1      -8.848  -2.005  -5.008  0.00  0.00    +0.044 C 
ATOM      2  C   UNL     1      -7.516  -1.483  -4.535  0.00  0.00    -0.050 A 
ATOM      3  C   UNL     1      -7.321  -0.123  -4.375  0.00  0.00    +0.005 A 
ATOM      4  C   UNL     1      -6.104   0.359  -3.940  0.00  0.00    +0.024 A 
ATOM      5  C   UNL     1      -5.061  -0.521  -3.658  0.00  0.00    +0.036 A 
ATOM      6  C   UNL     1      -5.269  -1.887  -3.826  0.00  0.00    -0.027 A 
ATOM      7  C   UNL     1      -6.486  -2.364  -4.258  0.00  0.00    +0.008 A 
ATOM      8  C   UNL     1      -3.973  -2.547  -3.449  0.00  0.00    +0.050 C 
ATOM      9  C   UNL     1      -4.169  -3.547  -2.282  0.00  0.00    +0.088 C 
ATOM     10  C   UNL     1      -3.174  -4.696  -2.605  0.00  0.00    +0.073 C 
ATOM     11  C   UNL     1      -2.474  -4.278  -3.916  0.00  0.00    -0.057 C 
ATOM     12  C   UNL     1      -2.179  -4.624  -1.468  0.00  0.00    +0.224 C 
ATOM     13  O   UNL     1      -1.222  -5.354  -1.327  0.00  0.00    -0.275 OA
ATOM     14  N   UNL     1      -2.521  -3.629  -0.641  0.00  0.00    -0.237 N 
ATOM     15  C   UNL     1      -3.623  -2.961  -1.000  0.00  0.00    +0.225 C 
ATOM     16  O   UNL     1      -4.107  -2.029  -0.394  0.00  0.00    -0.275 OA
ATOM     17  C   UNL     1      -3.055  -1.419  -3.066  0.00  0.00    +0.211 C 
ATOM     18  O   UNL     1      -1.904  -1.515  -2.697  0.00  0.00    -0.277 OA
ATOM     19  N   UNL     1      -3.760  -0.280  -3.212  0.00  0.00    -0.286 N 
ATOM     20  H   UNL     1      -3.405   0.603  -3.028  0.00  0.00    +0.155 HD
ATOM     21  N   UNL     1      -3.413  -3.337  -4.532  0.00  0.00    +0.394 N 
ATOM     22  H   UNL     1      -2.920  -2.729  -5.197  0.00  0.00    -0.083 HD
ATOM     23  H   UNL     1      -4.157  -3.847  -5.022  0.00  0.00    -0.083 HD
ENDROOT
BRANCH  11  24
ATOM     24  C   UNL     1      -2.240  -5.500  -4.807  0.00  0.00    -0.004 C 
BRANCH  24  25
ATOM     25  C   UNL     1      -1.437  -5.084  -6.042  0.00  0.00    +0.123 C 
BRANCH  25  26
ATOM     26  C   UNL     1      -1.206  -6.288  -6.919  0.00  0.00    +0.356 C 
ATOM     27  O   UNL     1      -1.639  -7.367  -6.590  0.00  0.00    -0.246 OA
ATOM     28  O   UNL     1      -0.519  -6.161  -8.065  0.00  0.00    -0.246 OA
ENDBRANCH  25  26
ENDBRANCH  24  25
ENDBRANCH  11  24
BRANCH  14  29
ATOM     29  C   UNL     1      -1.754  -3.302   0.564  0.00  0.00    +0.151 C 
BRANCH  29  30
ATOM     30  C   UNL     1      -0.692  -2.288   0.223  0.00  0.00    -0.026 A 
ATOM     31  C   UNL     1       0.561  -2.711  -0.181  0.00  0.00    +0.009 A 
ATOM     32  C   UNL     1       1.538  -1.785  -0.495  0.00  0.00    +0.050 A 
ATOM     33  C   UNL     1       1.264  -0.430  -0.404  0.00  0.00    +0.166 A 
ATOM     34  C   UNL     1       0.002  -0.004   0.002  0.00  0.00    +0.167 A 
ATOM     35  C   UNL     1      -0.973  -0.938   0.315  0.00  0.00    +0.054 A 
ATOM     36  O   UNL     1      -0.016   1.361   0.009  0.00  0.00    -0.453 OA
ATOM     37  C   UNL     1       1.366   1.764  -0.002  0.00  0.00    +0.466 C 
ATOM     38  O   UNL     1       2.037   0.668  -0.651  0.00  0.00    -0.453 OA
ENDBRANCH  29  30
ENDBRANCH  14  29
TORSDOF 5
