REMARK  Name = ZINC08841473
REMARK  7 active torsions:
REMARK  status: ('A' for Active; 'I' for Inactive)
REMARK    1  A    between atoms: C_1  and  C_2
REMARK    2  A    between atoms: C_4  and  C_31
REMARK    3  A    between atoms: N_8  and  C_30
REMARK    4  A    between atoms: N_10  and  C_11
REMARK    5  A    between atoms: C_11  and  C_13
REMARK    6  A    between atoms: N_18  and  S_19
REMARK    7  A    between atoms: S_19  and  C_22
REMARK                            x       y       z     vdW  Elec       q    Type
REMARK                         _______ _______ _______ _____ _____    ______ ____
ROOT
ATOM      1  C   UNL     1       3.547   3.287   0.362  0.00  0.00    +0.257 C 
ATOM      2  O   UNL     1       2.427   3.031   0.761  0.00  0.00    -0.272 OA
ENDROOT
BRANCH   1  12
ATOM      3  C   UNL     1       0.096   1.611  -6.361  0.00  0.00    +0.044 C 
ATOM      4  C   UNL     1       1.247   1.290  -5.444  0.00  0.00    -0.048 A 
ATOM      5  C   UNL     1       2.145   0.298  -5.802  0.00  0.00    +0.008 A 
ATOM      6  C   UNL     1       3.202   0.006  -4.957  0.00  0.00    -0.034 A 
ATOM      7  C   UNL     1       3.342   0.702  -3.780  0.00  0.00    +0.042 A 
ATOM      8  C   UNL     1       2.449   1.711  -3.392  0.00  0.00    +0.058 A 
ATOM      9  C   UNL     1       1.387   1.987  -4.267  0.00  0.00    +0.030 A 
ATOM     10  N   UNL     1       2.738   2.308  -2.179  0.00  0.00    -0.324 N 
ATOM     11  C   UNL     1       3.821   1.907  -1.462  0.00  0.00    +0.166 A 
ATOM     12  N   UNL     1       4.248   2.363  -0.286  0.00  0.00    -0.155 NA
ATOM     13  S   UNL     1       4.510   0.655  -2.445  0.00  0.00    -0.052 S 
ATOM     14  C   UNL     1       1.877   3.377  -1.667  0.00  0.00    +0.151 C 
ATOM     15  C   UNL     1       4.192  -1.069  -5.326  0.00  0.00    +0.045 C 
ENDBRANCH   1  12
BRANCH   1  16
ATOM     16  C   UNL     1       4.140   4.651   0.604  0.00  0.00    +0.167 C 
ATOM     17  C   UNL     1       4.132   5.466  -0.706  0.00  0.00    +0.031 C 
ATOM     18  C   UNL     1       5.481   6.231  -0.647  0.00  0.00    +0.019 C 
ATOM     19  C   UNL     1       6.401   5.188   0.035  0.00  0.00    +0.110 C 
ATOM     20  N   UNL     1       5.541   4.519   1.028  0.00  0.00    -0.165 NA
BRANCH  20  21
ATOM     21  S   UNL     1       6.067   3.748   2.396  0.00  0.00    +0.062 S 
ATOM     22  O   UNL     1       7.260   4.406   2.800  0.00  0.00    -0.153 OA
ATOM     23  O   UNL     1       4.939   3.622   3.251  0.00  0.00    -0.153 OA
BRANCH  21  24
ATOM     24  C   UNL     1       6.528   2.113   1.927  0.00  0.00    +0.106 A 
ATOM     25  C   UNL     1       5.603   1.088   1.996  0.00  0.00    +0.031 A 
ATOM     26  C   UNL     1       5.962  -0.194   1.624  0.00  0.00    +0.040 A 
ATOM     27  C   UNL     1       7.252  -0.453   1.192  0.00  0.00    +0.124 A 
ATOM     28  C   UNL     1       8.179   0.573   1.128  0.00  0.00    +0.040 A 
ATOM     29  C   UNL     1       7.816   1.855   1.496  0.00  0.00    +0.031 A 
ATOM     30  F   UNL     1       7.606  -1.707   0.833  0.00  0.00    -0.205 F 
ENDBRANCH  21  24
ENDBRANCH  20  21
ENDBRANCH   1  16
TORSDOF 4
