REMARK  Name = ZINC08975464
REMARK  2 active torsions:
REMARK  status: ('A' for Active; 'I' for Inactive)
REMARK    1  A    between atoms: C_1  and  S_2
REMARK    2  A    between atoms: S_2  and  C_5
REMARK                            x       y       z     vdW  Elec       q    Type
REMARK                         _______ _______ _______ _____ _____    ______ ____
ROOT
ATOM      1  C   UNL     1      -3.050 -12.524  -0.901  0.00  0.00    +0.089 A 
ATOM      2  C   UNL     1      -3.665 -11.957   0.206  0.00  0.00    +0.029 A 
ATOM      3  C   UNL     1      -3.549 -10.620   0.482  0.00  0.00    +0.031 A 
ATOM      4  C   UNL     1      -2.792  -9.771  -0.358  0.00  0.00    +0.080 A 
ATOM      5  C   UNL     1      -2.180 -10.383  -1.475  0.00  0.00    +0.043 A 
ATOM      6  C   UNL     1      -2.302 -11.723  -1.745  0.00  0.00    +0.044 A 
ATOM      7  S   UNL     1      -1.358  -9.014  -2.254  0.00  0.00    -0.052 S 
ATOM      8  C   UNL     1      -1.852  -7.759  -1.082  0.00  0.00    +0.162 A 
ATOM      9  N   UNL     1      -2.579  -8.443  -0.228  0.00  0.00    -0.225 NA
ATOM     10  N   UNL     1      -1.551  -6.412  -1.077  0.00  0.00    -0.307 N 
ATOM     11  C   UNL     1      -2.170  -5.738   0.072  0.00  0.00    +0.126 C 
ATOM     12  C   UNL     1      -1.879  -4.237  -0.003  0.00  0.00    +0.126 C 
ATOM     13  N   UNL     1      -0.425  -4.022  -0.015  0.00  0.00    -0.307 N 
ATOM     14  C   UNL     1       0.194  -4.697  -1.165  0.00  0.00    +0.126 C 
ATOM     15  C   UNL     1      -0.097  -6.197  -1.090  0.00  0.00    +0.126 C 
ATOM     16  C   UNL     1      -0.123  -2.675  -0.011  0.00  0.00    +0.162 A 
ATOM     17  N   UNL     1       1.054  -2.095  -0.019  0.00  0.00    -0.222 NA
ATOM     18  C   UNL     1       1.201  -0.751  -0.013  0.00  0.00    +0.115 A 
ATOM     19  C   UNL     1       2.403  -0.003  -0.021  0.00  0.00    +0.150 A 
ATOM     20  C   UNL     1       2.374   1.369  -0.012  0.00  0.00    +0.040 A 
ATOM     21  C   UNL     1       1.176   2.069   0.002  0.00  0.00    +0.004 A 
ATOM     22  C   UNL     1      -0.017   1.369   0.010  0.00  0.00    +0.017 A 
ATOM     23  C   UNL     1       0.002  -0.004   0.002  0.00  0.00    +0.044 A 
ATOM     24  S   UNL     1      -1.237  -1.277   0.007  0.00  0.00    -0.052 S 
ATOM     25  F   UNL     1       3.591  -0.646  -0.035  0.00  0.00    -0.203 F 
ENDROOT
BRANCH   1  27
ATOM     26  C   UNL     1      -1.834 -15.027  -0.355  0.00  0.00    +0.200 C 
ATOM     27  S   UNL     1      -3.220 -14.247  -1.228  0.00  0.00    -0.006 S 
ATOM     28  O   UNL     1      -4.450 -14.613  -0.619  0.00  0.00    -0.170 OA
ATOM     29  O   UNL     1      -3.043 -14.368  -2.633  0.00  0.00    -0.170 OA
ENDBRANCH   1  27
TORSDOF 1
