REMARK  Name = ZINC46076868
REMARK  8 active torsions:
REMARK  status: ('A' for Active; 'I' for Inactive)
REMARK    1  A    between atoms: C_1  and  C_2
REMARK    2  A    between atoms: C_2  and  O_3
REMARK    3  A    between atoms: O_3  and  C_4
REMARK    4  A    between atoms: C_6  and  C_15
REMARK    5  A    between atoms: C_9  and  O_10
REMARK    6  A    between atoms: O_10  and  C_11
REMARK    7  A    between atoms: C_11  and  C_12
REMARK    8  A    between atoms: C_25  and  C_26
REMARK                            x       y       z     vdW  Elec       q    Type
REMARK                         _______ _______ _______ _____ _____    ______ ____
ROOT
ATOM      1  C   UNL     1       0.654  -4.954  -0.018  0.00  0.00    +0.066 C 
ATOM      2  C   UNL     1       0.635  -5.859   1.221  0.00  0.00    +0.109 C 
ATOM      3  C   UNL     1       1.548  -7.036   1.031  0.00  0.00    +0.218 C 
ATOM      4  O   UNL     1       2.192  -7.429   1.981  0.00  0.00    -0.275 OA
ATOM      5  N   UNL     1       1.686  -7.674  -0.144  0.00  0.00    -0.284 N 
ATOM      6  C   UNL     1       1.107  -7.097  -1.309  0.00  0.00    +0.052 A 
ATOM      7  C   UNL     1       0.623  -5.824  -1.233  0.00  0.00    +0.019 A 
ATOM      8  S   UNL     1      -0.007  -5.495  -2.850  0.00  0.00    -0.098 S 
ATOM      9  C   UNL     1       0.413  -7.049  -3.622  0.00  0.00    +0.055 A 
ATOM     10  C   UNL     1       1.000  -7.740  -2.599  0.00  0.00    +0.011 A 
ATOM     11  H   UNL     1       2.171  -8.512  -0.197  0.00  0.00    +0.155 HD
ENDROOT
BRANCH  10  12
ATOM     12  C   UNL     1       1.516  -9.115  -2.807  0.00  0.00    -0.013 A 
ATOM     13  C   UNL     1       2.807  -9.446  -2.400  0.00  0.00    +0.009 A 
ATOM     14  C   UNL     1       3.283 -10.726  -2.596  0.00  0.00    +0.003 A 
ATOM     15  C   UNL     1       2.482 -11.681  -3.196  0.00  0.00    +0.038 A 
ATOM     16  C   UNL     1       1.198 -11.359  -3.603  0.00  0.00    +0.124 A 
ATOM     17  C   UNL     1       0.709 -10.081  -3.405  0.00  0.00    +0.047 A 
ATOM     18  F   UNL     1       0.420 -12.296  -4.188  0.00  0.00    -0.205 F 
ENDBRANCH  10  12
BRANCH   1  21
ATOM     19  C   UNL     1      -1.498  -1.849   0.006  0.00  0.00    +0.162 A 
ATOM     20  C   UNL     1      -0.389  -2.680  -0.003  0.00  0.00    +0.053 A 
ATOM     21  C   UNL     1      -0.553  -4.052  -0.008  0.00  0.00    -0.035 A 
ATOM     22  C   UNL     1      -1.823  -4.600  -0.005  0.00  0.00    +0.008 A 
ATOM     23  C   UNL     1      -2.934  -3.777   0.004  0.00  0.00    +0.050 A 
ATOM     24  C   UNL     1      -2.776  -2.400   0.016  0.00  0.00    +0.163 A 
BRANCH  19  25
ATOM     25  O   UNL     1      -1.339  -0.499   0.012  0.00  0.00    -0.489 OA
BRANCH  25  27
ATOM     26  C   UNL     1      -0.019   1.526   0.010  0.00  0.00    +0.048 C 
ATOM     27  C   UNL     1       0.002  -0.004   0.002  0.00  0.00    +0.226 C 
ENDBRANCH  25  27
ENDBRANCH  19  25
BRANCH  24  28
ATOM     28  O   UNL     1      -3.868  -1.589   0.030  0.00  0.00    -0.479 OA
BRANCH  28  29
ATOM     29  C   UNL     1      -5.148  -2.225   0.039  0.00  0.00    +0.324 C 
BRANCH  29  30
ATOM     30  C   UNL     1      -6.229  -1.175   0.055  0.00  0.00    +0.248 C 
ATOM     31  O   UNL     1      -5.933   0.001   0.059  0.00  0.00    -0.272 OA
ATOM     32  N   UNL     1      -7.526  -1.544   0.066  0.00  0.00    -0.327 N 
ATOM     33  H   UNL     1      -7.763  -2.484   0.063  0.00  0.00    +0.145 HD
ATOM     34  H   UNL     1      -8.222  -0.868   0.076  0.00  0.00    +0.145 HD
ENDBRANCH  29  30
ENDBRANCH  28  29
ENDBRANCH  24  28
ENDBRANCH   1  21
TORSDOF 7
