REMARK  Name = ZINC59942098
REMARK  9 active torsions:
REMARK  status: ('A' for Active; 'I' for Inactive)
REMARK    1  A    between atoms: C_1  and  C_2
REMARK    2  A    between atoms: C_5  and  C_9
REMARK    3  A    between atoms: C_7  and  C_8
REMARK    4  A    between atoms: C_15  and  C_31
REMARK    5  A    between atoms: C_16  and  C_23
REMARK    6  A    between atoms: C_18  and  C_21
REMARK    7  A    between atoms: C_19  and  N_20
REMARK    8  A    between atoms: C_26  and  C_30
REMARK    9  A    between atoms: C_27  and  C_29
REMARK                            x       y       z     vdW  Elec       q    Type
REMARK                         _______ _______ _______ _____ _____    ______ ____
ROOT
ATOM      1  C   UNL     1       0.639  -4.290  -0.082  0.00  0.00    +0.028 C 
ATOM      2  C   UNL     1       0.388  -4.951  -1.240  0.00  0.00    +0.080 A 
ATOM      3  C   UNL     1       0.215  -4.420  -2.598  0.00  0.00    +0.271 A 
ATOM      4  O   UNL     1       0.290  -3.225  -2.814  0.00  0.00    -0.266 OA
ATOM      5  N   UNL     1      -0.030  -5.288  -3.600  0.00  0.00    -0.256 N 
ATOM      6  C   UNL     1      -0.102  -6.631  -3.281  0.00  0.00    +0.104 A 
ATOM      7  C   UNL     1      -0.342  -7.619  -4.180  0.00  0.00    +0.072 C 
ATOM      8  C   UNL     1      -0.545  -7.236  -5.633  0.00  0.00    +0.106 C 
ATOM      9  C   UNL     1      -0.458  -5.755  -5.941  0.00  0.00    +0.080 C 
ATOM     10  C   UNL     1      -0.212  -4.893  -4.930  0.00  0.00    +0.119 C 
ATOM     11  S   UNL     1       0.187  -6.702  -1.525  0.00  0.00    -0.065 S 
ENDROOT
BRANCH   1  16
ATOM     12  C   UNL     1       0.436   1.452   0.051  0.00  0.00    +0.044 C 
ATOM     13  C   UNL     1       0.490  -0.054   0.016  0.00  0.00    -0.048 A 
ATOM     14  C   UNL     1      -0.414  -0.756  -0.762  0.00  0.00    +0.004 A 
ATOM     15  C   UNL     1      -0.372  -2.134  -0.800  0.00  0.00    +0.008 A 
ATOM     16  C   UNL     1       0.587  -2.821  -0.048  0.00  0.00    -0.024 A 
ATOM     17  C   UNL     1       1.497  -2.103   0.736  0.00  0.00    +0.011 A 
ATOM     18  C   UNL     1       1.445  -0.726   0.758  0.00  0.00    -0.047 A 
ATOM     19  C   UNL     1       2.428   0.050   1.596  0.00  0.00    +0.044 C 
ENDBRANCH   1  16
BRANCH   8  20
ATOM     20  C   UNL     1       0.496  -7.947  -6.458  0.00  0.00    -0.034 A 
ATOM     21  C   UNL     1       1.839  -7.727  -6.215  0.00  0.00    +0.005 A 
ATOM     22  C   UNL     1       2.794  -8.380  -6.972  0.00  0.00    +0.004 A 
ATOM     23  C   UNL     1       2.406  -9.253  -7.971  0.00  0.00    -0.048 A 
ATOM     24  C   UNL     1       1.064  -9.474  -8.213  0.00  0.00    -0.047 A 
ATOM     25  C   UNL     1       0.108  -8.824  -7.453  0.00  0.00    +0.008 A 
ATOM     26  C   UNL     1       0.641 -10.425  -9.303  0.00  0.00    +0.044 C 
ATOM     27  C   UNL     1       3.448  -9.963  -8.797  0.00  0.00    +0.044 C 
ENDBRANCH   8  20
BRANCH  10  28
ATOM     28  N   UNL     1      -0.136  -3.554  -5.225  0.00  0.00    -0.343 N 
ATOM     29  H   UNL     1       0.412  -2.967  -4.680  0.00  0.00    +0.144 HD
ATOM     30  H   UNL     1      -0.630  -3.194  -5.978  0.00  0.00    +0.144 HD
ENDBRANCH  10  28
BRANCH   9  31
ATOM     31  C   UNL     1      -0.634  -5.278  -7.280  0.00  0.00    +0.099 C 
ATOM     32  N   UNL     1      -0.773  -4.899  -8.342  0.00  0.00    -0.191 NA
ENDBRANCH   9  31
BRANCH   7  33
ATOM     33  C   UNL     1      -0.400  -8.989  -3.767  0.00  0.00    +0.098 C 
ATOM     34  N   UNL     1      -0.447 -10.075  -3.439  0.00  0.00    -0.191 NA
ENDBRANCH   7  33
TORSDOF 5
