REMARK  Name = ZINC28233435
REMARK  11 active torsions:
REMARK  status: ('A' for Active; 'I' for Inactive)
REMARK    1  A    between atoms: C_1  and  C_2
REMARK    2  A    between atoms: C_4  and  C_24
REMARK    3  A    between atoms: N_5  and  C_7
REMARK    4  A    between atoms: C_7  and  C_8
REMARK    5  A    between atoms: C_8  and  C_10
REMARK    6  A    between atoms: C_8  and  C_11
REMARK    7  A    between atoms: N_13  and  C_14
REMARK    8  A    between atoms: C_16  and  C_22
REMARK    9  A    between atoms: C_16  and  C_23
REMARK   10  A    between atoms: C_18  and  C_20
REMARK   11  A    between atoms: C_18  and  C_21
REMARK                            x       y       z     vdW  Elec       q    Type
REMARK                         _______ _______ _______ _____ _____    ______ ____
ROOT
ATOM      1  C   UNL     1       0.077   5.700  -2.358  0.00  0.00    +0.218 C 
ATOM      2  O   UNL     1      -0.186   5.073  -3.362  0.00  0.00    -0.275 OA
ATOM      3  N   UNL     1       0.376   5.050  -1.216  0.00  0.00    -0.312 N 
ATOM      4  H   UNL     1       0.615   5.618  -0.305  0.00  0.00    +0.149 HD
ENDROOT
BRANCH   3   5
ATOM      5  C   UNL     1       0.383   3.582  -1.188  0.00  0.00    +0.070 C 
ATOM      6  C   UNL     1       1.307   3.104  -0.068  0.00  0.00    +0.009 C 
ATOM      7  C   UNL     1       1.318   1.579  -0.002  0.00  0.00    -0.072 C 
ATOM      8  N   UNL     1      -0.012   1.005   0.008  0.00  0.00    +0.386 N 
ATOM      9  C   UNL     1      -1.049   1.551  -0.842  0.00  0.00    -0.072 C 
ATOM     10  C   UNL     1      -1.030   3.077  -0.900  0.00  0.00    +0.009 C 
ATOM     11  C   UNL     1      -0.958   0.983  -2.263  0.00  0.00    -0.010 C 
ATOM     12  C   UNL     1      -2.418   1.125  -0.266  0.00  0.00    -0.010 C 
ATOM     13  C   UNL     1       2.027   1.175   1.309  0.00  0.00    -0.010 C 
ATOM     14  C   UNL     1       2.153   1.022  -1.161  0.00  0.00    -0.010 C 
ATOM     15  H   UNL     1       0.043  -0.052  -0.292  0.00  0.00    -0.084 HD
ATOM     16  H   UNL     1      -0.435   1.078   1.020  0.00  0.00    -0.084 HD
ENDBRANCH   3   5
BRANCH   1  17
ATOM     17  C   UNL     1       0.070   7.207  -2.387  0.00  0.00    +0.093 C 
ATOM     18  C   UNL     1      -0.958   7.731  -1.383  0.00  0.00    +0.019 C 
BRANCH  17  19
ATOM     19  C   UNL     1      -0.297   7.688  -3.792  0.00  0.00    +0.156 C 
BRANCH  19  24
ATOM     20  C   UNL     1       1.609  12.286  -4.442  0.00  0.00    +0.068 C 
ATOM     21  C   UNL     1       0.666  11.149  -4.142  0.00  0.00    +0.074 A 
ATOM     22  C   UNL     1      -0.672  11.275  -3.752  0.00  0.00    +0.061 A 
ATOM     23  C   UNL     1      -1.175  10.030  -3.586  0.00  0.00    +0.050 A 
ATOM     24  N   UNL     1      -0.189   9.148  -3.852  0.00  0.00    -0.267 N 
ATOM     25  N   UNL     1       0.956   9.875  -4.202  0.00  0.00    -0.175 NA
ATOM     26  C   UNL     1      -2.584   9.689  -3.174  0.00  0.00    +0.066 C 
ATOM     27 BR   UNL     1      -1.612  12.898  -3.508  0.00  0.00    -0.047 Br
ENDBRANCH  19  24
ENDBRANCH  17  19
ENDBRANCH   1  17
TORSDOF 4
