REMARK  Name = ZINC44028878
REMARK  13 active torsions:
REMARK  status: ('A' for Active; 'I' for Inactive)
REMARK    1  A    between atoms: C_1  and  C_2
REMARK    2  A    between atoms: C_2  and  O_34
REMARK    3  A    between atoms: C_10  and  O_33
REMARK    4  A    between atoms: C_12  and  O_32
REMARK    5  A    between atoms: C_14  and  O_17
REMARK    6  A    between atoms: O_17  and  C_18
REMARK    7  A    between atoms: C_18  and  C_30
REMARK    8  A    between atoms: C_19  and  O_29
REMARK    9  A    between atoms: C_21  and  O_28
REMARK   10  A    between atoms: C_23  and  C_26
REMARK   11  A    between atoms: C_26  and  O_27
REMARK   12  A    between atoms: C_30  and  O_31
REMARK   13  A    between atoms: O_34  and  C_35
REMARK                            x       y       z     vdW  Elec       q    Type
REMARK                         _______ _______ _______ _____ _____    ______ ____
ROOT
ATOM      1  C   UNL     1      -0.112   1.529   0.511  0.00  0.00    +0.110 C 
ATOM      2  C   UNL     1      -0.070   0.006   0.361  0.00  0.00    +0.283 C 
ATOM      3  O   UNL     1       0.562  -0.333  -0.875  0.00  0.00    -0.324 OA
ATOM      4  C   UNL     1       1.918   0.112  -0.974  0.00  0.00    +0.200 C 
ATOM      5  C   UNL     1       2.723  -0.493   0.183  0.00  0.00    +0.179 C 
ATOM      6  C   UNL     1       2.031  -0.129   1.501  0.00  0.00    +0.186 C 
ATOM      7  O   UNL     1       0.669  -0.558   1.448  0.00  0.00    -0.318 OA
ATOM      8  C   UNL     1       2.746  -0.819   2.664  0.00  0.00    +0.179 C 
ATOM      9  C   UNL     1       2.774  -2.330   2.414  0.00  0.00    +0.201 C 
ATOM     10  C   UNL     1       3.457  -2.600   1.070  0.00  0.00    +0.285 C 
ATOM     11  O   UNL     1       2.768  -1.912   0.025  0.00  0.00    -0.340 OA
ENDROOT
BRANCH   9  12
ATOM     12  O   UNL     1       3.503  -2.974   3.461  0.00  0.00    -0.384 OA
ATOM     13  H   UNL     1       3.561  -3.935   3.366  0.00  0.00    +0.210 HD
ENDBRANCH   9  12
BRANCH   8  14
ATOM     14  O   UNL     1       4.083  -0.326   2.763  0.00  0.00    -0.386 OA
ATOM     15  H   UNL     1       4.596  -0.721   3.481  0.00  0.00    +0.210 HD
ENDBRANCH   8  14
BRANCH   2  16
ATOM     16  O   UNL     1      -1.402  -0.510   0.373  0.00  0.00    -0.330 OA
ATOM     17  C   UNL     1      -1.476  -1.931   0.238  0.00  0.00    +0.200 C 
ENDBRANCH   2  16
BRANCH  10  18
ATOM     18  O   UNL     1       4.807  -2.132   1.118  0.00  0.00    -0.313 OA
BRANCH  18  19
ATOM     19  C   UNL     1       5.638  -2.647   0.076  0.00  0.00    +0.225 C 
ATOM     20  C   UNL     1       5.190  -2.073  -1.282  0.00  0.00    +0.207 C 
ATOM     21  C   UNL     1       6.414  -1.262  -1.774  0.00  0.00    +0.179 C 
ATOM     22  C   UNL     1       7.187  -1.010  -0.454  0.00  0.00    +0.178 C 
ATOM     23  O   UNL     1       6.998  -2.234   0.287  0.00  0.00    -0.336 OA
BRANCH  21  24
ATOM     24  O   UNL     1       7.201  -2.030  -2.687  0.00  0.00    -0.386 OA
ATOM     25  H   UNL     1       7.979  -1.565  -3.023  0.00  0.00    +0.210 HD
ENDBRANCH  21  24
BRANCH  20  26
ATOM     26  O   UNL     1       4.886  -3.129  -2.196  0.00  0.00    -0.384 OA
ATOM     27  H   UNL     1       4.599  -2.824  -3.068  0.00  0.00    +0.210 HD
ENDBRANCH  20  26
BRANCH  22  28
ATOM     28  C   UNL     1       8.671  -0.770  -0.737  0.00  0.00    +0.190 C 
BRANCH  28  29
ATOM     29  O   UNL     1       9.338  -0.425   0.479  0.00  0.00    -0.392 OA
ATOM     30  H   UNL     1      10.285  -0.259   0.375  0.00  0.00    +0.210 HD
ENDBRANCH  28  29
ENDBRANCH  22  28
BRANCH  19  31
ATOM     31  C   UNL     1       5.555  -4.175   0.051  0.00  0.00    +0.223 C 
BRANCH  31  32
ATOM     32  O   UNL     1       5.876  -4.690   1.345  0.00  0.00    -0.390 OA
ATOM     33  H   UNL     1       5.843  -5.655   1.403  0.00  0.00    +0.210 HD
ENDBRANCH  31  32
ENDBRANCH  19  31
ENDBRANCH  18  19
ENDBRANCH  10  18
TORSDOF 11
