REMARK  Name = ZINC55149787
REMARK  11 active torsions:
REMARK  status: ('A' for Active; 'I' for Inactive)
REMARK    1  A    between atoms: C_1  and  C_2
REMARK    2  A    between atoms: C_2  and  C_3
REMARK    3  A    between atoms: C_2  and  C_4
REMARK    4  A    between atoms: C_2  and  O_5
REMARK    5  A    between atoms: O_5  and  C_6
REMARK    6  A    between atoms: N_8  and  C_9
REMARK    7  A    between atoms: C_12  and  N_17
REMARK    8  A    between atoms: C_14  and  O_15
REMARK    9  A    between atoms: O_15  and  C_16
REMARK   10  A    between atoms: C_18  and  C_20
REMARK   11  A    between atoms: C_26  and  C_28
REMARK                            x       y       z     vdW  Elec       q    Type
REMARK                         _______ _______ _______ _____ _____    ______ ____
ROOT
ATOM      1  C   UNL     1       3.934  -0.016  -2.642  0.00  0.00    +0.078 A 
ATOM      2  C   UNL     1       4.603   0.787  -1.730  0.00  0.00    +0.029 A 
ATOM      3  C   UNL     1       5.891   1.210  -1.995  0.00  0.00    +0.025 A 
ATOM      4  C   UNL     1       6.519   0.833  -3.175  0.00  0.00    +0.037 A 
ATOM      5  C   UNL     1       5.853   0.030  -4.091  0.00  0.00    +0.070 A 
ATOM      6  C   UNL     1       4.564  -0.400  -3.824  0.00  0.00    +0.143 A 
ENDROOT
BRANCH   1   9
ATOM      7  C   UNL     1       1.775   0.361  -1.707  0.00  0.00    +0.405 C 
ATOM      8  O   UNL     1       2.164   1.426  -1.270  0.00  0.00    -0.226 OA
ATOM      9  N   UNL     1       2.626  -0.446  -2.372  0.00  0.00    -0.248 N 
ATOM     10  H   UNL     1       2.333  -1.323  -2.665  0.00  0.00    +0.158 HD
BRANCH   7  11
ATOM     11  O   UNL     1       0.495  -0.014  -1.525  0.00  0.00    -0.444 OA
BRANCH  11  13
ATOM     12  C   UNL     1      -0.415   2.225  -1.556  0.00  0.00    +0.055 C 
ATOM     13  C   UNL     1      -0.351   0.889  -0.811  0.00  0.00    +0.107 C 
ATOM     14  C   UNL     1       0.214   1.115   0.593  0.00  0.00    +0.055 C 
ATOM     15  C   UNL     1      -1.757   0.296  -0.705  0.00  0.00    +0.055 C 
ENDBRANCH  11  13
ENDBRANCH   7  11
ENDBRANCH   1   9
BRANCH   4  16
ATOM     16  N   UNL     1       7.825   1.264  -3.441  0.00  0.00    -0.285 N 
ATOM     17  C   UNL     1       8.711   1.392  -2.434  0.00  0.00    +0.221 C 
ATOM     18  O   UNL     1       8.357   1.211  -1.288  0.00  0.00    -0.275 OA
ATOM     19  H   UNL     1       8.091   1.471  -4.351  0.00  0.00    +0.155 HD
BRANCH  17  20
ATOM     20  C   UNL     1      10.142   1.759  -2.731  0.00  0.00    +0.093 C 
ATOM     21  C   UNL     1      10.331   3.268  -2.563  0.00  0.00    +0.040 C 
ATOM     22  C   UNL     1      11.792   3.613  -2.594  0.00  0.00    -0.030 C 
ATOM     23  C   UNL     1      12.743   2.752  -2.423  0.00  0.00    -0.030 C 
ATOM     24  C   UNL     1      12.520   1.288  -2.180  0.00  0.00    +0.042 C 
ATOM     25  C   UNL     1      11.074   1.036  -1.750  0.00  0.00    +0.118 C 
BRANCH  25  26
ATOM     26  C   UNL     1      10.785  -0.442  -1.773  0.00  0.00    +0.360 C 
ATOM     27  O   UNL     1      11.650  -1.238  -1.448  0.00  0.00    -0.246 OA
ATOM     28  O   UNL     1       9.686  -0.843  -2.117  0.00  0.00    -0.246 OA
ENDBRANCH  25  26
ENDBRANCH  17  20
ENDBRANCH   4  16
BRANCH   6  29
ATOM     29  O   UNL     1       3.912  -1.191  -4.717  0.00  0.00    -0.493 OA
ATOM     30  C   UNL     1       4.619  -1.546  -5.907  0.00  0.00    +0.277 C 
ENDBRANCH   6  29
TORSDOF 7
