REMARK  Name = ZINC20388358
REMARK  10 active torsions:
REMARK  status: ('A' for Active; 'I' for Inactive)
REMARK    1  A    between atoms: C_1  and  C_2
REMARK    2  A    between atoms: C_5  and  C_32
REMARK    3  A    between atoms: N_8  and  C_10
REMARK    4  A    between atoms: C_10  and  C_11
REMARK    5  A    between atoms: C_11  and  C_12
REMARK    6  A    between atoms: C_12  and  N_13
REMARK    7  A    between atoms: C_14  and  C_16
REMARK    8  A    between atoms: C_19  and  N_22
REMARK    9  A    between atoms: C_23  and  C_25
REMARK   10  A    between atoms: C_26  and  C_31
REMARK                            x       y       z     vdW  Elec       q    Type
REMARK                         _______ _______ _______ _____ _____    ______ ____
ROOT
ATOM      1  C   UNL     1      -2.415   0.812  -0.092  0.00  0.00    +0.037 A 
ATOM      2  C   UNL     1      -2.423  -0.574  -0.277  0.00  0.00    +0.015 A 
ATOM      3  C   UNL     1      -3.613  -1.264  -0.247  0.00  0.00    +0.024 A 
ATOM      4  C   UNL     1      -4.809  -0.583  -0.043  0.00  0.00    +0.034 A 
ATOM      5  C   UNL     1      -4.806   0.797   0.137  0.00  0.00    +0.024 A 
ATOM      6  C   UNL     1      -3.618   1.493   0.113  0.00  0.00    +0.015 A 
ENDROOT
BRANCH   1   8
ATOM      7  N   UNL     1       0.019   0.896  -0.315  0.00  0.00    -0.311 N 
ATOM      8  C   UNL     1      -1.140   1.554  -0.118  0.00  0.00    +0.244 C 
ATOM      9  O   UNL     1      -1.135   2.760   0.039  0.00  0.00    -0.270 OA
ATOM     10  H   UNL     1       0.016  -0.196  -0.453  0.00  0.00    +0.149 HD
BRANCH   7  11
ATOM     11  C   UNL     1       1.284   1.634  -0.347  0.00  0.00    +0.102 C 
BRANCH  11  12
ATOM     12  C   UNL     1       2.438   0.658  -0.591  0.00  0.00    +0.000 C 
BRANCH  12  13
ATOM     13  C   UNL     1       3.759   1.429  -0.625  0.00  0.00    -0.077 C 
BRANCH  13  19
ATOM     14  C   UNL     1       6.263  -2.428   1.120  0.00  0.00    +0.005 C 
ATOM     15  C   UNL     1       6.084  -1.480  -0.067  0.00  0.00    -0.031 C 
ATOM     16  C   UNL     1       7.412  -0.777  -0.364  0.00  0.00    +0.003 C 
ATOM     17  C   UNL     1       7.210   0.214  -1.514  0.00  0.00    -0.031 C 
ATOM     18  C   UNL     1       6.116   1.214  -1.133  0.00  0.00    -0.076 C 
ATOM     19  N   UNL     1       4.866   0.493  -0.859  0.00  0.00    +0.380 N 
ATOM     20  C   UNL     1       5.023  -0.431   0.272  0.00  0.00    -0.076 C 
ATOM     21  C   UNL     1       8.517   0.963  -1.778  0.00  0.00    +0.005 C 
ATOM     22  H   UNL     1       4.622  -0.106  -1.749  0.00  0.00    -0.082 HD
ENDBRANCH  13  19
ENDBRANCH  12  13
ENDBRANCH  11  12
ENDBRANCH   7  11
ENDBRANCH   1   8
BRANCH   4  23
ATOM     23  N   UNL     1      -6.013  -1.284  -0.018  0.00  0.00    -0.281 N 
ATOM     24  C   UNL     1      -6.052  -2.539   0.471  0.00  0.00    +0.258 C 
ATOM     25  O   UNL     1      -5.058  -3.026   0.978  0.00  0.00    -0.269 OA
ATOM     26  H   UNL     1      -6.932  -0.813  -0.398  0.00  0.00    +0.155 HD
BRANCH  24  27
ATOM     27  C   UNL     1      -7.290  -3.317   0.394  0.00  0.00    +0.107 C 
ATOM     28  C   UNL     1      -7.360  -4.518   0.980  0.00  0.00    +0.113 C 
ATOM     29  O   UNL     1      -8.415  -5.336   0.967  0.00  0.00    -0.494 OA
ATOM     30  C   UNL     1      -9.732  -4.857   0.719  0.00  0.00    +0.239 C 
ATOM     31  C   UNL     1      -9.757  -4.132  -0.637  0.00  0.00    +0.115 C 
ATOM     32  S   UNL     1      -8.682  -2.669  -0.481  0.00  0.00    -0.114 S 
ATOM     33  C   UNL     1      -6.139  -4.986   1.730  0.00  0.00    +0.087 C 
ENDBRANCH  24  27
ENDBRANCH   4  23
TORSDOF 7
