REMARK  Name = ZINC11998978
REMARK  3 active torsions:
REMARK  status: ('A' for Active; 'I' for Inactive)
REMARK    1  A    between atoms: C_6  and  C_7
REMARK    2  A    between atoms: C_7  and  N_45
REMARK    3  A    between atoms: N_11  and  C_21
REMARK                            x       y       z     vdW  Elec       q    Type
REMARK                         _______ _______ _______ _____ _____    ______ ____
ROOT
ATOM      1  C   UNL     1      -0.446   0.510  -0.677  0.00  0.00    +0.020 C 
ATOM      2  C   UNL     1       0.290   0.295  -1.969  0.00  0.00    +0.203 C 
ATOM      3  O   UNL     1      -0.101  -0.568  -2.727  0.00  0.00    -0.277 OA
ATOM      4  N   UNL     1       1.358   1.019  -2.316  0.00  0.00    -0.270 N 
ATOM      5  C   UNL     1       1.901   2.096  -1.497  0.00  0.00    +0.090 C 
ATOM      6  C   UNL     1       1.317   2.050  -0.080  0.00  0.00    -0.023 C 
ATOM      7  C   UNL     1       1.960   0.860   0.683  0.00  0.00    +0.152 C 
ATOM      8  S   UNL     1       3.704   0.991   0.103  0.00  0.00    -0.031 S 
ATOM      9  O   UNL     1       4.177  -0.306  -0.235  0.00  0.00    -0.174 OA
ATOM     10  O   UNL     1       4.439   1.785   1.024  0.00  0.00    -0.174 OA
ATOM     11  C   UNL     1       3.442   1.953  -1.442  0.00  0.00    +0.187 C 
ATOM     12  N   UNL     1      -0.144   1.862  -0.164  0.00  0.00    +0.392 N 
ATOM     13  H   UNL     1      -0.534   2.559  -0.808  0.00  0.00    -0.080 HD
ENDROOT
BRANCH   4  14
ATOM     14  C   UNL     1       1.988   0.729  -3.531  0.00  0.00    +0.037 A 
ATOM     15  C   UNL     1       1.930   1.638  -4.580  0.00  0.00    +0.024 A 
ATOM     16  C   UNL     1       2.557   1.351  -5.777  0.00  0.00    +0.017 A 
ATOM     17  C   UNL     1       3.235   0.155  -5.934  0.00  0.00    +0.018 A 
ATOM     18  C   UNL     1       3.290  -0.755  -4.893  0.00  0.00    +0.017 A 
ATOM     19  C   UNL     1       2.669  -0.471  -3.693  0.00  0.00    +0.024 A 
ATOM     20 BR   UNL     1       4.086  -0.238  -7.577  0.00  0.00    -0.050 Br
ENDBRANCH   4  14
BRANCH  12  21
ATOM     21  C   UNL     1      -0.755   2.045   1.170  0.00  0.00    -0.042 C 
BRANCH  21  27
ATOM     22  C   UNL     1       0.726   3.460   2.608  0.00  0.00    +0.004 A 
ATOM     23  C   UNL     1       1.116   4.685   3.114  0.00  0.00    +0.038 A 
ATOM     24  C   UNL     1       0.437   5.834   2.743  0.00  0.00    +0.123 A 
ATOM     25  C   UNL     1      -0.628   5.754   1.862  0.00  0.00    +0.038 A 
ATOM     26  C   UNL     1      -1.013   4.527   1.354  0.00  0.00    +0.004 A 
ATOM     27  C   UNL     1      -0.334   3.381   1.725  0.00  0.00    -0.064 A 
ATOM     28  F   UNL     1       0.814   7.032   3.241  0.00  0.00    -0.205 F 
ENDBRANCH  21  27
ENDBRANCH  12  21
TORSDOF 3
