REMARK  Name = ZINC10528611
REMARK  8 active torsions:
REMARK  status: ('A' for Active; 'I' for Inactive)
REMARK    1  A    between atoms: C_1  and  C_2
REMARK    2  A    between atoms: C_7  and  C_8
REMARK    3  A    between atoms: N_12  and  C_13
REMARK    4  A    between atoms: C_13  and  C_14
REMARK    5  A    between atoms: C_19  and  C_21
REMARK    6  A    between atoms: C_24  and  N_27
REMARK    7  A    between atoms: N_27  and  S_28
REMARK    8  A    between atoms: S_28  and  C_31
REMARK                            x       y       z     vdW  Elec       q    Type
REMARK                         _______ _______ _______ _____ _____    ______ ____
ROOT
ATOM      1  C   UNL     1      -0.680   1.490  -0.614  0.00  0.00    +0.044 C 
ATOM      2  C   UNL     1       0.529   1.359   0.276  0.00  0.00    -0.045 A 
ATOM      3  C   UNL     1       0.543   2.011   1.500  0.00  0.00    +0.005 A 
ATOM      4  C   UNL     1       1.653   1.893   2.317  0.00  0.00    +0.017 A 
ATOM      5  C   UNL     1       2.720   1.135   1.906  0.00  0.00    +0.041 A 
ATOM      6  C   UNL     1       2.741   0.457   0.665  0.00  0.00    +0.083 A 
ATOM      7  C   UNL     1       1.590   0.600  -0.144  0.00  0.00    -0.021 A 
ATOM      8  C   UNL     1       1.530  -0.089  -1.483  0.00  0.00    +0.046 C 
ATOM      9  N   UNL     1       3.862  -0.249   0.403  0.00  0.00    -0.224 NA
ATOM     10  C   UNL     1       4.872  -0.306   1.240  0.00  0.00    +0.169 A 
ATOM     11  S   UNL     1       4.301   0.710   2.596  0.00  0.00    -0.052 S 
ATOM     12  N   UNL     1       6.072  -0.982   1.108  0.00  0.00    -0.239 N 
ATOM     13  C   UNL     1       6.320  -1.704  -0.003  0.00  0.00    +0.253 C 
ATOM     14  O   UNL     1       5.468  -1.808  -0.864  0.00  0.00    -0.270 OA
ENDROOT
BRANCH  13  15
ATOM     15  C   UNL     1       7.625  -2.369  -0.174  0.00  0.00    +0.037 A 
ATOM     16  C   UNL     1       8.809  -1.645  -0.004  0.00  0.00    +0.015 A 
ATOM     17  C   UNL     1      10.025  -2.269  -0.159  0.00  0.00    +0.025 A 
ATOM     18  C   UNL     1      10.078  -3.619  -0.496  0.00  0.00    +0.048 A 
ATOM     19  C   UNL     1       8.901  -4.343  -0.672  0.00  0.00    +0.025 A 
ATOM     20  C   UNL     1       7.682  -3.725  -0.513  0.00  0.00    +0.015 A 
BRANCH  18  21
ATOM     21  N   UNL     1      11.308  -4.246  -0.657  0.00  0.00    -0.216 N 
ATOM     22  H   UNL     1      11.475  -5.103  -0.234  0.00  0.00    +0.174 HD
BRANCH  21  23
ATOM     23  S   UNL     1      12.488  -3.531  -1.572  0.00  0.00    +0.072 S 
ATOM     24  O   UNL     1      12.639  -2.207  -1.078  0.00  0.00    -0.150 OA
ATOM     25  O   UNL     1      13.570  -4.450  -1.629  0.00  0.00    -0.150 OA
BRANCH  23  26
ATOM     26  C   UNL     1      11.861  -3.388  -3.212  0.00  0.00    +0.108 A 
ATOM     27  C   UNL     1      11.973  -4.450  -4.090  0.00  0.00    +0.029 A 
ATOM     28  C   UNL     1      11.476  -4.340  -5.375  0.00  0.00    +0.002 A 
ATOM     29  C   UNL     1      10.877  -3.164  -5.786  0.00  0.00    +0.000 A 
ATOM     30  C   UNL     1      10.771  -2.099  -4.910  0.00  0.00    +0.002 A 
ATOM     31  C   UNL     1      11.263  -2.212  -3.623  0.00  0.00    +0.029 A 
ENDBRANCH  23  26
ENDBRANCH  21  23
ENDBRANCH  18  21
ENDBRANCH  13  15
BRANCH  12  32
ATOM     32  C   UNL     1       7.074  -0.913   2.175  0.00  0.00    +0.190 C 
BRANCH  32  33
ATOM     33  C   UNL     1       6.895  -2.082   3.109  0.00  0.00    +0.123 A 
ATOM     34  C   UNL     1       7.560  -3.249   3.044  0.00  0.00    +0.046 A 
ATOM     35  C   UNL     1       7.082  -4.052   4.105  0.00  0.00    +0.041 A 
ATOM     36  C   UNL     1       6.154  -3.327   4.755  0.00  0.00    +0.195 A 
ATOM     37  O   UNL     1       6.049  -2.132   4.151  0.00  0.00    -0.466 OA
ENDBRANCH  32  33
ENDBRANCH  12  32
TORSDOF 6
