REMARK  Name = ZINC04347112
REMARK  13 active torsions:
REMARK  status: ('A' for Active; 'I' for Inactive)
REMARK    1  A    between atoms: C_1  and  C_2
REMARK    2  A    between atoms: C_2  and  C_3
REMARK    3  A    between atoms: C_3  and  C_4
REMARK    4  A    between atoms: C_4  and  O_5
REMARK    5  A    between atoms: O_5  and  C_6
REMARK    6  A    between atoms: C_9  and  O_12
REMARK    7  A    between atoms: O_12  and  C_13
REMARK    8  A    between atoms: C_13  and  C_14
REMARK    9  A    between atoms: N_16  and  N_17
REMARK   10  A    between atoms: C_18  and  C_19
REMARK   11  A    between atoms: C_23  and  O_25
REMARK   12  A    between atoms: O_25  and  C_26
REMARK   13  A    between atoms: C_26  and  C_27
REMARK                            x       y       z     vdW  Elec       q    Type
REMARK                         _______ _______ _______ _____ _____    ______ ____
ROOT
ATOM      1  C   UNL     1      10.173  -4.325  -6.092  0.00  0.00    +0.270 C 
ATOM      2  O   UNL     1      10.822  -4.689  -5.135  0.00  0.00    -0.270 OA
ATOM      3  N   UNL     1       9.008  -3.673  -5.908  0.00  0.00    -0.204 N 
ATOM      4  H   UNL     1       8.488  -3.382  -6.673  0.00  0.00    +0.177 HD
ENDROOT
BRANCH   3   5
ATOM      5  N   UNL     1       8.547  -3.415  -4.610  0.00  0.00    -0.188 NA
ATOM      6  C   UNL     1       7.426  -2.787  -4.432  0.00  0.00    +0.138 C 
BRANCH   6   7
ATOM      7  C   UNL     1       6.941  -2.515  -3.066  0.00  0.00    -0.002 A 
ATOM      8  C   UNL     1       7.688  -2.933  -1.961  0.00  0.00    +0.010 A 
ATOM      9  C   UNL     1       7.231  -2.677  -0.685  0.00  0.00    +0.004 A 
ATOM     10  C   UNL     1       6.036  -2.008  -0.494  0.00  0.00    +0.046 A 
ATOM     11  C   UNL     1       5.287  -1.589  -1.586  0.00  0.00    +0.122 A 
ATOM     12  C   UNL     1       5.733  -1.845  -2.872  0.00  0.00    +0.055 A 
BRANCH  11  13
ATOM     13  O   UNL     1       4.113  -0.932  -1.392  0.00  0.00    -0.487 OA
BRANCH  13  14
ATOM     14  C   UNL     1       3.711  -0.707  -0.039  0.00  0.00    +0.264 C 
BRANCH  14  15
ATOM     15  C   UNL     1       2.396   0.029  -0.022  0.00  0.00    -0.010 A 
ATOM     16  C   UNL     1       1.208  -0.679  -0.014  0.00  0.00    +0.007 A 
ATOM     17  C   UNL     1       0.002  -0.004   0.002  0.00  0.00    +0.000 A 
ATOM     18  C   UNL     1      -0.017   1.378   0.010  0.00  0.00    +0.000 A 
ATOM     19  C   UNL     1       1.171   2.086   0.002  0.00  0.00    +0.000 A 
ATOM     20  C   UNL     1       2.377   1.411  -0.014  0.00  0.00    +0.007 A 
ENDBRANCH  14  15
ENDBRANCH  13  14
ENDBRANCH  11  13
ENDBRANCH   6   7
ENDBRANCH   3   5
BRANCH   1  21
ATOM     21  C   UNL     1      10.668  -4.603  -7.488  0.00  0.00    +0.326 C 
BRANCH  21  22
ATOM     22  O   UNL     1      11.913  -5.300  -7.422  0.00  0.00    -0.483 OA
BRANCH  22  26
ATOM     23  C   UNL     1      13.695  -6.299 -11.009  0.00  0.00    +0.121 A 
ATOM     24  C   UNL     1      14.307  -6.640  -9.812  0.00  0.00    +0.049 A 
ATOM     25  C   UNL     1      13.710  -6.306  -8.612  0.00  0.00    +0.049 A 
ATOM     26  C   UNL     1      12.500  -5.629  -8.604  0.00  0.00    +0.121 A 
ATOM     27  C   UNL     1      11.886  -5.292  -9.801  0.00  0.00    +0.049 A 
ATOM     28  C   UNL     1      12.484  -5.622 -11.001  0.00  0.00    +0.049 A 
BRANCH  23  29
ATOM     29  O   UNL     1      14.282  -6.628 -12.191  0.00  0.00    -0.492 OA
BRANCH  29  30
ATOM     30  C   UNL     1      13.596  -6.245 -13.385  0.00  0.00    +0.229 C 
BRANCH  30  31
ATOM     31  C   UNL     1      14.403  -6.697 -14.604  0.00  0.00    +0.041 C 
BRANCH  31  33
ATOM     32  C   UNL     1      14.475  -6.739 -17.101  0.00  0.00    +0.004 C 
ATOM     33  C   UNL     1      13.668  -6.287 -15.882  0.00  0.00    -0.000 C 
ENDBRANCH  31  33
ENDBRANCH  30  31
ENDBRANCH  29  30
ENDBRANCH  23  29
ENDBRANCH  22  26
ENDBRANCH  21  22
ENDBRANCH   1  21
TORSDOF 12
