REMARK  Name = ZINC09057581
REMARK  6 active torsions:
REMARK  status: ('A' for Active; 'I' for Inactive)
REMARK    1  A    between atoms: C_4  and  N_7
REMARK    2  A    between atoms: C_8  and  C_10
REMARK    3  A    between atoms: N_21  and  C_24
REMARK    4  A    between atoms: C_22  and  N_23
REMARK    5  A    between atoms: C_27  and  S_30
REMARK    6  A    between atoms: S_30  and  N_33
REMARK                            x       y       z     vdW  Elec       q    Type
REMARK                         _______ _______ _______ _____ _____    ______ ____
ROOT
ATOM      1  C   UNL     1      -3.824   3.070   6.959  0.00  0.00    +0.104 A 
ATOM      2  C   UNL     1      -4.518   4.149   6.236  0.00  0.00    +0.123 A 
ATOM      3  C   UNL     1      -4.002   4.094   4.866  0.00  0.00    +0.166 A 
ATOM      4  N   UNL     1      -4.451   4.948   3.971  0.00  0.00    -0.225 NA
ATOM      5  C   UNL     1      -5.363   5.863   4.321  0.00  0.00    +0.092 A 
ATOM      6  C   UNL     1      -5.844   6.785   3.372  0.00  0.00    +0.030 A 
ATOM      7  C   UNL     1      -6.771   7.711   3.737  0.00  0.00    +0.002 A 
ATOM      8  C   UNL     1      -7.256   7.764   5.043  0.00  0.00    +0.002 A 
ATOM      9  C   UNL     1      -6.815   6.891   5.988  0.00  0.00    +0.030 A 
ATOM     10  C   UNL     1      -5.856   5.918   5.649  0.00  0.00    +0.090 A 
ATOM     11  N   UNL     1      -5.416   5.054   6.571  0.00  0.00    -0.241 NA
ATOM     12  N   UNL     1      -3.092   3.055   4.819  0.00  0.00    -0.280 N 
ATOM     13  C   UNL     1      -2.982   2.456   6.038  0.00  0.00    +0.117 A 
ENDROOT
BRANCH  12  14
ATOM     14  C   UNL     1      -2.376   2.674   3.676  0.00  0.00    +0.050 A 
ATOM     15  C   UNL     1      -2.589   1.426   3.106  0.00  0.00    +0.028 A 
ATOM     16  C   UNL     1      -1.882   1.053   1.980  0.00  0.00    +0.030 A 
ATOM     17  C   UNL     1      -0.963   1.921   1.420  0.00  0.00    +0.105 A 
ATOM     18  C   UNL     1      -0.745   3.163   1.988  0.00  0.00    +0.030 A 
ATOM     19  C   UNL     1      -1.453   3.543   3.111  0.00  0.00    +0.028 A 
BRANCH  17  20
ATOM     20  S   UNL     1      -0.062   1.441  -0.016  0.00  0.00    +0.056 S 
ATOM     21  O   UNL     1      -0.048   0.020  -0.031  0.00  0.00    -0.153 OA
ATOM     22  O   UNL     1       1.130   2.215  -0.026  0.00  0.00    -0.153 OA
BRANCH  20  23
ATOM     23  N   UNL     1      -0.947   1.919  -1.332  0.00  0.00    -0.204 NA
ATOM     24  H   UNL     1      -1.795   2.374  -1.207  0.00  0.00    +0.144 HD
ATOM     25  H   UNL     1      -0.618   1.745  -2.227  0.00  0.00    +0.144 HD
ENDBRANCH  20  23
ENDBRANCH  17  20
ENDBRANCH  12  14
BRANCH   1  27
ATOM     26  N   UNL     1      -4.913   1.819   8.687  0.00  0.00    -0.281 N 
ATOM     27  C   UNL     1      -3.983   2.724   8.325  0.00  0.00    +0.254 C 
ATOM     28  O   UNL     1      -3.279   3.246   9.171  0.00  0.00    -0.270 OA
ATOM     29  H   UNL     1      -5.518   1.453   8.024  0.00  0.00    +0.155 HD
BRANCH  26  33
ATOM     30  C   UNL     1      -5.189   0.591  12.658  0.00  0.00    +0.000 A 
ATOM     31  C   UNL     1      -4.846   1.897  12.362  0.00  0.00    +0.002 A 
ATOM     32  C   UNL     1      -4.753   2.308  11.047  0.00  0.00    +0.023 A 
ATOM     33  C   UNL     1      -5.005   1.406  10.021  0.00  0.00    +0.034 A 
ATOM     34  C   UNL     1      -5.355   0.096  10.321  0.00  0.00    +0.023 A 
ATOM     35  C   UNL     1      -5.441  -0.309  11.639  0.00  0.00    +0.002 A 
ENDBRANCH  26  33
ENDBRANCH   1  27
BRANCH  13  36
ATOM     36  N   UNL     1      -2.157   1.397   6.317  0.00  0.00    -0.343 N 
ATOM     37  H   UNL     1      -1.597   1.022   5.620  0.00  0.00    +0.144 HD
ATOM     38  H   UNL     1      -2.134   1.024   7.212  0.00  0.00    +0.144 HD
ENDBRANCH  13  36
TORSDOF 6
