REMARK  Name = ZINC64502995
REMARK  4 active torsions:
REMARK  status: ('A' for Active; 'I' for Inactive)
REMARK    1  A    between atoms: C_1  and  C_2
REMARK    2  A    between atoms: C_5  and  N_8
REMARK    3  A    between atoms: C_13  and  N_16
REMARK    4  A    between atoms: C_22  and  C_24
REMARK                            x       y       z     vdW  Elec       q    Type
REMARK                         _______ _______ _______ _____ _____    ______ ____
ROOT
ATOM      1  N   UNL     1       2.407  -5.622   0.794  0.00  0.00    -0.280 NA
ATOM      2  C   UNL     1       2.833  -4.607   1.767  0.00  0.00    +0.105 C 
ATOM      3  C   UNL     1       4.213  -4.072   1.371  0.00  0.00    +0.123 C 
ATOM      4  N   UNL     1       5.130  -5.212   1.218  0.00  0.00    -0.297 N 
ATOM      5  C   UNL     1       4.710  -6.334   0.365  0.00  0.00    +0.123 C 
ATOM      6  C   UNL     1       3.311  -6.780   0.801  0.00  0.00    +0.105 C 
ATOM      7  C   UNL     1       6.324  -5.228   1.844  0.00  0.00    +0.242 C 
ATOM      8  O   UNL     1       6.654  -4.294   2.544  0.00  0.00    -0.273 OA
ENDROOT
BRANCH   7   9
ATOM      9  C   UNL     1       7.248  -6.405   1.674  0.00  0.00    +0.190 C 
ATOM     10  C   UNL     1       6.599  -7.660   2.216  0.00  0.00    +0.016 C 
ATOM     11  C   UNL     1       7.403  -8.097   3.211  0.00  0.00    -0.002 A 
ATOM     12  C   UNL     1       7.326  -9.250   4.117  0.00  0.00    +0.029 A 
ATOM     13  C   UNL     1       8.305  -9.431   5.034  0.00  0.00    +0.042 A 
ATOM     14  C   UNL     1       9.387  -8.545   5.141  0.00  0.00    +0.022 A 
ATOM     15  C   UNL     1       9.526  -7.464   4.345  0.00  0.00    +0.027 A 
ATOM     16  C   UNL     1       8.556  -7.178   3.345  0.00  0.00    +0.043 A 
ATOM     17  N   UNL     1       8.469  -6.209   2.464  0.00  0.00    -0.370 N 
ATOM     18 CL   UNL     1       8.217 -10.793   6.107  0.00  0.00    -0.084 Cl
ATOM     19  H   UNL     1       9.104  -5.484   2.354  0.00  0.00    +0.161 HD
ENDBRANCH   7   9
BRANCH   1  25
ATOM     20  N   UNL     1       0.059  -4.169  -0.021  0.00  0.00    -0.200 N 
ATOM     21  C   UNL     1      -0.035  -4.830  -1.193  0.00  0.00    +0.257 C 
ATOM     22  O   UNL     1      -0.175  -4.221  -2.236  0.00  0.00    -0.269 OA
ATOM     23  C   UNL     1       0.034  -6.303  -1.187  0.00  0.00    +0.068 C 
ATOM     24  C   UNL     1       0.544  -6.898  -0.104  0.00  0.00    +0.014 C 
ATOM     25  C   UNL     1       1.019  -6.036   1.039  0.00  0.00    +0.166 C 
ATOM     26  N   UNL     1       0.177  -4.846   1.155  0.00  0.00    -0.212 NA
ATOM     27  H   UNL     1      -0.730  -5.084   1.528  0.00  0.00    +0.147 HD
BRANCH  20  32
ATOM     28  C   UNL     1      -0.018   1.503   0.009  0.00  0.00    +0.044 C 
ATOM     29  C   UNL     1       0.002  -0.004   0.001  0.00  0.00    -0.050 A 
ATOM     30  C   UNL     1       0.833  -0.678  -0.876  0.00  0.00    +0.005 A 
ATOM     31  C   UNL     1       0.854  -2.059  -0.885  0.00  0.00    +0.025 A 
ATOM     32  C   UNL     1       0.040  -2.771  -0.013  0.00  0.00    +0.053 A 
ATOM     33  C   UNL     1      -0.792  -2.091   0.866  0.00  0.00    +0.025 A 
ATOM     34  C   UNL     1      -0.805  -0.710   0.875  0.00  0.00    +0.005 A 
ENDBRANCH  20  32
ENDBRANCH   1  25
TORSDOF 3
