REMARK  Name = ZINC11285729
REMARK  4 active torsions:
REMARK  status: ('A' for Active; 'I' for Inactive)
REMARK    1  A    between atoms: C_1  and  C_2
REMARK    2  A    between atoms: C_16  and  C_17
REMARK    3  A    between atoms: C_16  and  N_58
REMARK    4  A    between atoms: N_22  and  C_23
REMARK                            x       y       z     vdW  Elec       q    Type
REMARK                         _______ _______ _______ _____ _____    ______ ____
ROOT
ATOM      1  C   UNL     1       2.552   3.386   1.513  0.00  0.00    -0.008 C 
ATOM      2  C   UNL     1       3.763   2.475   1.302  0.00  0.00    -0.040 C 
ATOM      3  C   UNL     1       5.021   3.301   1.360  0.00  0.00    -0.054 A 
ATOM      4  C   UNL     1       5.119   4.290   2.328  0.00  0.00    +0.051 A 
ATOM      5  C   UNL     1       6.258   5.071   2.424  0.00  0.00    +0.162 A 
ATOM      6  C   UNL     1       7.314   4.857   1.545  0.00  0.00    +0.162 A 
ATOM      7  C   UNL     1       7.210   3.872   0.576  0.00  0.00    +0.053 A 
ATOM      8  C   UNL     1       6.064   3.097   0.481  0.00  0.00    -0.038 A 
ATOM      9  C   UNL     1       5.990   2.047  -0.594  0.00  0.00    -0.019 C 
ATOM     10  C   UNL     1       7.336   1.304  -0.688  0.00  0.00    +0.010 C 
ATOM     11  C   UNL     1       7.526   1.054  -2.205  0.00  0.00    +0.001 C 
ATOM     12  C   UNL     1       6.968   2.353  -2.840  0.00  0.00    +0.001 C 
ATOM     13  C   UNL     1       5.753   2.713  -1.958  0.00  0.00    +0.010 C 
ATOM     14  C   UNL     1       4.872   1.052  -0.299  0.00  0.00    -0.066 C 
ATOM     15  O   UNL     1       8.447   5.596   1.632  0.00  0.00    -0.485 OA
ATOM     16  C   UNL     1       8.443   6.782   2.412  0.00  0.00    +0.270 C 
ATOM     17  C   UNL     1       7.587   6.633   3.659  0.00  0.00    +0.270 C 
ATOM     18  O   UNL     1       6.331   6.041   3.368  0.00  0.00    -0.485 OA
ATOM     19  N   UNL     1       3.644   1.824  -0.013  0.00  0.00    +0.390 N 
ATOM     20  H   UNL     1       3.527   2.545  -0.735  0.00  0.00    -0.080 HD
ENDROOT
BRANCH  19  21
ATOM     21  C   UNL     1       2.466   0.928  -0.030  0.00  0.00    +0.020 C 
BRANCH  21  22
ATOM     22  C   UNL     1       2.147   0.570  -1.459  0.00  0.00    +0.204 C 
ATOM     23  O   UNL     1       2.775   1.074  -2.365  0.00  0.00    -0.277 OA
ATOM     24  N   UNL     1       1.165  -0.313  -1.729  0.00  0.00    -0.242 N 
ATOM     25  C   UNL     1       0.884  -0.638  -3.006  0.00  0.00    +0.306 C 
ATOM     26  O   UNL     1       1.513  -0.132  -3.915  0.00  0.00    -0.252 OA
ATOM     27  N   UNL     1      -0.095  -1.524  -3.277  0.00  0.00    -0.296 N 
ATOM     28  H   UNL     1       0.663  -0.717  -1.004  0.00  0.00    +0.159 HD
ATOM     29  H   UNL     1      -0.597  -1.928  -2.552  0.00  0.00    +0.151 HD
BRANCH  27  30
ATOM     30  C   UNL     1      -0.400  -1.877  -4.665  0.00  0.00    +0.075 C 
ATOM     31  C   UNL     1      -1.875  -1.955  -5.066  0.00  0.00    +0.024 C 
ATOM     32  C   UNL     1      -1.052  -3.238  -4.921  0.00  0.00    +0.024 C 
ENDBRANCH  27  30
ENDBRANCH  21  22
ENDBRANCH  19  21
TORSDOF 3
