REMARK  Name = ZINC09462176
REMARK  11 active torsions:
REMARK  status: ('A' for Active; 'I' for Inactive)
REMARK    1  A    between atoms: C_1  and  C_2
REMARK    2  A    between atoms: C_3  and  C_14
REMARK    3  A    between atoms: C_4  and  C_13
REMARK    4  A    between atoms: N_5  and  C_7
REMARK    5  A    between atoms: C_14  and  N_60
REMARK    6  A    between atoms: C_15  and  N_60
REMARK    7  A    between atoms: C_16  and  C_17
REMARK    8  A    between atoms: C_16  and  N_60
REMARK    9  A    between atoms: N_19  and  C_20
REMARK   10  A    between atoms: C_22  and  C_26
REMARK   11  A    between atoms: N_24  and  C_25
REMARK                            x       y       z     vdW  Elec       q    Type
REMARK                         _______ _______ _______ _____ _____    ______ ____
ROOT
ATOM      1  C   UNL     1       3.737   5.160  -0.128  0.00  0.00    +0.019 C 
ENDROOT
BRANCH   1   2
ATOM      2  C   UNL     1       3.081   3.808  -0.238  0.00  0.00    +0.202 C 
ATOM      3  O   UNL     1       3.764   2.808  -0.312  0.00  0.00    -0.278 OA
ATOM      4  N   UNL     1       1.737   3.709  -0.254  0.00  0.00    -0.272 N 
ATOM      5  H   UNL     1       1.192   4.509  -0.194  0.00  0.00    +0.156 HD
BRANCH   4   6
ATOM      6  C   UNL     1       1.131   2.458  -0.356  0.00  0.00    +0.123 A 
ATOM      7  C   UNL     1       1.770   1.262  -0.445  0.00  0.00    +0.073 A 
ATOM      8  C   UNL     1       0.791   0.255  -0.530  0.00  0.00    +0.095 A 
ATOM      9  N   UNL     1      -0.393   0.831  -0.497  0.00  0.00    -0.170 NA
ATOM     10  N   UNL     1      -0.206   2.214  -0.383  0.00  0.00    -0.253 N 
ATOM     11  C   UNL     1      -1.266   3.223  -0.311  0.00  0.00    +0.174 C 
BRANCH   8  12
ATOM     12  C   UNL     1       1.047  -1.202  -0.643  0.00  0.00    +0.002 A 
ATOM     13  C   UNL     1       2.355  -1.681  -0.679  0.00  0.00    +0.011 A 
ATOM     14  C   UNL     1       2.588  -3.038  -0.779  0.00  0.00    +0.020 A 
ATOM     15  C   UNL     1       1.525  -3.921  -0.855  0.00  0.00    +0.041 A 
ATOM     16  C   UNL     1       0.224  -3.450  -0.825  0.00  0.00    +0.020 A 
ATOM     17  C   UNL     1      -0.019  -2.096  -0.720  0.00  0.00    +0.011 A 
ATOM     18 CL   UNL     1       1.825  -5.626  -0.988  0.00  0.00    -0.084 Cl
ENDBRANCH   8  12
ENDBRANCH   4   6
ENDBRANCH   1   2
BRANCH   1  20
ATOM     19  C   UNL     1       5.667   4.487  -1.426  0.00  0.00    -0.095 C 
ATOM     20  N   UNL     1       5.204   4.979  -0.111  0.00  0.00    +0.386 N 
ATOM     21  H   UNL     1       5.446   4.288   0.608  0.00  0.00    -0.081 HD
BRANCH  20  22
ATOM     22  C   UNL     1       5.867   6.261   0.211  0.00  0.00    -0.039 C 
BRANCH  22  25
ATOM     23  C   UNL     1       7.223   5.527   2.979  0.00  0.00    +0.068 C 
ATOM     24  C   UNL     1       7.934   5.681   1.660  0.00  0.00    +0.062 A 
ATOM     25  C   UNL     1       7.335   6.005   0.438  0.00  0.00    -0.020 A 
ATOM     26  C   UNL     1       8.306   6.053  -0.503  0.00  0.00    +0.043 A 
ATOM     27  N   UNL     1       9.480   5.764   0.102  0.00  0.00    -0.237 N 
ATOM     28  N   UNL     1       9.219   5.531   1.459  0.00  0.00    -0.171 NA
ATOM     29  C   UNL     1       8.114   6.371  -1.964  0.00  0.00    +0.066 C 
BRANCH  27  30
ATOM     30  C   UNL     1      10.736   5.707  -0.518  0.00  0.00    +0.066 A 
ATOM     31  C   UNL     1      11.625   4.690  -0.196  0.00  0.00    +0.028 A 
ATOM     32  C   UNL     1      12.859   4.633  -0.813  0.00  0.00    +0.002 A 
ATOM     33  C   UNL     1      13.214   5.594  -1.742  0.00  0.00    +0.000 A 
ATOM     34  C   UNL     1      12.333   6.611  -2.061  0.00  0.00    +0.002 A 
ATOM     35  C   UNL     1      11.095   6.670  -1.451  0.00  0.00    +0.028 A 
ENDBRANCH  27  30
ENDBRANCH  22  25
ENDBRANCH  20  22
ENDBRANCH   1  20
TORSDOF 7
