REMARK  Name = ZINC12779601
REMARK  5 active torsions:
REMARK  status: ('A' for Active; 'I' for Inactive)
REMARK    1  A    between atoms: C_1  and  C_2
REMARK    2  A    between atoms: C_3  and  C_14
REMARK    3  A    between atoms: C_6  and  C_8
REMARK    4  A    between atoms: N_16  and  C_17
REMARK    5  A    between atoms: C_26  and  C_28
REMARK                            x       y       z     vdW  Elec       q    Type
REMARK                         _______ _______ _______ _____ _____    ______ ____
ROOT
ATOM      1  C   UNL     1       1.216   3.451   0.557  0.00  0.00    +0.250 C 
ATOM      2  O   UNL     1       0.167   4.052   0.689  0.00  0.00    -0.270 OA
ATOM      3  N   UNL     1       2.387   4.106   0.682  0.00  0.00    -0.281 N 
ATOM      4  H   UNL     1       3.222   3.642   0.512  0.00  0.00    +0.155 HD
ENDROOT
BRANCH   3   5
ATOM      5  C   UNL     1       2.399   5.454   1.057  0.00  0.00    +0.034 A 
ATOM      6  C   UNL     1       3.417   5.946   1.863  0.00  0.00    +0.025 A 
ATOM      7  C   UNL     1       3.428   7.273   2.232  0.00  0.00    +0.025 A 
ATOM      8  C   UNL     1       2.418   8.135   1.800  0.00  0.00    +0.040 A 
ATOM      9  C   UNL     1       1.405   7.638   0.995  0.00  0.00    -0.023 A 
ATOM     10  C   UNL     1       1.396   6.309   0.619  0.00  0.00    +0.028 A 
ATOM     11  C   UNL     1       0.451   8.765   0.670  0.00  0.00    +0.056 C 
ATOM     12  C   UNL     1       1.038   9.990   1.391  0.00  0.00    +0.118 C 
ATOM     13  N   UNL     1       2.247   9.500   2.058  0.00  0.00    -0.271 N 
ATOM     14  C   UNL     1       3.074  10.254   2.810  0.00  0.00    +0.217 C 
ATOM     15  O   UNL     1       2.838  11.432   2.975  0.00  0.00    -0.276 OA
ATOM     16  C   UNL     1       4.291   9.632   3.445  0.00  0.00    +0.109 C 
ENDBRANCH   3   5
BRANCH   1  19
ATOM     17  C   UNL     1      -1.290   2.116   0.008  0.00  0.00    +0.066 C 
ATOM     18  C   UNL     1       0.004   1.343  -0.003  0.00  0.00    +0.051 A 
ATOM     19  C   UNL     1       1.206   2.004   0.262  0.00  0.00    +0.058 A 
ATOM     20  C   UNL     1       2.403   1.275   0.242  0.00  0.00    +0.017 A 
ATOM     21  C   UNL     1       2.344  -0.075  -0.040  0.00  0.00    +0.029 A 
ATOM     22  C   UNL     1       1.106  -0.665  -0.294  0.00  0.00    +0.071 A 
ATOM     23  N   UNL     1      -0.009   0.056  -0.268  0.00  0.00    -0.251 NA
BRANCH  22  24
ATOM     24  C   UNL     1       1.034  -2.114  -0.597  0.00  0.00    +0.000 A 
ATOM     25  C   UNL     1       2.198  -2.880  -0.634  0.00  0.00    +0.010 A 
ATOM     26  C   UNL     1       2.124  -4.230  -0.911  0.00  0.00    +0.001 A 
ATOM     27  C   UNL     1       0.899  -4.821  -1.163  0.00  0.00    +0.000 A 
ATOM     28  C   UNL     1      -0.259  -4.064  -1.134  0.00  0.00    +0.001 A 
ATOM     29  C   UNL     1      -0.198  -2.715  -0.853  0.00  0.00    +0.010 A 
ENDBRANCH  22  24
ENDBRANCH   1  19
TORSDOF 3
