REMARK  Name = ZINC21999309
REMARK  6 active torsions:
REMARK  status: ('A' for Active; 'I' for Inactive)
REMARK    1  A    between atoms: C_1  and  C_2
REMARK    2  A    between atoms: C_10  and  C_12
REMARK    3  A    between atoms: C_12  and  O_13
REMARK    4  A    between atoms: O_13  and  C_14
REMARK    5  A    between atoms: C_14  and  C_16
REMARK    6  A    between atoms: C_18  and  N_24
REMARK                            x       y       z     vdW  Elec       q    Type
REMARK                         _______ _______ _______ _____ _____    ______ ____
ROOT
ATOM      1  C   UNL     1      -1.257  -4.888   5.662  0.00  0.00    +0.360 C 
ATOM      2  O   UNL     1      -0.375  -5.002   6.489  0.00  0.00    -0.243 OA
ENDROOT
BRANCH   1   3
ATOM      3  C   UNL     1      -2.484  -5.708   5.772  0.00  0.00    +0.169 A 
ATOM      4  C   UNL     1      -2.622  -6.604   6.829  0.00  0.00    +0.095 A 
ATOM      5  C   UNL     1      -3.786  -7.369   6.918  0.00  0.00    +0.067 A 
ATOM      6  C   UNL     1      -4.764  -7.202   5.940  0.00  0.00    +0.100 A 
ATOM      7  C   UNL     1      -4.553  -6.290   4.919  0.00  0.00    +0.150 A 
ATOM      8  N   UNL     1      -3.446  -5.578   4.864  0.00  0.00    -0.226 NA
ATOM      9 CL   UNL     1      -5.767  -6.077   3.697  0.00  0.00    -0.060 Cl
ATOM     10 CL   UNL     1      -6.232  -8.128   6.000  0.00  0.00    -0.078 Cl
ATOM     11 CL   UNL     1      -1.366  -6.766   8.017  0.00  0.00    -0.079 Cl
BRANCH   5  12
ATOM     12  N   UNL     1      -3.964  -8.278   7.960  0.00  0.00    -0.356 N 
ATOM     13  H   UNL     1      -3.275  -8.384   8.634  0.00  0.00    +0.142 HD
ATOM     14  H   UNL     1      -4.778  -8.804   8.010  0.00  0.00    +0.142 HD
ENDBRANCH   5  12
ENDBRANCH   1   3
BRANCH   1  15
ATOM     15  O   UNL     1      -1.119  -4.016   4.645  0.00  0.00    -0.454 OA
BRANCH  15  16
ATOM     16  C   UNL     1       0.091  -3.257   4.601  0.00  0.00    +0.288 C 
BRANCH  16  26
ATOM     17  C   UNL     1      -0.018   1.503   0.010  0.00  0.00    +0.064 C 
ATOM     18  C   UNL     1       0.002  -0.004   0.002  0.00  0.00    +0.033 A 
ATOM     19  C   UNL     1       0.005  -0.653  -1.162  0.00  0.00    +0.070 A 
ATOM     20  S   UNL     1       0.032  -2.358  -0.630  0.00  0.00    -0.057 S 
ATOM     21  C   UNL     1       0.036  -2.054   1.123  0.00  0.00    +0.181 A 
ATOM     22  N   UNL     1       0.023  -0.686   1.195  0.00  0.00    -0.259 N 
ATOM     23  C   UNL     1       0.027  -0.142   2.448  0.00  0.00    +0.259 A 
ATOM     24  O   UNL     1       0.011   1.071   2.587  0.00  0.00    -0.267 OA
ATOM     25  C   UNL     1       0.049  -0.973   3.568  0.00  0.00    +0.097 A 
ATOM     26  C   UNL     1       0.066  -2.342   3.404  0.00  0.00    +0.087 A 
ATOM     27  N   UNL     1       0.052  -2.840   2.171  0.00  0.00    -0.224 NA
ENDBRANCH  16  26
ENDBRANCH  15  16
ENDBRANCH   1  15
TORSDOF 5
