REMARK  Name = ZINC36573993
REMARK  21 active torsions:
REMARK  status: ('A' for Active; 'I' for Inactive)
REMARK    1  A    between atoms: C_1  and  C_2
REMARK    2  A    between atoms: C_2  and  C_3
REMARK    3  A    between atoms: C_3  and  C_4
REMARK    4  A    between atoms: N_6  and  C_7
REMARK    5  A    between atoms: N_6  and  C_10
REMARK    6  A    between atoms: C_7  and  C_8
REMARK    7  A    between atoms: C_8  and  C_9
REMARK    8  A    between atoms: C_10  and  C_12
REMARK    9  A    between atoms: C_10  and  C_17
REMARK   10  A    between atoms: C_12  and  C_13
REMARK   11  A    between atoms: C_12  and  C_15
REMARK   12  A    between atoms: C_13  and  C_14
REMARK   13  A    between atoms: C_15  and  C_16
REMARK   14  A    between atoms: N_19  and  C_20
REMARK   15  A    between atoms: C_20  and  C_21
REMARK   16  A    between atoms: C_20  and  C_22
REMARK   17  A    between atoms: C_20  and  C_23
REMARK   18  A    between atoms: C_23  and  C_24
REMARK   19  A    between atoms: C_24  and  C_25
REMARK   20  A    between atoms: C_24  and  C_26
REMARK   21  A    between atoms: C_24  and  C_27
REMARK                            x       y       z     vdW  Elec       q    Type
REMARK                         _______ _______ _______ _____ _____    ______ ____
ROOT
ATOM      1  C   UNL     1       0.489  -3.616  -2.215  0.00  0.00    +0.165 C 
ENDROOT
BRANCH   1   2
ATOM      2  C   UNL     1      -0.300  -3.518  -3.495  0.00  0.00    +0.234 C 
ATOM      3  O   UNL     1      -0.230  -2.517  -4.176  0.00  0.00    -0.274 OA
ATOM      4  N   UNL     1      -1.083  -4.544  -3.884  0.00  0.00    -0.309 N 
ATOM      5  H   UNL     1      -1.176  -5.325  -3.317  0.00  0.00    +0.149 HD
BRANCH   4   6
ATOM      6  C   UNL     1      -1.794  -4.479  -5.163  0.00  0.00    +0.030 C 
ATOM      7  C   UNL     1      -2.729  -3.268  -5.166  0.00  0.00    +0.031 C 
ATOM      8  C   UNL     1      -0.782  -4.345  -6.303  0.00  0.00    +0.031 C 
BRANCH   6   9
ATOM      9  C   UNL     1      -2.614  -5.756  -5.356  0.00  0.00    +0.031 C 
BRANCH   9  10
ATOM     10  C   UNL     1      -1.670  -6.953  -5.488  0.00  0.00    -0.036 C 
ATOM     11  C   UNL     1      -0.569  -6.854  -4.430  0.00  0.00    +0.010 C 
ATOM     12  C   UNL     1      -2.457  -8.249  -5.284  0.00  0.00    +0.010 C 
ATOM     13  C   UNL     1      -1.038  -6.954  -6.882  0.00  0.00    +0.010 C 
ENDBRANCH   9  10
ENDBRANCH   6   9
ENDBRANCH   4   6
ENDBRANCH   1   2
BRANCH   1  16
ATOM     14  C   UNL     1       0.681  -1.830  -0.568  0.00  0.00    +0.216 C 
ATOM     15  O   UNL     1       0.085  -2.532   0.220  0.00  0.00    -0.276 OA
ATOM     16  N   UNL     1       0.935  -2.279  -1.813  0.00  0.00    -0.290 N 
BRANCH  14  17
ATOM     17  C   UNL     1       1.140  -0.455  -0.155  0.00  0.00    +0.096 C 
BRANCH  17  19
ATOM     18  C   UNL     1       1.195   1.201   1.715  0.00  0.00    +0.004 C 
ATOM     19  C   UNL     1       0.729  -0.195   1.296  0.00  0.00    +0.006 C 
ENDBRANCH  17  19
ENDBRANCH  14  17
BRANCH  16  20
ATOM     20  C   UNL     1       1.656  -1.431  -2.765  0.00  0.00    +0.108 C 
BRANCH  20  21
ATOM     21  C   UNL     1       3.127  -1.339  -2.354  0.00  0.00    +0.016 C 
ATOM     22  C   UNL     1       3.885  -0.475  -3.364  0.00  0.00    +0.005 C 
ENDBRANCH  20  21
ENDBRANCH  16  20
ENDBRANCH   1  16
BRANCH   1  23
ATOM     23  C   UNL     1       1.707  -4.515  -2.433  0.00  0.00    +0.018 C 
BRANCH  23  24
ATOM     24  C   UNL     1       2.501  -4.015  -3.641  0.00  0.00    +0.002 C 
ATOM     25  C   UNL     1       1.760  -4.387  -4.928  0.00  0.00    +0.004 C 
ENDBRANCH  23  24
BRANCH  23  26
ATOM     26  C   UNL     1       2.596  -4.481  -1.189  0.00  0.00    +0.002 C 
ATOM     27  C   UNL     1       1.860  -5.133  -0.017  0.00  0.00    +0.004 C 
ENDBRANCH  23  26
ENDBRANCH   1  23
TORSDOF 12
