REMARK  Name = ZINC08772224
REMARK  9 active torsions:
REMARK  status: ('A' for Active; 'I' for Inactive)
REMARK    1  A    between atoms: C_1  and  C_2
REMARK    2  A    between atoms: C_2  and  C_3
REMARK    3  A    between atoms: C_4  and  C_31
REMARK    4  A    between atoms: C_6  and  C_8
REMARK    5  A    between atoms: N_10  and  C_11
REMARK    6  A    between atoms: N_10  and  C_12
REMARK    7  A    between atoms: C_12  and  C_13
REMARK    8  A    between atoms: N_18  and  C_21
REMARK    9  A    between atoms: C_24  and  C_26
REMARK                            x       y       z     vdW  Elec       q    Type
REMARK                         _______ _______ _______ _____ _____    ______ ____
ROOT
ATOM      1  C   UNL     1      -5.003   1.363   1.979  0.00  0.00    +0.233 C 
ATOM      2  O   UNL     1      -4.033   1.594   2.669  0.00  0.00    -0.274 OA
ATOM      3  N   UNL     1      -6.130   0.879   2.539  0.00  0.00    -0.297 N 
ATOM      4  C   UNL     1      -7.319   0.597   1.722  0.00  0.00    +0.126 C 
ATOM      5  C   UNL     1      -7.786  -0.835   2.029  0.00  0.00    +0.125 C 
ATOM      6  N   UNL     1      -7.980  -0.981   3.477  0.00  0.00    -0.313 N 
ATOM      7  C   UNL     1      -6.717  -0.801   4.205  0.00  0.00    +0.125 C 
ATOM      8  C   UNL     1      -6.204   0.626   3.986  0.00  0.00    +0.126 C 
ENDROOT
BRANCH   6   9
ATOM      9  C   UNL     1      -8.560  -2.208   3.781  0.00  0.00    +0.118 A 
ATOM     10  C   UNL     1      -9.780  -2.248   4.452  0.00  0.00    +0.079 A 
ATOM     11  C   UNL     1     -10.348  -3.475   4.743  0.00  0.00    +0.037 A 
ATOM     12  C   UNL     1      -9.670  -4.626   4.361  0.00  0.00    +0.072 A 
ATOM     13  C   UNL     1      -8.461  -4.513   3.704  0.00  0.00    +0.096 A 
ATOM     14 CL   UNL     1     -10.580  -0.777   4.911  0.00  0.00    -0.080 Cl
ATOM     15  N   UNL     1      -7.876  -3.324   3.397  0.00  0.00    -0.348 N 
ATOM     16  H   UNL     1      -6.976  -3.270   2.907  0.00  0.00    +0.167 HD
BRANCH  12  17
ATOM     17  C   UNL     1     -10.248  -5.985   4.662  0.00  0.00    +0.419 C 
ATOM     18  F   UNL     1      -9.385  -6.976   4.181  0.00  0.00    -0.166 F 
ATOM     19  F   UNL     1     -10.401  -6.131   6.045  0.00  0.00    -0.166 F 
ATOM     20  F   UNL     1     -11.494  -6.110   4.039  0.00  0.00    -0.166 F 
ENDBRANCH  12  17
ENDBRANCH   6   9
BRANCH   1  21
ATOM     21  C   UNL     1      -4.949   1.615   0.494  0.00  0.00    +0.203 C 
BRANCH  21  24
ATOM     22  C   UNL     1      -2.637   1.285  -0.201  0.00  0.00    +0.253 C 
ATOM     23  O   UNL     1      -2.850   0.087  -0.237  0.00  0.00    -0.269 OA
ATOM     24  N   UNL     1      -3.627   2.135   0.135  0.00  0.00    -0.291 N 
ATOM     25  C   UNL     1      -3.382   3.579   0.141  0.00  0.00    +0.133 C 
BRANCH  22  29
ATOM     26  C   UNL     1       0.896   3.201  -1.088  0.00  0.00    -0.007 A 
ATOM     27  C   UNL     1       0.990   1.847  -1.044  0.00  0.00    -0.040 A 
ATOM     28  C   UNL     1      -0.128   1.106  -0.753  0.00  0.00    +0.024 A 
ATOM     29  C   UNL     1      -1.304   1.803  -0.524  0.00  0.00    +0.075 A 
ATOM     30  S   UNL     1      -0.773   3.494  -0.721  0.00  0.00    -0.088 S 
ATOM     31  C   UNL     1       2.307   1.165  -1.312  0.00  0.00    +0.044 C 
BRANCH  26  33
ATOM     32  C   UNL     1       2.025   4.478  -2.890  0.00  0.00    +0.009 C 
ATOM     33  C   UNL     1       1.980   4.206  -1.385  0.00  0.00    +0.039 C 
ENDBRANCH  26  33
ENDBRANCH  22  29
ENDBRANCH  21  24
ENDBRANCH   1  21
TORSDOF 6
