REMARK  Name = ZINC23381949
REMARK  6 active torsions:
REMARK  status: ('A' for Active; 'I' for Inactive)
REMARK    1  A    between atoms: C_1  and  C_2
REMARK    2  A    between atoms: C_5  and  N_8
REMARK    3  A    between atoms: C_9  and  C_24
REMARK    4  A    between atoms: N_11  and  C_14
REMARK    5  A    between atoms: C_14  and  N_15
REMARK    6  A    between atoms: C_18  and  C_21
REMARK                            x       y       z     vdW  Elec       q    Type
REMARK                         _______ _______ _______ _____ _____    ______ ____
ROOT
ATOM      1  N   UNL     1      -0.168  -4.196   0.006  0.00  0.00    -0.271 N 
ATOM      2  C   UNL     1       0.166  -4.986   1.091  0.00  0.00    +0.167 A 
ATOM      3  N   UNL     1       0.359  -6.205   0.670  0.00  0.00    -0.152 NA
ATOM      4  N   UNL     1       0.151  -6.225  -0.715  0.00  0.00    -0.257 N 
ATOM      5  C   UNL     1      -0.178  -4.973  -1.095  0.00  0.00    +0.181 A 
ATOM      6  S   UNL     1      -0.538  -4.462  -2.689  0.00  0.00    -0.011 S 
ENDROOT
BRANCH   1  11
ATOM      7  C   UNL     1      -1.321   1.358   0.170  0.00  0.00    +0.044 C 
ATOM      8  C   UNL     1      -1.015  -0.117   0.126  0.00  0.00    -0.050 A 
ATOM      9  C   UNL     1      -2.009  -1.037   0.405  0.00  0.00    +0.005 A 
ATOM     10  C   UNL     1      -1.732  -2.389   0.366  0.00  0.00    +0.026 A 
ATOM     11  C   UNL     1      -0.453  -2.825   0.046  0.00  0.00    +0.050 A 
ATOM     12  C   UNL     1       0.544  -1.899  -0.233  0.00  0.00    +0.026 A 
ATOM     13  C   UNL     1       0.259  -0.548  -0.198  0.00  0.00    +0.005 A 
ENDBRANCH   1  11
BRANCH   2  14
ATOM     14  C   UNL     1       0.284  -4.526   2.492  0.00  0.00    +0.020 A 
ATOM     15  C   UNL     1       0.182  -3.167   2.793  0.00  0.00    +0.013 A 
ATOM     16  C   UNL     1       0.292  -2.744   4.102  0.00  0.00    +0.021 A 
ATOM     17  C   UNL     1       0.504  -3.664   5.114  0.00  0.00    +0.041 A 
ATOM     18  C   UNL     1       0.606  -5.014   4.821  0.00  0.00    +0.021 A 
ATOM     19  C   UNL     1       0.491  -5.449   3.517  0.00  0.00    +0.013 A 
ATOM     20 CL   UNL     1       0.643  -3.124   6.758  0.00  0.00    -0.084 Cl
ENDBRANCH   2  14
BRANCH   4  21
ATOM     21  C   UNL     1       0.264  -7.394  -1.591  0.00  0.00    +0.072 C 
BRANCH  21  22
ATOM     22  N   UNL     1      -0.906  -8.261  -1.404  0.00  0.00    +0.393 N 
ATOM     23  C   UNL     1      -0.907  -8.790  -0.034  0.00  0.00    -0.075 C 
ATOM     24  C   UNL     1      -2.167  -9.630   0.192  0.00  0.00    -0.006 C 
ATOM     25  C   UNL     1      -2.185 -10.791  -0.806  0.00  0.00    +0.071 C 
ATOM     26  C   UNL     1      -2.109 -10.230  -2.229  0.00  0.00    -0.006 C 
ATOM     27  C   UNL     1      -0.852  -9.369  -2.365  0.00  0.00    -0.075 C 
ATOM     28  H   UNL     1      -1.748  -7.726  -1.556  0.00  0.00    -0.079 HD
BRANCH  25  29
ATOM     29  C   UNL     1      -3.461 -11.576  -0.641  0.00  0.00    +0.213 C 
ATOM     30  O   UNL     1      -4.276 -11.241   0.192  0.00  0.00    -0.276 OA
ATOM     31  N   UNL     1      -3.696 -12.651  -1.420  0.00  0.00    -0.329 N 
ATOM     32  H   UNL     1      -3.044 -12.919  -2.086  0.00  0.00    +0.145 HD
ATOM     33  H   UNL     1      -4.517 -13.157  -1.314  0.00  0.00    +0.145 HD
ENDBRANCH  25  29
ENDBRANCH  21  22
ENDBRANCH   4  21
TORSDOF 5
