REMARK  Name = ZINC59850105
REMARK  6 active torsions:
REMARK  status: ('A' for Active; 'I' for Inactive)
REMARK    1  A    between atoms: C_3  and  C_6
REMARK    2  A    between atoms: C_6  and  C_8
REMARK    3  A    between atoms: C_6  and  N_30
REMARK    4  A    between atoms: C_8  and  C_9
REMARK    5  A    between atoms: N_11  and  C_12
REMARK    6  A    between atoms: C_19  and  C_22
REMARK                            x       y       z     vdW  Elec       q    Type
REMARK                         _______ _______ _______ _____ _____    ______ ____
ROOT
ATOM      1  C   UNL     1       5.961   1.846   1.434  0.00  0.00    +0.219 C 
ATOM      2  O   UNL     1       6.658   1.798   0.443  0.00  0.00    -0.275 OA
ATOM      3  N   UNL     1       6.418   2.448   2.550  0.00  0.00    -0.285 N 
ATOM      4  H   UNL     1       5.837   2.545   3.321  0.00  0.00    +0.155 HD
ENDROOT
BRANCH   3   5
ATOM      5  C   UNL     1       7.731   2.934   2.597  0.00  0.00    +0.036 A 
ATOM      6  C   UNL     1       8.309   3.481   1.453  0.00  0.00    +0.025 A 
ATOM      7  C   UNL     1       9.599   3.962   1.485  0.00  0.00    +0.029 A 
ATOM      8  C   UNL     1      10.332   3.903   2.663  0.00  0.00    +0.067 A 
ATOM      9  C   UNL     1       9.757   3.353   3.822  0.00  0.00    +0.091 A 
ATOM     10  C   UNL     1       8.444   2.873   3.779  0.00  0.00    +0.053 A 
ATOM     11  N   UNL     1      10.688   3.426   4.804  0.00  0.00    -0.228 NA
ATOM     12  C   UNL     1      11.782   3.975   4.335  0.00  0.00    +0.142 A 
ATOM     13  N   UNL     1      11.613   4.289   3.013  0.00  0.00    -0.338 N 
ATOM     14  H   UNL     1      12.268   4.704   2.431  0.00  0.00    +0.167 HD
BRANCH  12  15
ATOM     15  C   UNL     1      13.013   4.221   5.115  0.00  0.00    +0.055 A 
ATOM     16  C   UNL     1      14.119   4.820   4.511  0.00  0.00    +0.052 A 
ATOM     17  C   UNL     1      15.266   5.047   5.246  0.00  0.00    +0.124 A 
ATOM     18  C   UNL     1      15.320   4.680   6.582  0.00  0.00    +0.041 A 
ATOM     19  C   UNL     1      14.229   4.086   7.187  0.00  0.00    +0.042 A 
ATOM     20  C   UNL     1      13.073   3.858   6.464  0.00  0.00    +0.134 A 
ATOM     21  F   UNL     1      12.005   3.282   7.058  0.00  0.00    -0.205 F 
ATOM     22  F   UNL     1      16.337   5.627   4.662  0.00  0.00    -0.205 F 
ENDBRANCH  12  15
ENDBRANCH   3   5
BRANCH   1  23
ATOM     23  C   UNL     1       4.585   1.231   1.419  0.00  0.00    +0.123 C 
BRANCH  23  24
ATOM     24  C   UNL     1       4.316   0.618   0.043  0.00  0.00    +0.120 C 
BRANCH  24  25
ATOM     25  N   UNL     1       5.240  -0.495  -0.185  0.00  0.00    -0.292 N 
ATOM     26  C   UNL     1       5.239  -1.554   0.649  0.00  0.00    +0.298 C 
ATOM     27  O   UNL     1       4.470  -1.585   1.591  0.00  0.00    -0.253 OA
ATOM     28  N   UNL     1       6.089  -2.578   0.439  0.00  0.00    -0.313 N 
ATOM     29  H   UNL     1       5.854  -0.470  -0.936  0.00  0.00    +0.151 HD
ATOM     30  H   UNL     1       6.702  -2.554  -0.312  0.00  0.00    +0.146 HD
ATOM     31  H   UNL     1       6.088  -3.340   1.040  0.00  0.00    +0.146 HD
ENDBRANCH  24  25
BRANCH  24  34
ATOM     32  C   UNL     1       0.590   0.040  -0.498  0.00  0.00    +0.008 A 
ATOM     33  C   UNL     1       1.805   0.694  -0.566  0.00  0.00    +0.013 A 
ATOM     34  C   UNL     1       2.897   0.113  -0.013  0.00  0.00    +0.010 A 
ATOM     35  S   UNL     1       2.219  -1.407   0.632  0.00  0.00    -0.100 S 
ATOM     36  C   UNL     1       0.526  -1.165   0.120  0.00  0.00    +0.045 A 
ENDBRANCH  24  34
ENDBRANCH  23  24
ENDBRANCH   1  23
TORSDOF 6
