REMARK  Name = ZINC20613196
REMARK  10 active torsions:
REMARK  status: ('A' for Active; 'I' for Inactive)
REMARK    1  A    between atoms: C_1  and  C_2
REMARK    2  A    between atoms: C_2  and  C_3
REMARK    3  A    between atoms: C_3  and  S_4
REMARK    4  A    between atoms: S_4  and  C_7
REMARK    5  A    between atoms: C_12  and  C_13
REMARK    6  A    between atoms: N_15  and  C_16
REMARK    7  A    between atoms: C_21  and  C_22
REMARK    8  A    between atoms: N_24  and  C_25
REMARK    9  A    between atoms: N_24  and  C_26
REMARK   10  A    between atoms: C_26  and  C_27
REMARK                            x       y       z     vdW  Elec       q    Type
REMARK                         _______ _______ _______ _____ _____    ______ ____
ROOT
ATOM      1  C   UNL     1       2.585   4.159   0.050  0.00  0.00    +0.046 A 
ATOM      2  C   UNL     1       2.722   5.539   0.111  0.00  0.00    +0.024 A 
ATOM      3  C   UNL     1       1.602   6.345   0.147  0.00  0.00    +0.002 A 
ATOM      4  C   UNL     1       0.335   5.785   0.118  0.00  0.00    +0.001 A 
ATOM      5  C   UNL     1       0.179   4.418   0.051  0.00  0.00    +0.015 A 
ATOM      6  C   UNL     1       1.304   3.589   0.014  0.00  0.00    +0.058 A 
ENDROOT
BRANCH   1   9
ATOM      7  C   UNL     1       4.892   3.808   0.479  0.00  0.00    +0.250 C 
ATOM      8  O   UNL     1       4.948   4.895   1.020  0.00  0.00    -0.270 OA
ATOM      9  N   UNL     1       3.713   3.344   0.018  0.00  0.00    -0.281 N 
ATOM     10  H   UNL     1       3.643   2.322  -0.382  0.00  0.00    +0.155 HD
BRANCH   7  16
ATOM     11  C   UNL     1       7.339   3.472   0.802  0.00  0.00    +0.100 A 
ATOM     12  C   UNL     1       8.479   2.708   0.657  0.00  0.00    +0.028 A 
ATOM     13  C   UNL     1       8.411   1.471   0.041  0.00  0.00    +0.002 A 
ATOM     14  C   UNL     1       7.203   0.992  -0.433  0.00  0.00    +0.001 A 
ATOM     15  C   UNL     1       6.055   1.743  -0.289  0.00  0.00    +0.015 A 
ATOM     16  C   UNL     1       6.117   2.995   0.326  0.00  0.00    +0.062 A 
BRANCH  11  17
ATOM     17  S   UNL     1       7.427   5.047   1.588  0.00  0.00    -0.002 S 
ATOM     18  O   UNL     1       6.407   5.016   2.577  0.00  0.00    -0.169 OA
ATOM     19  O   UNL     1       8.791   5.192   1.958  0.00  0.00    -0.169 OA
BRANCH  17  20
ATOM     20  C   UNL     1       7.001   6.240   0.289  0.00  0.00    +0.171 C 
BRANCH  20  22
ATOM     21  C   UNL     1       6.686   8.663  -0.232  0.00  0.00    +0.005 C 
ATOM     22  C   UNL     1       7.045   7.657   0.864  0.00  0.00    +0.020 C 
ENDBRANCH  20  22
ENDBRANCH  17  20
ENDBRANCH  11  17
ENDBRANCH   7  16
ENDBRANCH   1   9
BRANCH   6  23
ATOM     23  C   UNL     1       1.144   2.124  -0.057  0.00  0.00    +0.248 C 
ATOM     24  O   UNL     1       1.768   1.408   0.701  0.00  0.00    -0.270 OA
ATOM     25  N   UNL     1       0.307   1.581  -0.963  0.00  0.00    -0.296 N 
ATOM     26  C   UNL     1      -0.511   2.446  -1.816  0.00  0.00    +0.132 C 
BRANCH  25  27
ATOM     27  C   UNL     1       0.218   0.125  -1.097  0.00  0.00    +0.142 C 
BRANCH  27  28
ATOM     28  C   UNL     1      -0.847  -0.402  -0.170  0.00  0.00    -0.030 A 
ATOM     29  C   UNL     1      -0.517  -0.778   1.119  0.00  0.00    +0.005 A 
ATOM     30  C   UNL     1      -1.495  -1.256   1.971  0.00  0.00    +0.000 A 
ATOM     31  C   UNL     1      -2.800  -1.368   1.532  0.00  0.00    +0.000 A 
ATOM     32  C   UNL     1      -3.129  -0.997   0.241  0.00  0.00    +0.000 A 
ATOM     33  C   UNL     1      -2.152  -0.514  -0.609  0.00  0.00    +0.005 A 
ENDBRANCH  27  28
ENDBRANCH  25  27
ENDBRANCH   6  23
TORSDOF 8
