REMARK  Name = ZINC38672942
REMARK  11 active torsions:
REMARK  status: ('A' for Active; 'I' for Inactive)
REMARK    1  A    between atoms: C_1  and  C_2
REMARK    2  A    between atoms: C_2  and  C_3
REMARK    3  A    between atoms: C_2  and  C_4
REMARK    4  A    between atoms: C_2  and  O_28
REMARK    5  A    between atoms: N_6  and  C_7
REMARK    6  A    between atoms: C_7  and  C_8
REMARK    7  A    between atoms: C_8  and  C_10
REMARK    8  A    between atoms: C_8  and  N_21
REMARK    9  A    between atoms: N_19  and  C_20
REMARK   10  A    between atoms: N_24  and  C_27
REMARK   11  A    between atoms: O_28  and  C_29
REMARK                            x       y       z     vdW  Elec       q    Type
REMARK                         _______ _______ _______ _____ _____    ______ ____
ROOT
ATOM      1  C   UNL     1      -3.992   1.590   3.105  0.00  0.00    +0.104 C 
ENDROOT
BRANCH   1   2
ATOM      2  C   UNL     1      -5.487   1.529   3.277  0.00  0.00    -0.028 A 
ATOM      3  C   UNL     1      -6.298   2.411   2.586  0.00  0.00    +0.007 A 
ATOM      4  C   UNL     1      -7.668   2.356   2.745  0.00  0.00    +0.024 A 
ATOM      5  C   UNL     1      -8.232   1.413   3.598  0.00  0.00    +0.033 A 
ATOM      6  C   UNL     1      -7.420   0.527   4.287  0.00  0.00    -0.026 A 
ATOM      7  C   UNL     1      -6.046   0.588   4.120  0.00  0.00    +0.010 A 
ATOM      8  C   UNL     1      -7.996  -0.513   5.211  0.00  0.00    +0.038 C 
ATOM      9  C   UNL     1      -9.407  -0.120   5.647  0.00  0.00    +0.024 C 
ATOM     10  C   UNL     1     -10.237   0.212   4.399  0.00  0.00    +0.105 C 
ATOM     11  N   UNL     1      -9.623   1.377   3.749  0.00  0.00    -0.333 N 
ATOM     12  C   UNL     1     -10.453   2.483   3.266  0.00  0.00    +0.129 C 
ENDBRANCH   1   2
BRANCH   1  13
ATOM     13  N   UNL     1      -3.489   2.864   3.638  0.00  0.00    -0.297 NA
ATOM     14  C   UNL     1      -4.229   3.258   4.845  0.00  0.00    +0.066 C 
ATOM     15  C   UNL     1      -3.638   4.554   5.402  0.00  0.00    -0.064 C 
ATOM     16  N   UNL     1      -3.728   5.610   4.385  0.00  0.00    +0.379 N 
ATOM     17  C   UNL     1      -2.964   5.213   3.195  0.00  0.00    -0.064 C 
ATOM     18  C   UNL     1      -3.550   3.922   2.620  0.00  0.00    +0.066 C 
ATOM     19  C   UNL     1      -3.176   6.860   4.926  0.00  0.00    -0.096 C 
ATOM     20  H   UNL     1      -4.694   5.752   4.132  0.00  0.00    -0.082 HD
ENDBRANCH   1  13
BRANCH   1  21
ATOM     21  C   UNL     1      -3.645   1.488   1.618  0.00  0.00    +0.128 C 
BRANCH  21  24
ATOM     22  C   UNL     1      -1.648   1.485   0.222  0.00  0.00    +0.256 C 
ATOM     23  O   UNL     1      -2.350   1.222  -0.731  0.00  0.00    -0.271 OA
ATOM     24  N   UNL     1      -2.198   1.638   1.443  0.00  0.00    -0.310 N 
ATOM     25  H   UNL     1      -1.636   1.849   2.205  0.00  0.00    +0.149 HD
BRANCH  22  27
ATOM     26  C   UNL     1       0.261   3.050   0.462  0.00  0.00    +0.065 C 
ATOM     27  C   UNL     1      -0.160   1.640   0.042  0.00  0.00    +0.180 C 
ATOM     28  C   UNL     1       0.569   0.611   0.908  0.00  0.00    +0.065 C 
BRANCH  27  29
ATOM     29  O   UNL     1       0.178   1.432  -1.331  0.00  0.00    -0.477 OA
BRANCH  29  30
ATOM     30  C   UNL     1      -0.085   0.204  -1.852  0.00  0.00    +0.122 A 
ATOM     31  C   UNL     1      -0.767  -0.739  -1.097  0.00  0.00    +0.047 A 
ATOM     32  C   UNL     1      -1.034  -1.986  -1.628  0.00  0.00    +0.023 A 
ATOM     33  C   UNL     1      -0.621  -2.295  -2.912  0.00  0.00    +0.041 A 
ATOM     34  C   UNL     1       0.059  -1.355  -3.667  0.00  0.00    +0.023 A 
ATOM     35  C   UNL     1       0.322  -0.105  -3.141  0.00  0.00    +0.047 A 
ATOM     36 CL   UNL     1      -0.957  -3.862  -3.577  0.00  0.00    -0.084 Cl
ENDBRANCH  29  30
ENDBRANCH  27  29
ENDBRANCH  22  27
ENDBRANCH  21  24
ENDBRANCH   1  21
TORSDOF 7
