REMARK  Name = ZINC09282042
REMARK  4 active torsions:
REMARK  status: ('A' for Active; 'I' for Inactive)
REMARK    1  A    between atoms: C_1  and  C_2
REMARK    2  A    between atoms: N_20  and  C_23
REMARK    3  A    between atoms: C_26  and  N_30
REMARK    4  A    between atoms: C_28  and  C_29
REMARK                            x       y       z     vdW  Elec       q    Type
REMARK                         _______ _______ _______ _____ _____    ______ ____
ROOT
ATOM      1  C   UNL     1       0.229  -2.941  -0.027  0.00  0.00    +0.044 C 
ATOM      2  C   UNL     1       1.669  -2.638   0.300  0.00  0.00    -0.050 A 
ATOM      3  C   UNL     1       2.605  -3.656   0.317  0.00  0.00    +0.005 A 
ATOM      4  C   UNL     1       3.924  -3.384   0.616  0.00  0.00    +0.024 A 
ATOM      5  C   UNL     1       4.323  -2.081   0.903  0.00  0.00    +0.036 A 
ATOM      6  C   UNL     1       3.372  -1.065   0.884  0.00  0.00    -0.027 A 
ATOM      7  C   UNL     1       2.057  -1.341   0.586  0.00  0.00    +0.008 A 
ATOM      8  C   UNL     1       4.111   0.197   1.230  0.00  0.00    +0.053 C 
ATOM      9  C   UNL     1       3.539   0.854   2.491  0.00  0.00    +0.089 C 
ATOM     10  C   UNL     1       3.661   2.383   2.245  0.00  0.00    +0.074 C 
ATOM     11  C   UNL     1       4.291   2.500   0.829  0.00  0.00    -0.054 C 
ATOM     12  C   UNL     1       2.588   1.311  -0.283  0.00  0.00    -0.076 C 
ATOM     13  C   UNL     1       2.418   2.776  -0.730  0.00  0.00    -0.020 C 
ATOM     14  C   UNL     1       3.522   3.555   0.012  0.00  0.00    -0.016 C 
ATOM     15  C   UNL     1       2.222   2.844   2.191  0.00  0.00    +0.228 C 
ATOM     16  O   UNL     1       1.858   3.986   2.009  0.00  0.00    -0.275 OA
ATOM     17  N   UNL     1       1.412   1.795   2.377  0.00  0.00    -0.210 N 
ATOM     18  C   UNL     1       2.045   0.629   2.552  0.00  0.00    +0.229 C 
ATOM     19  O   UNL     1       1.505  -0.441   2.732  0.00  0.00    -0.275 OA
ATOM     20  C   UNL     1       5.539  -0.231   1.435  0.00  0.00    +0.212 C 
ATOM     21  O   UNL     1       6.474   0.483   1.730  0.00  0.00    -0.277 OA
ATOM     22  N   UNL     1       5.578  -1.562   1.229  0.00  0.00    -0.286 N 
ATOM     23  H   UNL     1       6.384  -2.097   1.298  0.00  0.00    +0.155 HD
ATOM     24  N   UNL     1       3.982   1.235   0.203  0.00  0.00    +0.395 N 
ATOM     25  H   UNL     1       4.621   1.046  -0.578  0.00  0.00    -0.079 HD
ENDROOT
BRANCH  17  26
ATOM     26  C   UNL     1       0.015   1.907   2.383  0.00  0.00    +0.047 A 
ATOM     27  C   UNL     1      -0.706   1.682   1.218  0.00  0.00    +0.026 A 
ATOM     28  C   UNL     1      -2.082   1.793   1.226  0.00  0.00    +0.034 A 
ATOM     29  C   UNL     1      -2.743   2.128   2.394  0.00  0.00    +0.127 A 
ATOM     30  C   UNL     1      -2.029   2.348   3.557  0.00  0.00    +0.038 A 
ATOM     31  C   UNL     1      -0.651   2.244   3.553  0.00  0.00    -0.026 A 
ATOM     32  C   UNL     1       0.127   2.489   4.820  0.00  0.00    +0.046 C 
BRANCH  29  33
ATOM     33  N   UNL     1      -4.218   2.246   2.400  0.00  0.00    +0.056 N 
ATOM     34  O   UNL     1      -4.849   2.048   1.377  0.00  0.00    -0.126 OA
ATOM     35  O   UNL     1      -4.802   2.541   3.428  0.00  0.00    -0.126 OA
ENDBRANCH  29  33
ENDBRANCH  17  26
TORSDOF 2
