REMARK  Name = ZINC57410064
REMARK  6 active torsions:
REMARK  status: ('A' for Active; 'I' for Inactive)
REMARK    1  A    between atoms: C_4  and  N_7
REMARK    2  A    between atoms: C_9  and  C_23
REMARK    3  A    between atoms: C_10  and  C_12
REMARK    4  A    between atoms: N_24  and  N_25
REMARK    5  A    between atoms: C_26  and  C_28
REMARK    6  A    between atoms: C_31  and  N_34
REMARK                            x       y       z     vdW  Elec       q    Type
REMARK                         _______ _______ _______ _____ _____    ______ ____
ROOT
ATOM      1  N   UNL     1       3.641  -0.653   0.147  0.00  0.00    -0.239 N 
ATOM      2  C   UNL     1       3.779  -1.994   0.091  0.00  0.00    +0.124 A 
ATOM      3  C   UNL     1       5.094  -2.274  -0.156  0.00  0.00    +0.041 A 
ATOM      4  C   UNL     1       5.787  -0.985  -0.253  0.00  0.00    +0.109 A 
ATOM      5  N   UNL     1       4.882  -0.047  -0.071  0.00  0.00    -0.165 NA
ENDROOT
BRANCH   4   6
ATOM      6  C   UNL     1       7.229  -0.779  -0.511  0.00  0.00    +0.088 A 
ATOM      7  C   UNL     1       7.822  -1.234  -1.666  0.00  0.00    +0.028 A 
ATOM      8  C   UNL     1       9.255  -0.982  -1.833  0.00  0.00    +0.018 A 
ATOM      9  C   UNL     1       9.878  -1.168  -3.073  0.00  0.00    +0.011 A 
ATOM     10  C   UNL     1      11.216  -0.923  -3.202  0.00  0.00    +0.001 A 
ATOM     11  C   UNL     1      11.962  -0.492  -2.115  0.00  0.00    +0.004 A 
ATOM     12  C   UNL     1      11.368  -0.303  -0.884  0.00  0.00    +0.047 A 
ATOM     13  C   UNL     1      10.011  -0.547  -0.729  0.00  0.00    +0.139 A 
ATOM     14  O   UNL     1       9.409  -0.374   0.472  0.00  0.00    -0.422 OA
ATOM     15  C   UNL     1       8.088  -0.071   0.455  0.00  0.00    +0.347 A 
ATOM     16  O   UNL     1       7.623   0.756   1.216  0.00  0.00    -0.244 OA
ENDBRANCH   4   6
BRANCH   1  20
ATOM     17  C   UNL     1       0.065   1.370   0.845  0.00  0.00    +0.000 A 
ATOM     18  C   UNL     1       1.232   2.082   0.643  0.00  0.00    +0.002 A 
ATOM     19  C   UNL     1       2.419   1.415   0.412  0.00  0.00    +0.028 A 
ATOM     20  C   UNL     1       2.439   0.027   0.382  0.00  0.00    +0.065 A 
ATOM     21  C   UNL     1       1.264  -0.686   0.585  0.00  0.00    +0.028 A 
ATOM     22  C   UNL     1       0.081  -0.013   0.815  0.00  0.00    +0.002 A 
ENDBRANCH   1  20
BRANCH   3  23
ATOM     23  C   UNL     1       5.698  -3.611  -0.297  0.00  0.00    +0.142 C 
ATOM     24  N   UNL     1       6.984  -3.731  -0.430  0.00  0.00    -0.187 NA
BRANCH  24  25
ATOM     25  N   UNL     1       7.549  -4.992  -0.663  0.00  0.00    -0.203 N 
ATOM     26  C   UNL     1       8.884  -5.117  -0.802  0.00  0.00    +0.263 C 
ATOM     27  O   UNL     1       9.598  -4.135  -0.725  0.00  0.00    -0.268 OA
ATOM     28  H   UNL     1       6.980  -5.775  -0.724  0.00  0.00    +0.178 HD
BRANCH  26  29
ATOM     29  C   UNL     1       9.479  -6.444  -1.046  0.00  0.00    +0.038 A 
ATOM     30  C   UNL     1       8.659  -7.573  -1.140  0.00  0.00    +0.015 A 
ATOM     31  C   UNL     1       9.217  -8.810  -1.368  0.00  0.00    +0.023 A 
ATOM     32  C   UNL     1      10.596  -8.938  -1.505  0.00  0.00    +0.025 A 
ATOM     33  C   UNL     1      11.415  -7.817  -1.412  0.00  0.00    +0.023 A 
ATOM     34  C   UNL     1      10.863  -6.576  -1.190  0.00  0.00    +0.015 A 
BRANCH  32  35
ATOM     35  N   UNL     1      11.157 -10.190  -1.736  0.00  0.00    -0.358 N 
ATOM     36  H   UNL     1      10.587 -10.972  -1.800  0.00  0.00    +0.142 HD
ATOM     37  H   UNL     1      12.118 -10.281  -1.831  0.00  0.00    +0.142 HD
ENDBRANCH  32  35
ENDBRANCH  26  29
ENDBRANCH  24  25
ENDBRANCH   3  23
TORSDOF 6
