REMARK  Name = ZINC01315934
REMARK  6 active torsions:
REMARK  status: ('A' for Active; 'I' for Inactive)
REMARK    1  A    between atoms: C_1  and  C_2
REMARK    2  A    between atoms: C_4  and  C_38
REMARK    3  A    between atoms: N_21  and  C_24
REMARK    4  A    between atoms: C_26  and  N_32
REMARK    5  A    between atoms: C_29  and  O_30
REMARK    6  A    between atoms: O_30  and  C_31
REMARK                            x       y       z     vdW  Elec       q    Type
REMARK                         _______ _______ _______ _____ _____    ______ ____
ROOT
ATOM      1  C   UNL     1      -0.018   1.503   0.010  0.00  0.00    +0.044 C 
ATOM      2  C   UNL     1       0.002  -0.004   0.002  0.00  0.00    -0.050 A 
ATOM      3  C   UNL     1       0.006  -0.691  -1.198  0.00  0.00    +0.008 A 
ATOM      4  C   UNL     1       0.026  -2.070  -1.213  0.00  0.00    -0.029 A 
ATOM      5  C   UNL     1       0.041  -2.783  -0.016  0.00  0.00    +0.042 A 
ATOM      6  C   UNL     1       0.036  -2.081   1.186  0.00  0.00    +0.004 A 
ATOM      7  C   UNL     1       0.023  -0.704   1.195  0.00  0.00    +0.011 A 
ATOM      8  C   UNL     1       0.055  -3.122   2.271  0.00  0.00    +0.138 C 
ATOM      9  C   UNL     1      -1.171  -2.998   3.182  0.00  0.00    +0.123 C 
ATOM     10  C   UNL     1      -0.644  -3.347   4.601  0.00  0.00    +0.107 C 
ATOM     11  C   UNL     1       0.850  -3.669   4.409  0.00  0.00    +0.071 C 
ATOM     12  N   UNL     1       1.235  -2.971   3.139  0.00  0.00    -0.281 NA
ATOM     13  C   UNL     1       1.405  -1.547   3.513  0.00  0.00    +0.086 C 
ATOM     14  C   UNL     1       2.042  -1.569   4.917  0.00  0.00    +0.017 C 
ATOM     15  C   UNL     1       1.666  -2.980   5.517  0.00  0.00    +0.021 C 
ATOM     16  C   UNL     1      -0.799  -2.048   5.359  0.00  0.00    +0.232 C 
ATOM     17  O   UNL     1      -0.498  -1.875   6.521  0.00  0.00    -0.274 OA
ATOM     18  N   UNL     1      -1.320  -1.119   4.549  0.00  0.00    -0.206 N 
ATOM     19  C   UNL     1      -1.580  -1.546   3.292  0.00  0.00    +0.233 C 
ATOM     20  O   UNL     1      -2.057  -0.883   2.397  0.00  0.00    -0.274 OA
ATOM     21  C   UNL     1       0.070  -4.440   1.545  0.00  0.00    +0.243 C 
ATOM     22  O   UNL     1       0.087  -5.543   2.049  0.00  0.00    -0.273 OA
ATOM     23  N   UNL     1       0.061  -4.158   0.228  0.00  0.00    -0.283 N 
ATOM     24  C   UNL     1       0.030  -2.808  -2.527  0.00  0.00    +0.045 C 
ATOM     25  H   UNL     1       0.067  -4.831  -0.470  0.00  0.00    +0.155 HD
ENDROOT
BRANCH  18  26
ATOM     26  C   UNL     1      -1.583   0.193   4.970  0.00  0.00    +0.088 A 
ATOM     27  C   UNL     1      -0.611   1.174   4.839  0.00  0.00    +0.060 A 
ATOM     28  C   UNL     1      -0.873   2.466   5.254  0.00  0.00    +0.128 A 
ATOM     29  C   UNL     1      -2.103   2.784   5.800  0.00  0.00    +0.036 A 
ATOM     30  C   UNL     1      -3.076   1.813   5.934  0.00  0.00    +0.050 A 
ATOM     31  C   UNL     1      -2.824   0.516   5.515  0.00  0.00    +0.142 A 
BRANCH  28  32
ATOM     32  N   UNL     1       0.166   3.511   5.114  0.00  0.00    +0.056 N 
ATOM     33  O   UNL     1       1.242   3.233   4.637  0.00  0.00    -0.126 OA
ATOM     34  O   UNL     1      -0.061   4.641   5.476  0.00  0.00    -0.126 OA
ENDBRANCH  28  32
BRANCH  31  35
ATOM     35  O   UNL     1      -3.783  -0.440   5.640  0.00  0.00    -0.493 OA
ATOM     36  C   UNL     1      -5.030  -0.036   6.208  0.00  0.00    +0.277 C 
ENDBRANCH  31  35
ENDBRANCH  18  26
TORSDOF 3
