REMARK  Name = ZINC07054670
REMARK  3 active torsions:
REMARK  status: ('A' for Active; 'I' for Inactive)
REMARK    1  A    between atoms: C_6  and  N_7
REMARK    2  A    between atoms: N_7  and  S_8
REMARK    3  A    between atoms: S_8  and  C_11
REMARK                            x       y       z     vdW  Elec       q    Type
REMARK                         _______ _______ _______ _____ _____    ______ ____
ROOT
ATOM      1  N   UNL     1      -1.083  -0.746   0.005  0.00  0.00    -0.216 N 
ATOM      2  H   UNL     1      -1.740  -0.476   0.665  0.00  0.00    +0.174 HD
ENDROOT
BRANCH   1   8
ATOM      3  C   UNL     1       1.321  -0.911  -0.130  0.00  0.00    +0.028 A 
ATOM      4  C   UNL     1       2.568  -0.311  -0.155  0.00  0.00    +0.051 A 
ATOM      5  C   UNL     1       2.670   1.066  -0.070  0.00  0.00    +0.162 A 
ATOM      6  C   UNL     1       1.526   1.845   0.040  0.00  0.00    +0.164 A 
ATOM      7  C   UNL     1       0.278   1.248   0.066  0.00  0.00    +0.074 A 
ATOM      8  C   UNL     1       0.176  -0.135  -0.020  0.00  0.00    +0.052 A 
ATOM      9  O   UNL     1       1.641   3.203   0.123  0.00  0.00    -0.488 OA
ATOM     10  C   UNL     1       2.228   3.708   1.323  0.00  0.00    +0.232 C 
ATOM     11  C   UNL     1       3.746   3.699   1.226  0.00  0.00    +0.082 C 
ATOM     12  C   UNL     1       4.311   2.291   1.121  0.00  0.00    +0.232 C 
ATOM     13  O   UNL     1       3.896   1.668  -0.096  0.00  0.00    -0.488 OA
ENDBRANCH   1   8
BRANCH   1  14
ATOM     14  S   UNL     1      -1.450  -1.929  -1.094  0.00  0.00    +0.075 S 
ATOM     15  O   UNL     1      -0.409  -2.893  -1.017  0.00  0.00    -0.150 OA
ATOM     16  O   UNL     1      -2.816  -2.265  -0.888  0.00  0.00    -0.150 OA
BRANCH  14  17
ATOM     17  C   UNL     1      -1.347  -1.203  -2.696  0.00  0.00    +0.147 A 
ATOM     18  C   UNL     1      -0.392  -1.644  -3.594  0.00  0.00    +0.035 A 
ATOM     19  C   UNL     1      -0.309  -1.077  -4.851  0.00  0.00    +0.043 A 
ATOM     20  C   UNL     1      -1.182  -0.065  -5.215  0.00  0.00    +0.161 A 
ATOM     21  C   UNL     1      -2.139   0.379  -4.316  0.00  0.00    +0.195 A 
ATOM     22  C   UNL     1      -2.224  -0.195  -3.057  0.00  0.00    +0.188 A 
ATOM     23  F   UNL     1      -3.160   0.232  -2.181  0.00  0.00    -0.200 F 
ATOM     24  F   UNL     1      -2.992   1.366  -4.668  0.00  0.00    -0.199 F 
ATOM     25  F   UNL     1      -1.101   0.489  -6.444  0.00  0.00    -0.202 F 
ENDBRANCH  14  17
ENDBRANCH   1  14
TORSDOF 3
