REMARK  Name = ZINC20517212
REMARK  6 active torsions:
REMARK  status: ('A' for Active; 'I' for Inactive)
REMARK    1  A    between atoms: C_1  and  C_2
REMARK    2  A    between atoms: C_3  and  C_18
REMARK    3  A    between atoms: C_4  and  O_8
REMARK    4  A    between atoms: N_5  and  C_7
REMARK    5  A    between atoms: O_8  and  C_9
REMARK    6  A    between atoms: C_14  and  C_17
REMARK                            x       y       z     vdW  Elec       q    Type
REMARK                         _______ _______ _______ _____ _____    ______ ____
ROOT
ATOM      1  C   UNL     1      -3.419  -4.396   2.414  0.00  0.00    +0.068 C 
ATOM      2  C   UNL     1      -2.094  -3.682   2.498  0.00  0.00    +0.074 A 
ATOM      3  C   UNL     1      -1.377  -3.128   1.407  0.00  0.00    +0.098 A 
ATOM      4  C   UNL     1      -0.211  -2.570   1.931  0.00  0.00    +0.224 A 
ATOM      5  N   UNL     1      -0.237  -2.774   3.261  0.00  0.00    -0.235 N 
ATOM      6  N   UNL     1      -1.411  -3.463   3.584  0.00  0.00    -0.173 NA
ATOM      7  C   UNL     1       0.792  -2.345   4.212  0.00  0.00    +0.176 C 
ENDROOT
BRANCH   3   8
ATOM      8  C   UNL     1      -1.769  -3.140   0.045  0.00  0.00    +0.265 C 
ATOM      9  O   UNL     1      -1.058  -2.630  -0.796  0.00  0.00    -0.295 OA
ENDBRANCH   3   8
BRANCH   4  10
ATOM     10  O   UNL     1       0.761  -1.938   1.234  0.00  0.00    -0.473 OA
BRANCH  10  11
ATOM     11  C   UNL     1       0.714  -0.510   1.205  0.00  0.00    +0.175 C 
ATOM     12  C   UNL     1      -0.020  -0.049  -0.055  0.00  0.00    +0.044 C 
ATOM     13  C   UNL     1      -0.070   1.480  -0.086  0.00  0.00    +0.004 C 
ATOM     14  C   UNL     1       1.355   2.036  -0.094  0.00  0.00    +0.003 C 
ATOM     15  C   UNL     1       2.090   1.575   1.166  0.00  0.00    -0.011 C 
ATOM     16  C   UNL     1       2.139   0.046   1.197  0.00  0.00    +0.048 C 
ATOM     17  C   UNL     1       3.515   2.132   1.158  0.00  0.00    +0.007 C 
ENDBRANCH  10  11
ENDBRANCH   4  10
TORSDOF 3
