REMARK  Name = ZINC25260051
REMARK  10 active torsions:
REMARK  status: ('A' for Active; 'I' for Inactive)
REMARK    1  A    between atoms: C_1  and  C_2
REMARK    2  A    between atoms: C_2  and  C_3
REMARK    3  A    between atoms: C_3  and  C_5
REMARK    4  A    between atoms: C_3  and  C_6
REMARK    5  A    between atoms: C_6  and  C_8
REMARK    6  A    between atoms: C_6  and  N_28
REMARK    7  A    between atoms: N_10  and  C_11
REMARK    8  A    between atoms: C_15  and  S_17
REMARK    9  A    between atoms: S_17  and  N_20
REMARK   10  A    between atoms: N_20  and  C_21
REMARK                            x       y       z     vdW  Elec       q    Type
REMARK                         _______ _______ _______ _____ _____    ______ ____
ROOT
ATOM      1  C   UNL     1      -2.372   7.200   1.640  0.00  0.00    +0.035 A 
ATOM      2  C   UNL     1      -1.343   7.804   2.351  0.00  0.00    +0.023 A 
ATOM      3  C   UNL     1      -1.368   9.166   2.577  0.00  0.00    +0.004 A 
ATOM      4  C   UNL     1      -2.422   9.927   2.104  0.00  0.00    +0.029 A 
ATOM      5  C   UNL     1      -3.450   9.328   1.400  0.00  0.00    +0.110 A 
ATOM      6  C   UNL     1      -3.428   7.967   1.167  0.00  0.00    +0.052 A 
ENDROOT
BRANCH   1   9
ATOM      7  C   UNL     1      -1.170   5.187   1.234  0.00  0.00    +0.238 C 
ATOM      8  O   UNL     1      -0.139   5.825   1.188  0.00  0.00    -0.273 OA
ATOM      9  N   UNL     1      -2.347   5.821   1.405  0.00  0.00    -0.284 N 
ATOM     10  H   UNL     1      -3.288   5.253   1.361  0.00  0.00    +0.155 HD
BRANCH   7  11
ATOM     11  C   UNL     1      -1.134   3.687   1.099  0.00  0.00    +0.163 C 
BRANCH  11  12
ATOM     12  N   UNL     1       0.216   3.202   1.400  0.00  0.00    -0.288 N 
ATOM     13  C   UNL     1       1.262   3.620   0.662  0.00  0.00    +0.298 C 
ATOM     14  O   UNL     1       1.087   4.400  -0.254  0.00  0.00    -0.253 OA
ATOM     15  N   UNL     1       2.504   3.174   0.939  0.00  0.00    -0.313 N 
ATOM     16  H   UNL     1       0.374   2.496   2.229  0.00  0.00    +0.151 HD
ATOM     17  H   UNL     1       3.358   3.515   0.336  0.00  0.00    +0.146 HD
ATOM     18  H   UNL     1       2.663   2.468   1.767  0.00  0.00    +0.146 HD
ENDBRANCH  11  12
BRANCH  11  19
ATOM     19  C   UNL     1      -1.510   3.294  -0.331  0.00  0.00    +0.015 C 
ATOM     20  C   UNL     1      -2.919   3.800  -0.645  0.00  0.00    +0.010 C 
BRANCH  19  22
ATOM     21  C   UNL     1      -1.727   1.383  -1.925  0.00  0.00    +0.004 C 
ATOM     22  C   UNL     1      -1.473   1.770  -0.467  0.00  0.00    +0.002 C 
ENDBRANCH  19  22
ENDBRANCH  11  19
ENDBRANCH   7  11
ENDBRANCH   1   9
BRANCH   5  23
ATOM     23  S   UNL     1      -4.790  10.303   0.800  0.00  0.00    +0.072 S 
ATOM     24  O   UNL     1      -4.274  11.607   0.574  0.00  0.00    -0.150 OA
ATOM     25  O   UNL     1      -5.417   9.543  -0.224  0.00  0.00    -0.150 OA
BRANCH  23  26
ATOM     26  N   UNL     1      -5.889  10.434   2.032  0.00  0.00    -0.216 N 
ATOM     27  H   UNL     1      -6.883   9.974   1.933  0.00  0.00    +0.174 HD
BRANCH  26  28
ATOM     28  C   UNL     1      -5.554  11.131   3.196  0.00  0.00    +0.048 A 
ATOM     29  C   UNL     1      -5.274  10.436   4.366  0.00  0.00    +0.025 A 
ATOM     30  C   UNL     1      -4.938  11.127   5.514  0.00  0.00    +0.017 A 
ATOM     31  C   UNL     1      -4.890  12.510   5.502  0.00  0.00    +0.018 A 
ATOM     32  C   UNL     1      -5.174  13.204   4.339  0.00  0.00    +0.017 A 
ATOM     33  C   UNL     1      -5.505  12.519   3.187  0.00  0.00    +0.025 A 
ATOM     34 BR   UNL     1      -4.436  13.452   7.077  0.00  0.00    -0.050 Br
ENDBRANCH  26  28
ENDBRANCH  23  26
ENDBRANCH   5  23
TORSDOF 8
