REMARK  Name = ZINC18142066
REMARK  8 active torsions:
REMARK  status: ('A' for Active; 'I' for Inactive)
REMARK    1  A    between atoms: C_4  and  C_7
REMARK    2  A    between atoms: C_9  and  C_10
REMARK    3  A    between atoms: C_10  and  C_11
REMARK    4  A    between atoms: N_13  and  N_14
REMARK    5  A    between atoms: C_15  and  C_17
REMARK    6  A    between atoms: C_17  and  C_18
REMARK    7  A    between atoms: C_17  and  C_25
REMARK    8  A    between atoms: C_17  and  O_32
REMARK                            x       y       z     vdW  Elec       q    Type
REMARK                         _______ _______ _______ _____ _____    ______ ____
ROOT
ATOM      1  N   UNL     1       5.561  -6.814   0.304  0.00  0.00    -0.231 N 
ATOM      2  C   UNL     1       6.880  -7.050   0.162  0.00  0.00    +0.270 C 
ATOM      3  O   UNL     1       7.673  -6.136   0.256  0.00  0.00    -0.270 OA
ATOM      4  H   UNL     1       4.927  -7.544   0.229  0.00  0.00    +0.173 HD
ENDROOT
BRANCH   1   7
ATOM      5  C   UNL     1       3.785  -5.279   0.704  0.00  0.00    +0.300 C 
ATOM      6  O   UNL     1       2.992  -6.193   0.609  0.00  0.00    -0.265 OA
ATOM      7  N   UNL     1       5.105  -5.514   0.561  0.00  0.00    -0.228 N 
ATOM      8  H   UNL     1       5.739  -4.784   0.636  0.00  0.00    +0.173 HD
BRANCH   5   9
ATOM      9  C   UNL     1       3.300  -3.896   0.977  0.00  0.00    +0.245 C 
ATOM     10  O   UNL     1       4.096  -2.979   1.072  0.00  0.00    -0.282 OA
BRANCH   9  13
ATOM     11  C   UNL     1       1.479  -2.371   1.378  0.00  0.00    +0.190 C 
ATOM     12  O   UNL     1       2.361  -1.355   1.483  0.00  0.00    -0.287 OA
ATOM     13  C   UNL     1       1.928  -3.651   1.125  0.00  0.00    +0.107 C 
BRANCH  11  17
ATOM     14  C   UNL     1      -2.675  -1.630   1.826  0.00  0.00    +0.000 A 
ATOM     15  C   UNL     1      -1.774  -0.585   1.935  0.00  0.00    +0.001 A 
ATOM     16  C   UNL     1      -0.422  -0.818   1.791  0.00  0.00    +0.012 A 
ATOM     17  C   UNL     1       0.037  -2.114   1.534  0.00  0.00    +0.022 A 
ATOM     18  C   UNL     1      -0.881  -3.164   1.426  0.00  0.00    +0.012 A 
ATOM     19  C   UNL     1      -2.229  -2.915   1.572  0.00  0.00    +0.001 A 
ENDBRANCH  11  17
ENDBRANCH   9  13
ENDBRANCH   5   9
ENDBRANCH   1   7
BRANCH   2  20
ATOM     20  C   UNL     1       7.370  -8.447  -0.115  0.00  0.00    +0.194 C 
BRANCH  20  21
ATOM     21  C   UNL     1       7.309  -8.717  -1.596  0.00  0.00    -0.003 A 
ATOM     22  C   UNL     1       6.886  -9.950  -2.057  0.00  0.00    +0.009 A 
ATOM     23  C   UNL     1       6.830 -10.198  -3.416  0.00  0.00    +0.020 A 
ATOM     24  C   UNL     1       7.197  -9.213  -4.314  0.00  0.00    +0.041 A 
ATOM     25  C   UNL     1       7.620  -7.979  -3.853  0.00  0.00    +0.020 A 
ATOM     26  C   UNL     1       7.671  -7.730  -2.494  0.00  0.00    +0.009 A 
ATOM     27 CL   UNL     1       7.127  -9.524  -6.021  0.00  0.00    -0.084 Cl
ENDBRANCH  20  21
BRANCH  20  28
ATOM     28  C   UNL     1       8.793  -8.584   0.362  0.00  0.00    -0.003 A 
ATOM     29  C   UNL     1       9.093  -9.441   1.405  0.00  0.00    +0.009 A 
ATOM     30  C   UNL     1      10.398  -9.566   1.843  0.00  0.00    +0.020 A 
ATOM     31  C   UNL     1      11.404  -8.835   1.238  0.00  0.00    +0.041 A 
ATOM     32  C   UNL     1      11.104  -7.979   0.194  0.00  0.00    +0.020 A 
ATOM     33  C   UNL     1       9.799  -7.858  -0.247  0.00  0.00    +0.009 A 
ATOM     34 CL   UNL     1      13.043  -8.992   1.788  0.00  0.00    -0.084 Cl
ENDBRANCH  20  28
BRANCH  20  35
ATOM     35  O   UNL     1       6.544  -9.387   0.575  0.00  0.00    -0.371 OA
ATOM     36  H   UNL     1       6.535  -9.273   1.535  0.00  0.00    +0.212 HD
ENDBRANCH  20  35
ENDBRANCH   2  20
TORSDOF 8
