REMARK  Name = ZINC39617623
REMARK  4 active torsions:
REMARK  status: ('A' for Active; 'I' for Inactive)
REMARK    1  A    between atoms: C_4  and  C_7
REMARK    2  A    between atoms: C_13  and  C_15
REMARK    3  A    between atoms: C_18  and  S_26
REMARK    4  A    between atoms: S_26  and  N_29
REMARK                            x       y       z     vdW  Elec       q    Type
REMARK                         _______ _______ _______ _____ _____    ______ ____
ROOT
ATOM      1  C   UNL     1       6.896  -3.706   1.634  0.00  0.00    +0.032 C 
ATOM      2  C   UNL     1       7.495  -4.899   1.979  0.00  0.00    +0.007 A 
ATOM      3  C   UNL     1       7.760  -5.929   0.974  0.00  0.00    +0.038 A 
ATOM      4  C   UNL     1       8.351  -7.085   1.362  0.00  0.00    +0.106 A 
ATOM      5  C   UNL     1       8.710  -7.311   2.697  0.00  0.00    +0.030 A 
ATOM      6  C   UNL     1       8.492  -6.401   3.678  0.00  0.00    +0.026 A 
ATOM      7  C   UNL     1       7.883  -5.162   3.381  0.00  0.00    +0.041 A 
ATOM      8  N   UNL     1       7.675  -4.277   4.345  0.00  0.00    -0.285 N 
ATOM      9  C   UNL     1       7.107  -3.094   4.138  0.00  0.00    +0.222 C 
ATOM     10  O   UNL     1       6.945  -2.327   5.067  0.00  0.00    -0.275 OA
ATOM     11  C   UNL     1       6.670  -2.700   2.746  0.00  0.00    +0.137 C 
ATOM     12  H   UNL     1       7.950  -4.504   5.247  0.00  0.00    +0.155 HD
ENDROOT
BRANCH   1  19
ATOM     13  C   UNL     1       3.906  -5.767  -1.538  0.00  0.00    -0.041 C 
ATOM     14  C   UNL     1       3.807  -5.731  -0.231  0.00  0.00    -0.004 C 
ATOM     15  C   UNL     1       4.400  -4.640   0.615  0.00  0.00    +0.135 C 
ATOM     16  N   UNL     1       5.295  -3.819  -0.214  0.00  0.00    -0.294 N 
ATOM     17  C   UNL     1       4.823  -3.453  -1.560  0.00  0.00    +0.113 C 
ATOM     18  C   UNL     1       4.637  -4.747  -2.360  0.00  0.00    +0.054 C 
ATOM     19  C   UNL     1       6.498  -3.417   0.240  0.00  0.00    +0.244 C 
ATOM     20  O   UNL     1       7.256  -2.818  -0.496  0.00  0.00    -0.270 OA
BRANCH  13  24
ATOM     21  C   UNL     1       2.047  -8.994  -3.580  0.00  0.00    +0.000 A 
ATOM     22  C   UNL     1       1.273  -8.075  -2.895  0.00  0.00    +0.001 A 
ATOM     23  C   UNL     1       1.870  -7.024  -2.230  0.00  0.00    +0.008 A 
ATOM     24  C   UNL     1       3.259  -6.891  -2.248  0.00  0.00    -0.022 A 
ATOM     25  C   UNL     1       4.035  -7.821  -2.940  0.00  0.00    +0.008 A 
ATOM     26  C   UNL     1       3.425  -8.867  -3.602  0.00  0.00    +0.001 A 
ENDBRANCH  13  24
ENDBRANCH   1  19
BRANCH   4  27
ATOM     27  S   UNL     1       8.675  -8.333   0.161  0.00  0.00    +0.061 S 
ATOM     28  O   UNL     1       8.748  -9.565   0.865  0.00  0.00    -0.153 OA
ATOM     29  O   UNL     1       7.761  -8.118  -0.905  0.00  0.00    -0.153 OA
BRANCH  27  30
ATOM     30  N   UNL     1      10.188  -8.045  -0.448  0.00  0.00    -0.172 NA
ATOM     31  C   UNL     1      10.380  -7.175  -1.619  0.00  0.00    +0.137 C 
ATOM     32  C   UNL     1      11.459  -6.140  -1.281  0.00  0.00    +0.177 C 
ATOM     33  O   UNL     1      12.622  -6.814  -0.794  0.00  0.00    -0.377 OA
ATOM     34  C   UNL     1      12.410  -7.544   0.417  0.00  0.00    +0.177 C 
ATOM     35  C   UNL     1      11.380  -8.646   0.170  0.00  0.00    +0.137 C 
ENDBRANCH  27  30
ENDBRANCH   4  27
TORSDOF 4
