REMARK  Name = ZINC36506770
REMARK  19 active torsions:
REMARK  status: ('A' for Active; 'I' for Inactive)
REMARK    1  A    between atoms: C_1  and  C_2
REMARK    2  A    between atoms: C_2  and  C_3
REMARK    3  A    between atoms: C_3  and  C_4
REMARK    4  A    between atoms: C_3  and  C_6
REMARK    5  A    between atoms: C_4  and  C_5
REMARK    6  A    between atoms: C_6  and  C_8
REMARK    7  A    between atoms: C_6  and  N_19
REMARK    8  A    between atoms: N_10  and  C_11
REMARK    9  A    between atoms: C_11  and  C_12
REMARK   10  A    between atoms: C_11  and  C_13
REMARK   11  A    between atoms: C_11  and  C_14
REMARK   12  A    between atoms: C_14  and  C_15
REMARK   13  A    between atoms: C_15  and  C_16
REMARK   14  A    between atoms: C_15  and  C_17
REMARK   15  A    between atoms: C_15  and  C_18
REMARK   16  A    between atoms: N_19  and  C_20
REMARK   17  A    between atoms: C_20  and  C_21
REMARK   18  A    between atoms: C_26  and  C_28
REMARK   19  A    between atoms: C_28  and  C_29
REMARK                            x       y       z     vdW  Elec       q    Type
REMARK                         _______ _______ _______ _____ _____    ______ ____
ROOT
ATOM      1  C   UNL     1      -3.234   1.250   2.354  0.00  0.00    +0.165 C 
ENDROOT
BRANCH   1   2
ATOM      2  C   UNL     1      -4.151   0.905   3.499  0.00  0.00    +0.234 C 
ATOM      3  O   UNL     1      -5.281   1.345   3.525  0.00  0.00    -0.274 OA
ATOM      4  N   UNL     1      -3.716   0.107   4.494  0.00  0.00    -0.309 N 
ATOM      5  H   UNL     1      -2.789  -0.180   4.516  0.00  0.00    +0.149 HD
BRANCH   4   6
ATOM      6  C   UNL     1      -4.641  -0.326   5.544  0.00  0.00    +0.030 C 
ATOM      7  C   UNL     1      -4.931   0.846   6.484  0.00  0.00    +0.031 C 
ATOM      8  C   UNL     1      -5.947  -0.804   4.906  0.00  0.00    +0.031 C 
BRANCH   6   9
ATOM      9  C   UNL     1      -4.012  -1.473   6.337  0.00  0.00    +0.031 C 
BRANCH   9  10
ATOM     10  C   UNL     1      -3.400  -2.487   5.369  0.00  0.00    -0.036 C 
ATOM     11  C   UNL     1      -2.073  -1.945   4.833  0.00  0.00    +0.010 C 
ATOM     12  C   UNL     1      -3.152  -3.807   6.103  0.00  0.00    +0.010 C 
ATOM     13  C   UNL     1      -4.362  -2.725   4.204  0.00  0.00    +0.010 C 
ENDBRANCH   9  10
ENDBRANCH   6   9
ENDBRANCH   4   6
ENDBRANCH   1   2
BRANCH   1  14
ATOM     14  N   UNL     1      -2.814   2.649   2.470  0.00  0.00    -0.282 N 
ATOM     15  C   UNL     1      -1.509   2.950   2.621  0.00  0.00    +0.221 C 
ATOM     16  O   UNL     1      -0.682   2.063   2.662  0.00  0.00    -0.275 OA
BRANCH  14  17
ATOM     17  C   UNL     1      -3.812   3.720   2.421  0.00  0.00    +0.182 C 
BRANCH  17  18
ATOM     18  C   UNL     1      -4.175   4.132   3.825  0.00  0.00    +0.122 A 
ATOM     19  C   UNL     1      -3.597   5.121   4.529  0.00  0.00    +0.046 A 
ATOM     20  C   UNL     1      -4.243   5.161   5.786  0.00  0.00    +0.041 A 
ATOM     21  C   UNL     1      -5.178   4.194   5.774  0.00  0.00    +0.195 A 
ATOM     22  O   UNL     1      -5.136   3.578   4.582  0.00  0.00    -0.466 OA
ENDBRANCH  17  18
ENDBRANCH  14  17
BRANCH  15  23
ATOM     23  C   UNL     1      -1.076   4.389   2.741  0.00  0.00    +0.131 C 
BRANCH  23  24
ATOM     24  C   UNL     1       0.421   4.452   2.900  0.00  0.00    -0.039 A 
ATOM     25  C   UNL     1       0.984   4.413   4.162  0.00  0.00    +0.004 A 
ATOM     26  C   UNL     1       2.357   4.471   4.308  0.00  0.00    +0.000 A 
ATOM     27  C   UNL     1       3.168   4.567   3.192  0.00  0.00    +0.000 A 
ATOM     28  C   UNL     1       2.605   4.604   1.930  0.00  0.00    +0.000 A 
ATOM     29  C   UNL     1       1.232   4.542   1.784  0.00  0.00    +0.004 A 
ENDBRANCH  23  24
ENDBRANCH  15  23
ENDBRANCH   1  14
BRANCH   1  30
ATOM     30  C   UNL     1      -3.973   1.048   1.030  0.00  0.00    +0.018 C 
BRANCH  30  32
ATOM     31  C   UNL     1      -3.041   2.953  -0.290  0.00  0.00    +0.004 C 
ATOM     32  C   UNL     1      -3.053   1.432  -0.131  0.00  0.00    +0.002 C 
ENDBRANCH  30  32
BRANCH  30  33
ATOM     33  C   UNL     1      -4.381  -0.420   0.893  0.00  0.00    +0.002 C 
ATOM     34  C   UNL     1      -5.567  -0.708   1.816  0.00  0.00    +0.004 C 
ENDBRANCH  30  33
ENDBRANCH   1  30
TORSDOF 12
