REMARK  Name = ZINC39609338
REMARK  7 active torsions:
REMARK  status: ('A' for Active; 'I' for Inactive)
REMARK    1  A    between atoms: C_1  and  C_2
REMARK    2  A    between atoms: C_5  and  C_9
REMARK    3  A    between atoms: C_7  and  C_8
REMARK    4  A    between atoms: C_9  and  C_10
REMARK    5  A    between atoms: C_10  and  N_11
REMARK    6  A    between atoms: C_12  and  C_14
REMARK    7  A    between atoms: C_25  and  C_27
REMARK                            x       y       z     vdW  Elec       q    Type
REMARK                         _______ _______ _______ _____ _____    ______ ____
ROOT
ATOM      1  C   UNL     1       2.306  -8.994  -0.676  0.00  0.00    +0.100 C 
ATOM      2  C   UNL     1       2.102  -9.166   0.846  0.00  0.00    +0.121 C 
ATOM      3  N   UNL     1       2.939 -10.334   1.206  0.00  0.00    -0.300 N 
ATOM      4  C   UNL     1       4.168 -10.172   0.392  0.00  0.00    +0.115 C 
ATOM      5  C   UNL     1       3.663  -9.655  -0.970  0.00  0.00    -0.004 C 
ATOM      6  C   UNL     1       3.485 -10.817  -1.943  0.00  0.00    -0.010 C 
ATOM      7  C   UNL     1       4.855 -11.422  -2.263  0.00  0.00    -0.082 C 
ATOM      8  N   UNL     1       5.721 -10.393  -2.852  0.00  0.00    +0.379 N 
ATOM      9  C   UNL     1       5.962  -9.323  -1.876  0.00  0.00    -0.082 C 
ATOM     10  C   UNL     1       4.639  -8.630  -1.539  0.00  0.00    -0.010 C 
ATOM     11  C   UNL     1       2.650 -11.320   2.078  0.00  0.00    +0.219 C 
ATOM     12  O   UNL     1       1.562 -11.357   2.612  0.00  0.00    -0.275 OA
ATOM     13  H   UNL     1       6.601 -10.808  -3.118  0.00  0.00    -0.086 HD
ATOM     14  H   UNL     1       5.273 -10.007  -3.669  0.00  0.00    -0.086 HD
ENDROOT
BRANCH  11  15
ATOM     15  C   UNL     1       3.678 -12.378   2.387  0.00  0.00    +0.079 C 
ATOM     16  C   UNL     1       2.976 -13.658   2.858  0.00  0.00    +0.017 C 
ATOM     17  C   UNL     1       4.025 -14.764   2.993  0.00  0.00    +0.027 C 
ATOM     18  C   UNL     1       5.198 -14.269   3.788  0.00  0.00    -0.031 C 
ATOM     19  C   UNL     1       5.449 -13.019   4.009  0.00  0.00    -0.030 C 
ATOM     20  C   UNL     1       4.600 -11.887   3.506  0.00  0.00    +0.039 C 
ENDBRANCH  11  15
BRANCH   1  22
ATOM     21  N   UNL     1       1.960  -7.131  -2.267  0.00  0.00    -0.315 N 
ATOM     22  C   UNL     1       2.345  -7.532  -1.039  0.00  0.00    +0.218 C 
ATOM     23  O   UNL     1       2.724  -6.715  -0.226  0.00  0.00    -0.275 OA
ATOM     24  H   UNL     1       1.657  -7.784  -2.917  0.00  0.00    +0.149 HD
BRANCH  21  25
ATOM     25  C   UNL     1       1.998  -5.710  -2.619  0.00  0.00    +0.109 C 
BRANCH  25  26
ATOM     26  C   UNL     1       1.513  -5.528  -4.059  0.00  0.00    +0.054 C 
BRANCH  26  31
ATOM     27  C   UNL     1       1.663   0.079  -5.451  0.00  0.00    +0.044 C 
ATOM     28  C   UNL     1       1.624  -1.383  -5.088  0.00  0.00    -0.048 A 
ATOM     29  C   UNL     1       2.730  -2.182  -5.314  0.00  0.00    +0.004 A 
ATOM     30  C   UNL     1       2.694  -3.523  -4.981  0.00  0.00    +0.004 A 
ATOM     31  C   UNL     1       1.553  -4.065  -4.421  0.00  0.00    -0.046 A 
ATOM     32  C   UNL     1       0.448  -3.267  -4.193  0.00  0.00    +0.007 A 
ATOM     33  C   UNL     1       0.485  -1.925  -4.522  0.00  0.00    -0.047 A 
ATOM     34  C   UNL     1      -0.718  -1.053  -4.269  0.00  0.00    +0.044 C 
ENDBRANCH  26  31
ENDBRANCH  25  26
ENDBRANCH  21  25
ENDBRANCH   1  22
TORSDOF 5
