REMARK  Name = ZINC13264174
REMARK  12 active torsions:
REMARK  status: ('A' for Active; 'I' for Inactive)
REMARK    1  A    between atoms: C_1  and  C_2
REMARK    2  A    between atoms: C_5  and  N_8
REMARK    3  A    between atoms: N_8  and  C_9
REMARK    4  A    between atoms: C_9  and  N_11
REMARK    5  A    between atoms: N_11  and  N_12
REMARK    6  A    between atoms: C_13  and  C_14
REMARK    7  A    between atoms: C_13  and  C_15
REMARK    8  A    between atoms: C_18  and  S_21
REMARK    9  A    between atoms: S_21  and  N_24
REMARK   10  A    between atoms: N_24  and  C_25
REMARK   11  A    between atoms: C_25  and  C_26
REMARK   12  A    between atoms: C_26  and  C_27
REMARK                            x       y       z     vdW  Elec       q    Type
REMARK                         _______ _______ _______ _____ _____    ______ ____
ROOT
ATOM      1  N   UNL     1       1.220  -4.793  -0.237  0.00  0.00    -0.185 NA
ATOM      2  C   UNL     1       1.233  -6.086  -0.342  0.00  0.00    +0.063 C 
ATOM      3  C   UNL     1       2.544  -6.818  -0.472  0.00  0.00    +0.068 C 
ENDROOT
BRANCH   2   4
ATOM      4  C   UNL     1      -0.035  -6.840  -0.333  0.00  0.00    -0.002 A 
ATOM      5  C   UNL     1      -0.024  -8.232  -0.451  0.00  0.00    +0.011 A 
ATOM      6  C   UNL     1      -1.213  -8.931  -0.437  0.00  0.00    +0.029 A 
ATOM      7  C   UNL     1      -2.415  -8.255  -0.317  0.00  0.00    +0.105 A 
ATOM      8  C   UNL     1      -2.433  -6.876  -0.205  0.00  0.00    +0.029 A 
ATOM      9  C   UNL     1      -1.252  -6.165  -0.212  0.00  0.00    +0.011 A 
BRANCH   7  10
ATOM     10  S   UNL     1      -3.929  -9.156  -0.307  0.00  0.00    +0.058 S 
ATOM     11  O   UNL     1      -3.616 -10.473   0.124  0.00  0.00    -0.153 OA
ATOM     12  O   UNL     1      -4.881  -8.342   0.364  0.00  0.00    -0.153 OA
BRANCH  10  13
ATOM     13  N   UNL     1      -4.437  -9.279  -1.878  0.00  0.00    -0.189 NA
ATOM     14  H   UNL     1      -5.258  -8.846  -2.158  0.00  0.00    +0.148 HD
BRANCH  13  15
ATOM     15  C   UNL     1      -3.645 -10.043  -2.845  0.00  0.00    +0.117 C 
BRANCH  15  16
ATOM     16  C   UNL     1      -4.489 -10.318  -4.092  0.00  0.00    +0.142 C 
BRANCH  16  17
ATOM     17  C   UNL     1      -3.675 -11.104  -5.087  0.00  0.00    +0.357 C 
ATOM     18  O   UNL     1      -2.536 -11.413  -4.826  0.00  0.00    -0.246 OA
ATOM     19  O   UNL     1      -4.214 -11.461  -6.263  0.00  0.00    -0.246 OA
ENDBRANCH  16  17
ENDBRANCH  15  16
ENDBRANCH  13  15
ENDBRANCH  10  13
ENDBRANCH   7  10
ENDBRANCH   2   4
BRANCH   1  20
ATOM     20  N   UNL     1       2.424  -4.077  -0.245  0.00  0.00    -0.218 N 
ATOM     21  H   UNL     1       3.268  -4.548  -0.329  0.00  0.00    +0.176 HD
BRANCH  20  22
ATOM     22  C   UNL     1       2.410  -2.733  -0.137  0.00  0.00    +0.154 C 
ATOM     23  S   UNL     1       3.881  -1.859  -0.147  0.00  0.00    -0.017 S 
BRANCH  22  24
ATOM     24  N   UNL     1       1.238  -2.079  -0.021  0.00  0.00    -0.296 N 
ATOM     25  H   UNL     1       0.410  -2.578   0.066  0.00  0.00    +0.154 HD
BRANCH  24  30
ATOM     26  C   UNL     1       1.141   3.593  -0.038  0.00  0.00    +0.044 C 
ATOM     27  C   UNL     1       1.166   2.086  -0.033  0.00  0.00    -0.050 A 
ATOM     28  C   UNL     1       1.985   1.407  -0.918  0.00  0.00    +0.005 A 
ATOM     29  C   UNL     1       2.011   0.026  -0.916  0.00  0.00    +0.023 A 
ATOM     30  C   UNL     1       1.214  -0.680  -0.025  0.00  0.00    +0.033 A 
ATOM     31  C   UNL     1       0.393   0.004   0.862  0.00  0.00    +0.023 A 
ATOM     32  C   UNL     1       0.372   1.385   0.855  0.00  0.00    +0.005 A 
ENDBRANCH  24  30
ENDBRANCH  22  24
ENDBRANCH  20  22
ENDBRANCH   1  20
TORSDOF 10
