REMARK  Name = ZINC67042583
REMARK  6 active torsions:
REMARK  status: ('A' for Active; 'I' for Inactive)
REMARK    1  A    between atoms: C_1  and  C_2
REMARK    2  A    between atoms: C_6  and  C_7
REMARK    3  A    between atoms: N_9  and  N_10
REMARK    4  A    between atoms: N_13  and  C_14
REMARK    5  A    between atoms: C_14  and  C_15
REMARK    6  A    between atoms: N_24  and  C_27
REMARK                            x       y       z     vdW  Elec       q    Type
REMARK                         _______ _______ _______ _____ _____    ______ ____
ROOT
ATOM      1  N   UNL     1       0.581  -0.735   4.981  0.00  0.00    -0.218 N 
ATOM      2  C   UNL     1       0.372  -1.631   5.965  0.00  0.00    +0.316 C 
ATOM      3  O   UNL     1       0.210  -1.251   7.109  0.00  0.00    -0.251 OA
ATOM      4  N   UNL     1       0.344  -2.949   5.683  0.00  0.00    -0.294 N 
ATOM      5  H   UNL     1       0.601   0.213   5.184  0.00  0.00    +0.174 HD
ATOM      6  H   UNL     1       0.474  -3.252   4.771  0.00  0.00    +0.151 HD
ENDROOT
BRANCH   1   9
ATOM      7  C   UNL     1       0.977  -0.277   2.678  0.00  0.00    +0.267 C 
ATOM      8  O   UNL     1       1.002   0.913   2.933  0.00  0.00    -0.268 OA
ATOM      9  N   UNL     1       0.768  -1.173   3.663  0.00  0.00    -0.229 N 
ATOM     10  H   UNL     1       0.748  -2.121   3.460  0.00  0.00    +0.173 HD
BRANCH   7  16
ATOM     11  C   UNL     1       1.478   1.517   0.181  0.00  0.00    +0.045 C 
ATOM     12  C   UNL     1       1.399   0.012   0.154  0.00  0.00    -0.031 A 
ATOM     13  C   UNL     1       1.551  -0.707  -1.007  0.00  0.00    +0.011 A 
ATOM     14  C   UNL     1       1.468  -2.059  -0.961  0.00  0.00    +0.046 A 
ATOM     15  S   UNL     1       1.181  -2.399   0.659  0.00  0.00    -0.092 S 
ATOM     16  C   UNL     1       1.173  -0.735   1.300  0.00  0.00    +0.078 A 
ENDBRANCH   7  16
ENDBRANCH   1   9
BRANCH   4  17
ATOM     17  C   UNL     1       0.117  -3.923   6.753  0.00  0.00    +0.142 C 
BRANCH  17  18
ATOM     18  C   UNL     1       0.132  -5.315   6.177  0.00  0.00    -0.012 A 
ATOM     19  C   UNL     1      -1.042  -5.895   5.713  0.00  0.00    +0.010 A 
ATOM     20  C   UNL     1      -0.985  -7.175   5.192  0.00  0.00    +0.044 A 
ATOM     21  C   UNL     1       0.240  -7.834   5.150  0.00  0.00    +0.121 A 
ATOM     22  N   UNL     1       1.337  -7.247   5.602  0.00  0.00    -0.240 NA
ATOM     23  C   UNL     1       1.313  -6.025   6.099  0.00  0.00    +0.118 A 
ATOM     24  N   UNL     1       0.311  -9.121   4.629  0.00  0.00    -0.319 N 
ATOM     25  C   UNL     1       1.610  -9.759   4.364  0.00  0.00    +0.088 C 
ATOM     26  C   UNL     1       1.610 -11.148   5.011  0.00  0.00    -0.060 C 
ATOM     27  N   UNL     1       0.451 -11.910   4.529  0.00  0.00    +0.380 N 
ATOM     28  C   UNL     1      -0.791 -11.267   4.974  0.00  0.00    -0.060 C 
ATOM     29  C   UNL     1      -0.910  -9.886   4.332  0.00  0.00    +0.088 C 
ATOM     30  C   UNL     1       0.511 -13.278   5.063  0.00  0.00    -0.096 C 
ATOM     31  H   UNL     1       0.468 -11.944   3.521  0.00  0.00    -0.082 HD
ENDBRANCH  17  18
ENDBRANCH   4  17
TORSDOF 4
