REMARK  Name = ZINC04085529
REMARK  16 active torsions:
REMARK  status: ('A' for Active; 'I' for Inactive)
REMARK    1  A    between atoms: C_1  and  C_2
REMARK    2  A    between atoms: C_2  and  C_4
REMARK    3  A    between atoms: C_2  and  C_5
REMARK    4  A    between atoms: C_5  and  C_7
REMARK    5  A    between atoms: C_5  and  N_27
REMARK    6  A    between atoms: N_9  and  C_10
REMARK    7  A    between atoms: C_10  and  C_11
REMARK    8  A    between atoms: C_15  and  C_19
REMARK    9  A    between atoms: N_21  and  CA_22
REMARK   10  A    between atoms: CA_22  and  CB_24
REMARK   11  A    between atoms: CA_22  and  C_25
REMARK   12  A    between atoms: C_28  and  O_30
REMARK   13  A    between atoms: O_30  and  C_31
REMARK   14  A    between atoms: C_31  and  C_32
REMARK   15  A    between atoms: C_31  and  C_33
REMARK   16  A    between atoms: C_31  and  C_34
REMARK                            x       y       z     vdW  Elec       q    Type
REMARK                         _______ _______ _______ _____ _____    ______ ____
ROOT
ATOM      1  C   UNK A   0      -6.377   1.282  -1.263  0.00  0.00    +0.234 C 
ATOM      2  O   UNK A   0      -6.926   0.509  -0.507  0.00  0.00    -0.274 OA
ATOM      3  N   UNK A   0      -5.083   1.607  -1.072  0.00  0.00    -0.314 N 
ATOM      4  H   UNK A   0      -4.644   2.225  -1.677  0.00  0.00    +0.149 HD
ENDROOT
BRANCH   1   5
ATOM      5  C   UNK A   0      -7.141   1.879  -2.417  0.00  0.00    +0.165 C 
BRANCH   5   6
ATOM      6  N   UNK A   0      -8.515   1.372  -2.406  0.00  0.00    -0.270 N 
ATOM      7  C   UNK A   0      -9.229   1.335  -3.549  0.00  0.00    +0.401 C 
ATOM      8  O   UNK A   0      -8.732   1.722  -4.588  0.00  0.00    -0.226 OA
ATOM      9  H   UNK A   0      -8.912   1.063  -1.577  0.00  0.00    +0.153 HD
BRANCH   7  10
ATOM     10  O   UNK A   0     -10.492   0.869  -3.540  0.00  0.00    -0.445 OA
BRANCH  10  11
ATOM     11  C   UNK A   0     -11.200   0.859  -4.807  0.00  0.00    +0.107 C 
ATOM     12  C   UNK A   0     -10.445  -0.021  -5.806  0.00  0.00    +0.055 C 
ATOM     13  C   UNK A   0     -12.609   0.300  -4.599  0.00  0.00    +0.055 C 
ATOM     14  C   UNK A   0     -11.293   2.285  -5.352  0.00  0.00    +0.055 C 
ENDBRANCH  10  11
ENDBRANCH   7  10
ENDBRANCH   5   6
BRANCH   5  16
ATOM     15  C   UNK A   0      -7.836   3.792  -0.967  0.00  0.00    +0.009 C 
ATOM     16  C   UNK A   0      -7.159   3.403  -2.283  0.00  0.00    +0.012 C 
ATOM     17  C   UNK A   0      -7.935   4.009  -3.454  0.00  0.00    +0.009 C 
ENDBRANCH   5  16
ENDBRANCH   1   5
BRANCH   3  18
ATOM     18  C   UNK A   0      -4.340   1.027   0.049  0.00  0.00    +0.107 C 
BRANCH  18  19
ATOM     19  C   UNK A   0      -2.904   1.556   0.038  0.00  0.00    +0.006 C 
ATOM     20  C   UNK A   0      -2.164   1.050   1.278  0.00  0.00    +0.006 C 
ATOM     21  C   UNK A   0      -0.729   1.579   1.267  0.00  0.00    +0.013 C 
ATOM     22  C   UNK A   0      -0.013   1.086   0.008  0.00  0.00    +0.075 C 
ATOM     23  C   UNK A   0      -0.753   1.593  -1.232  0.00  0.00    +0.013 C 
ATOM     24  C   UNK A   0      -2.188   1.063  -1.221  0.00  0.00    +0.006 C 
BRANCH  22  25
ATOM     25  C   UNK A   0       1.401   1.607  -0.003  0.00  0.00    +0.217 C 
ATOM     26  O   UNK A   0       1.797   2.305   0.907  0.00  0.00    -0.275 OA
ATOM     27  N   ALA A   1       2.226   1.299  -1.023  0.00  0.00    -0.302 N 
ATOM     28  H   ALA A   1       1.909   0.741  -1.751  0.00  0.00    +0.150 HD
BRANCH  27  29
ATOM     29  CA  ALA A   1       3.600   1.806  -1.034  0.00  0.00    +0.183 C 
ATOM     30  CB  ALA A   1       3.620   3.212  -1.636  0.00  0.00    +0.040 C 
BRANCH  29  31
ATOM     31  C   ALA A   1       4.466   0.892  -1.862  0.00  0.00    +0.376 C 
ATOM     32  O   ALA A   1       3.985  -0.083  -2.389  0.00  0.00    -0.244 OA
ATOM     33  OXT ALA A   1       5.773   1.161  -2.013  0.00  0.00    -0.244 OA
ENDBRANCH  29  31
ENDBRANCH  27  29
ENDBRANCH  22  25
ENDBRANCH  18  19
ENDBRANCH   3  18
TORSDOF 10
