REMARK  Name = ZINC09186988
REMARK  11 active torsions:
REMARK  status: ('A' for Active; 'I' for Inactive)
REMARK    1  A    between atoms: C_1  and  C_2
REMARK    2  A    between atoms: C_3  and  C_30
REMARK    3  A    between atoms: C_11  and  O_13
REMARK    4  A    between atoms: O_13  and  C_14
REMARK    5  A    between atoms: C_14  and  C_16
REMARK    6  A    between atoms: C_14  and  C_17
REMARK    7  A    between atoms: N_19  and  C_20
REMARK    8  A    between atoms: C_22  and  C_27
REMARK    9  A    between atoms: C_22  and  C_28
REMARK   10  A    between atoms: C_23  and  C_25
REMARK   11  A    between atoms: C_23  and  C_26
REMARK                            x       y       z     vdW  Elec       q    Type
REMARK                         _______ _______ _______ _____ _____    ______ ____
ROOT
ATOM      1  C   UNL     1       0.995   4.425  -5.499  0.00  0.00    +0.256 C 
ATOM      2  C   UNL     1       2.524   4.380  -5.503  0.00  0.00    +0.062 C 
ENDROOT
BRANCH   1   3
ATOM      3  C   UNL     1       0.490   4.200  -4.097  0.00  0.00    +0.254 C 
ATOM      4  O   UNL     1      -0.181   5.051  -3.551  0.00  0.00    -0.272 OA
ATOM      5  N   UNL     1       0.783   3.055  -3.450  0.00  0.00    -0.310 N 
ATOM      6  H   UNL     1       1.320   2.375  -3.887  0.00  0.00    +0.149 HD
BRANCH   5   7
ATOM      7  C   UNL     1       0.291   2.837  -2.084  0.00  0.00    +0.070 C 
ATOM      8  C   UNL     1       1.211   1.847  -1.370  0.00  0.00    +0.009 C 
ATOM      9  C   UNL     1       0.711   1.584   0.048  0.00  0.00    -0.072 C 
ATOM     10  C   UNL     1      -1.642   1.978  -0.736  0.00  0.00    -0.072 C 
ATOM     11  C   UNL     1      -1.113   2.237  -2.145  0.00  0.00    +0.009 C 
ATOM     12  C   UNL     1      -2.918   1.117  -0.870  0.00  0.00    -0.010 C 
ATOM     13  C   UNL     1      -2.057   3.306  -0.091  0.00  0.00    -0.010 C 
ATOM     14  C   UNL     1       1.036   2.790   0.938  0.00  0.00    -0.010 C 
ATOM     15  C   UNL     1       1.501   0.379   0.605  0.00  0.00    -0.010 C 
ATOM     16  N   UNL     1      -0.725   1.207   0.146  0.00  0.00    +0.386 N 
ATOM     17  H   UNL     1      -1.025   1.348   1.117  0.00  0.00    -0.084 HD
ATOM     18  H   UNL     1      -0.810   0.213  -0.098  0.00  0.00    -0.084 HD
ENDBRANCH   5   7
ENDBRANCH   1   3
BRANCH   1  19
ATOM     19  O   UNL     1       0.555   5.702  -5.965  0.00  0.00    -0.478 OA
BRANCH  19  30
ATOM     20  C   UNL     1      -0.437   7.645 -12.092  0.00  0.00    +0.045 C 
ATOM     21  C   UNL     1       0.132   6.384 -11.496  0.00  0.00    -0.030 A 
ATOM     22  C   UNL     1       0.563   5.370 -12.290  0.00  0.00    +0.037 A 
ATOM     23  C   UNL     1       1.093   4.200 -11.707  0.00  0.00    +0.340 A 
ATOM     24  O   UNL     1       1.476   3.298 -12.431  0.00  0.00    -0.245 OA
ATOM     25  O   UNL     1       1.186   4.055 -10.376  0.00  0.00    -0.422 OA
ATOM     26  C   UNL     1       0.776   5.024  -9.531  0.00  0.00    +0.143 A 
ATOM     27  C   UNL     1       0.237   6.219 -10.044  0.00  0.00    +0.022 A 
ATOM     28  C   UNL     1      -0.189   7.227  -9.172  0.00  0.00    +0.035 A 
ATOM     29  C   UNL     1      -0.086   7.045  -7.823  0.00  0.00    +0.083 A 
ATOM     30  C   UNL     1       0.453   5.866  -7.309  0.00  0.00    +0.143 A 
ATOM     31  C   UNL     1       0.879   4.858  -8.158  0.00  0.00    +0.094 A 
ATOM     32 CL   UNL     1      -0.621   8.293  -6.740  0.00  0.00    -0.080 Cl
ATOM     33  C   UNL     1       0.476   5.494 -13.789  0.00  0.00    +0.051 C 
ENDBRANCH  19  30
ENDBRANCH   1  19
TORSDOF 4
