REMARK  Name = ZINC34835881
REMARK  15 active torsions:
REMARK  status: ('A' for Active; 'I' for Inactive)
REMARK    1  A    between atoms: C_1  and  C_2
REMARK    2  A    between atoms: C_3  and  C_23
REMARK    3  A    between atoms: C_4  and  N_14
REMARK    4  A    between atoms: N_5  and  C_7
REMARK    5  A    between atoms: N_17  and  C_20
REMARK    6  A    between atoms: C_20  and  C_21
REMARK    7  A    between atoms: C_20  and  C_22
REMARK    8  A    between atoms: C_23  and  N_24
REMARK    9  A    between atoms: N_24  and  C_25
REMARK   10  A    between atoms: C_25  and  C_26
REMARK   11  A    between atoms: C_25  and  C_27
REMARK   12  A    between atoms: N_30  and  C_31
REMARK   13  A    between atoms: C_31  and  C_32
REMARK   14  A    between atoms: C_31  and  C_33
REMARK   15  A    between atoms: C_31  and  C_34
REMARK                            x       y       z     vdW  Elec       q    Type
REMARK                         _______ _______ _______ _____ _____    ______ ____
ROOT
ATOM      1  C   UNL     1      -0.469   1.459  -1.092  0.00  0.00    +0.068 C 
ATOM      2  C   UNL     1      -0.387  -0.019  -1.369  0.00  0.00    +0.067 A 
ATOM      3  C   UNL     1       0.174  -0.607  -2.506  0.00  0.00    +0.032 A 
ATOM      4  C   UNL     1       0.054  -1.958  -2.381  0.00  0.00    +0.130 A 
ATOM      5  N   UNL     1      -0.567  -2.204  -1.196  0.00  0.00    -0.218 N 
ATOM      6  N   UNL     1      -0.824  -0.970  -0.584  0.00  0.00    -0.170 NA
ENDROOT
BRANCH   5   7
ATOM      7  C   UNL     1      -0.886  -3.466  -0.676  0.00  0.00    +0.070 A 
ATOM      8  C   UNL     1      -1.528  -4.404  -1.475  0.00  0.00    +0.028 A 
ATOM      9  C   UNL     1      -1.842  -5.647  -0.962  0.00  0.00    +0.005 A 
ATOM     10  C   UNL     1      -1.519  -5.960   0.346  0.00  0.00    +0.038 A 
ATOM     11  C   UNL     1      -0.880  -5.027   1.145  0.00  0.00    +0.125 A 
ATOM     12  C   UNL     1      -0.558  -3.782   0.634  0.00  0.00    +0.066 A 
ATOM     13  F   UNL     1      -0.566  -5.334   2.423  0.00  0.00    -0.205 F 
ENDBRANCH   5   7
BRANCH   4  14
ATOM     14  N   UNL     1       0.486  -2.912  -3.298  0.00  0.00    -0.318 N 
ATOM     15  C   UNL     1       1.770  -3.608  -3.117  0.00  0.00    +0.088 C 
ATOM     16  C   UNL     1       1.527  -5.115  -3.247  0.00  0.00    -0.059 C 
ATOM     17  N   UNL     1       0.861  -5.394  -4.526  0.00  0.00    +0.383 N 
ATOM     18  C   UNL     1      -0.471  -4.777  -4.541  0.00  0.00    -0.059 C 
ATOM     19  C   UNL     1      -0.330  -3.257  -4.472  0.00  0.00    +0.088 C 
ATOM     20  H   UNL     1       1.414  -5.017  -5.281  0.00  0.00    -0.081 HD
BRANCH  17  21
ATOM     21  C   UNL     1       0.728  -6.847  -4.700  0.00  0.00    -0.075 C 
ATOM     22  C   UNL     1       0.035  -7.140  -6.032  0.00  0.00    -0.014 C 
ATOM     23  C   UNL     1       2.116  -7.490  -4.696  0.00  0.00    -0.014 C 
ENDBRANCH  17  21
ENDBRANCH   4  14
BRANCH   3  24
ATOM     24  C   UNL     1       0.801   0.124  -3.666  0.00  0.00    +0.150 C 
BRANCH  24  25
ATOM     25  N   UNL     1       2.204   0.415  -3.358  0.00  0.00    -0.279 N 
ATOM     26  C   UNL     1       2.547   1.617  -2.853  0.00  0.00    +0.303 C 
ATOM     27  O   UNL     1       1.685   2.420  -2.554  0.00  0.00    -0.253 OA
ATOM     28  N   UNL     1       3.847   1.928  -2.679  0.00  0.00    -0.294 N 
ATOM     29  H   UNL     1       4.537   1.318  -2.985  0.00  0.00    +0.151 HD
BRANCH  28  30
ATOM     30  C   UNL     1       4.218   3.187  -2.028  0.00  0.00    +0.028 C 
ATOM     31  C   UNL     1       3.638   3.219  -0.613  0.00  0.00    +0.031 C 
ATOM     32  C   UNL     1       5.743   3.294  -1.957  0.00  0.00    +0.031 C 
ATOM     33  C   UNL     1       3.662   4.362  -2.834  0.00  0.00    +0.031 C 
ENDBRANCH  28  30
BRANCH  25  34
ATOM     34  C   UNL     1       3.233  -0.599  -3.600  0.00  0.00    +0.072 C 
ATOM     35  C   UNL     1       4.173  -0.118  -4.706  0.00  0.00    +0.028 C 
ATOM     36  C   UNL     1       4.032  -0.831  -2.316  0.00  0.00    +0.028 C 
ENDBRANCH  25  34
ENDBRANCH  24  25
ENDBRANCH   3  24
TORSDOF 7
