REMARK  Name = ZINC01858252
REMARK  10 active torsions:
REMARK  status: ('A' for Active; 'I' for Inactive)
REMARK    1  A    between atoms: C_1  and  O_2
REMARK    2  A    between atoms: O_2  and  C_3
REMARK    3  A    between atoms: C_6  and  C_11
REMARK    4  A    between atoms: C_8  and  O_9
REMARK    5  A    between atoms: O_9  and  C_10
REMARK    6  A    between atoms: C_11  and  C_12
REMARK    7  A    between atoms: C_12  and  N_13
REMARK    8  A    between atoms: C_22  and  C_26
REMARK    9  A    between atoms: C_22  and  N_30
REMARK   10  A    between atoms: C_31  and  C_33
REMARK                            x       y       z     vdW  Elec       q    Type
REMARK                         _______ _______ _______ _____ _____    ______ ____
ROOT
ATOM      1  N   UNL     1       4.912  -3.345  -5.141  0.00  0.00    -0.241 N 
ATOM      2  C   UNL     1       4.860  -4.722  -5.239  0.00  0.00    +0.132 C 
ATOM      3  C   UNL     1       5.417  -5.324  -6.377  0.00  0.00    +0.094 C 
ATOM      4  C   UNL     1       5.989  -4.564  -7.347  0.00  0.00    +0.253 C 
ATOM      5  O   UNL     1       6.523  -5.146  -8.440  0.00  0.00    -0.270 OA
ATOM      6  N   UNL     1       6.018  -3.200  -7.205  0.00  0.00    -0.236 N 
ATOM      7  H   UNL     1       6.425  -2.652  -7.894  0.00  0.00    +0.159 HD
ATOM      8  C   UNL     1       5.479  -2.617  -6.118  0.00  0.00    +0.314 C 
ATOM      9  O   UNL     1       5.512  -1.406  -6.016  0.00  0.00    -0.252 OA
ATOM     10  C   UNL     1       5.206  -6.809  -6.192  0.00  0.00    +0.242 C 
ATOM     11  C   UNL     1       4.492  -6.883  -4.855  0.00  0.00    +0.275 C 
ATOM     12  O   UNL     1       4.116  -7.892  -4.290  0.00  0.00    -0.271 OA
ATOM     13  N   UNL     1       4.356  -5.641  -4.421  0.00  0.00    -0.162 NA
ENDROOT
BRANCH  10  14
ATOM     14  C   UNL     1       6.546  -7.544  -6.131  0.00  0.00    +0.424 C 
ATOM     15  F   UNL     1       7.349  -6.969  -5.140  0.00  0.00    -0.167 F 
ATOM     16  F   UNL     1       6.326  -8.892  -5.830  0.00  0.00    -0.167 F 
ATOM     17  F   UNL     1       7.190  -7.441  -7.369  0.00  0.00    -0.167 F 
ENDBRANCH  10  14
BRANCH  10  18
ATOM     18  N   UNL     1       4.363  -7.351  -7.261  0.00  0.00    -0.286 N 
ATOM     19  C   UNL     1       3.136  -6.837  -7.477  0.00  0.00    +0.252 C 
ATOM     20  O   UNL     1       2.762  -5.866  -6.845  0.00  0.00    -0.270 OA
ATOM     21  H   UNL     1       4.688  -8.079  -7.812  0.00  0.00    +0.151 HD
BRANCH  19  22
ATOM     22  C   UNL     1       2.252  -7.447  -8.475  0.00  0.00    +0.074 A 
ATOM     23  C   UNL     1       0.970  -7.074  -8.850  0.00  0.00    +0.021 A 
ATOM     24  C   UNL     1       0.385  -7.848  -9.824  0.00  0.00    +0.008 A 
ATOM     25  C   UNL     1       1.077  -8.893 -10.340  0.00  0.00    +0.046 A 
ATOM     26  S   UNL     1       2.546  -8.856  -9.526  0.00  0.00    -0.092 S 
ENDBRANCH  19  22
ENDBRANCH  10  18
BRANCH   1  27
ATOM     27  C   UNL     1       4.342  -2.676  -3.969  0.00  0.00    +0.121 C 
BRANCH  27  28
ATOM     28  C   UNL     1       2.870  -2.352  -4.233  0.00  0.00    +0.054 C 
BRANCH  28  32
ATOM     29  C   UNL     1       1.206  -0.391  -0.816  0.00  0.00    +0.161 A 
ATOM     30  C   UNL     1       1.793   0.352  -1.827  0.00  0.00    +0.049 A 
ATOM     31  C   UNL     1       2.330  -0.285  -2.930  0.00  0.00    +0.007 A 
ATOM     32  C   UNL     1       2.283  -1.663  -3.028  0.00  0.00    -0.042 A 
ATOM     33  C   UNL     1       1.699  -2.410  -2.022  0.00  0.00    +0.053 A 
ATOM     34  C   UNL     1       1.165  -1.779  -0.911  0.00  0.00    +0.162 A 
BRANCH  29  36
ATOM     35  C   UNL     1       0.757   1.660   0.300  0.00  0.00    +0.277 C 
ATOM     36  O   UNL     1       0.678   0.234   0.271  0.00  0.00    -0.491 OA
ENDBRANCH  29  36
BRANCH  34  37
ATOM     37  O   UNL     1       0.595  -2.513   0.082  0.00  0.00    -0.491 OA
ATOM     38  C   UNL     1       0.588  -3.932  -0.083  0.00  0.00    +0.277 C 
ENDBRANCH  34  37
ENDBRANCH  28  32
ENDBRANCH  27  28
ENDBRANCH   1  27
TORSDOF 8
