REMARK  Name = ZINC25402883
REMARK  10 active torsions:
REMARK  status: ('A' for Active; 'I' for Inactive)
REMARK    1  A    between atoms: C_1  and  C_2
REMARK    2  A    between atoms: C_3  and  C_29
REMARK    3  A    between atoms: C_4  and  C_28
REMARK    4  A    between atoms: C_5  and  S_10
REMARK    5  A    between atoms: C_6  and  C_9
REMARK    6  A    between atoms: C_7  and  C_8
REMARK    7  A    between atoms: S_10  and  N_13
REMARK    8  A    between atoms: N_16  and  C_19
REMARK    9  A    between atoms: C_19  and  C_21
REMARK   10  A    between atoms: C_19  and  C_22
REMARK                            x       y       z     vdW  Elec       q    Type
REMARK                         _______ _______ _______ _____ _____    ______ ____
ROOT
ATOM      1  N   UNL     1       1.531  -5.755   0.564  0.00  0.00    -0.174 NA
ATOM      2  C   UNL     1       2.150  -6.108  -0.723  0.00  0.00    +0.125 C 
ATOM      3  C   UNL     1       2.029  -7.622  -0.922  0.00  0.00    +0.102 C 
ATOM      4  N   UNL     1       2.590  -8.313   0.247  0.00  0.00    -0.289 NA
ATOM      5  C   UNL     1       1.831  -8.000   1.466  0.00  0.00    +0.102 C 
ATOM      6  C   UNL     1       1.948  -6.497   1.763  0.00  0.00    +0.125 C 
ENDROOT
BRANCH   1   7
ATOM      7  S   UNL     1       0.400  -4.549   0.661  0.00  0.00    +0.061 S 
ATOM      8  O   UNL     1      -0.375  -4.812   1.823  0.00  0.00    -0.153 OA
ATOM      9  O   UNL     1      -0.180  -4.432  -0.631  0.00  0.00    -0.153 OA
BRANCH   7  14
ATOM     10  C   UNL     1       3.369   0.601   1.693  0.00  0.00    +0.044 C 
ATOM     11  C   UNL     1       2.627  -0.685   1.435  0.00  0.00    -0.044 A 
ATOM     12  C   UNL     1       2.180  -1.450   2.496  0.00  0.00    -0.043 A 
ATOM     13  C   UNL     1       1.499  -2.630   2.260  0.00  0.00    -0.021 A 
ATOM     14  C   UNL     1       1.266  -3.045   0.962  0.00  0.00    +0.112 A 
ATOM     15  C   UNL     1       1.713  -2.280  -0.099  0.00  0.00    -0.021 A 
ATOM     16  C   UNL     1       2.390  -1.098   0.137  0.00  0.00    -0.043 A 
ATOM     17  C   UNL     1       2.873  -0.262  -1.020  0.00  0.00    +0.044 C 
ATOM     18  C   UNL     1       1.460  -2.733  -1.514  0.00  0.00    +0.046 C 
ATOM     19  C   UNL     1       1.012  -3.463   3.417  0.00  0.00    +0.046 C 
ATOM     20  C   UNL     1       2.434  -0.997   3.911  0.00  0.00    +0.044 C 
ENDBRANCH   7  14
ENDBRANCH   1   7
BRANCH   4  21
ATOM     21  C   UNL     1       2.650  -9.764   0.023  0.00  0.00    +0.140 C 
ATOM     22  C   UNL     1       1.301 -10.254  -0.506  0.00  0.00    +0.034 C 
BRANCH  21  23
ATOM     23  C   UNL     1       3.727 -10.072  -0.985  0.00  0.00    +0.237 C 
ATOM     24  O   UNL     1       4.247  -9.172  -1.610  0.00  0.00    -0.274 OA
ATOM     25  N   UNL     1       4.112 -11.347  -1.192  0.00  0.00    -0.239 N 
ATOM     26  C   UNL     1       5.075 -11.622  -2.094  0.00  0.00    +0.303 C 
ATOM     27  O   UNL     1       5.596 -10.720  -2.720  0.00  0.00    -0.253 OA
ATOM     28  N   UNL     1       5.459 -12.897  -2.301  0.00  0.00    -0.313 N 
ATOM     29  H   UNL     1       3.695 -12.066  -0.692  0.00  0.00    +0.159 HD
ATOM     30  H   UNL     1       5.043 -13.616  -1.801  0.00  0.00    +0.146 HD
ATOM     31  H   UNL     1       6.153 -13.095  -2.950  0.00  0.00    +0.146 HD
ENDBRANCH  21  23
ENDBRANCH   4  21
TORSDOF 4
