REMARK  Name = ZINC22469812
REMARK  10 active torsions:
REMARK  status: ('A' for Active; 'I' for Inactive)
REMARK    1  A    between atoms: C_1  and  C_2
REMARK    2  A    between atoms: C_4  and  C_7
REMARK    3  A    between atoms: C_7  and  O_8
REMARK    4  A    between atoms: O_8  and  C_9
REMARK    5  A    between atoms: C_14  and  C_15
REMARK    6  A    between atoms: C_16  and  C_17
REMARK    7  A    between atoms: N_19  and  C_20
REMARK    8  A    between atoms: C_20  and  C_22
REMARK    9  A    between atoms: C_20  and  C_29
REMARK   10  A    between atoms: N_33  and  C_34
REMARK                            x       y       z     vdW  Elec       q    Type
REMARK                         _______ _______ _______ _____ _____    ______ ____
ROOT
ATOM      1  C   UNL     1       0.002  -0.004   0.002  0.00  0.00    +0.238 C 
ATOM      2  O   UNL     1      -1.044  -0.627   0.009  0.00  0.00    -0.271 OA
ATOM      3  N   UNL     1       1.178  -0.662  -0.013  0.00  0.00    -0.298 N 
ATOM      4  H   UNL     1       2.123  -0.099  -0.019  0.00  0.00    +0.150 HD
ENDROOT
BRANCH   1   6
ATOM      5  C   UNL     1      -1.196   2.117   0.019  0.00  0.00    +0.016 C 
ATOM      6  C   UNL     1      -0.018   1.458   0.010  0.00  0.00    +0.068 C 
BRANCH   5  12
ATOM      7  C   UNL     1      -2.438   4.276   0.037  0.00  0.00    +0.128 A 
ATOM      8  C   UNL     1      -2.444   5.662   0.045  0.00  0.00    +0.046 A 
ATOM      9  C   UNL     1      -1.252   6.361   0.043  0.00  0.00    +0.004 A 
ATOM     10  C   UNL     1      -0.043   5.684   0.034  0.00  0.00    +0.001 A 
ATOM     11  C   UNL     1      -0.016   4.307   0.031  0.00  0.00    +0.011 A 
ATOM     12  C   UNL     1      -1.216   3.587   0.027  0.00  0.00    +0.017 A 
BRANCH   7  13
ATOM     13  O   UNL     1      -3.609   3.590   0.038  0.00  0.00    -0.485 OA
BRANCH  13  14
ATOM     14  C   UNL     1      -4.813   4.359   0.048  0.00  0.00    +0.285 C 
BRANCH  14  18
ATOM     15  C   UNL     1      -9.736   3.474   0.064  0.00  0.00    +0.073 C 
ATOM     16  C   UNL     1      -8.273   3.115   0.055  0.00  0.00    +0.076 A 
ATOM     17  N   UNL     1      -7.228   3.910   0.055  0.00  0.00    -0.246 NA
ATOM     18  C   UNL     1      -6.001   3.433   0.047  0.00  0.00    +0.086 A 
ATOM     19  C   UNL     1      -5.833   2.086   0.033  0.00  0.00    +0.073 A 
ATOM     20  S   UNL     1      -7.535   1.542   0.043  0.00  0.00    -0.080 S 
ENDBRANCH  14  18
ENDBRANCH  13  14
ENDBRANCH   7  13
ENDBRANCH   5  12
ENDBRANCH   1   6
BRANCH   3  21
ATOM     21  C   UNL     1       1.198  -2.127  -0.021  0.00  0.00    +0.170 C 
BRANCH  21  22
ATOM     22  C   UNL     1       2.498  -2.615   0.565  0.00  0.00    -0.017 A 
ATOM     23  C   UNL     1       3.680  -1.966   0.259  0.00  0.00    +0.006 A 
ATOM     24  C   UNL     1       4.873  -2.409   0.799  0.00  0.00    +0.003 A 
ATOM     25  C   UNL     1       4.886  -3.509   1.637  0.00  0.00    +0.038 A 
ATOM     26  C   UNL     1       3.704  -4.162   1.939  0.00  0.00    +0.124 A 
ATOM     27  C   UNL     1       2.509  -3.714   1.402  0.00  0.00    +0.044 A 
ATOM     28  F   UNL     1       3.716  -5.237   2.758  0.00  0.00    -0.205 F 
ENDBRANCH  21  22
BRANCH  21  29
ATOM     29  C   UNL     1       1.068  -2.623  -1.438  0.00  0.00    +0.134 A 
ATOM     30  N   UNL     1       1.715  -2.156  -2.470  0.00  0.00    -0.238 NA
ATOM     31  C   UNL     1       1.349  -2.836  -3.567  0.00  0.00    +0.130 A 
ATOM     32  C   UNL     1       0.440  -3.760  -3.200  0.00  0.00    +0.106 A 
ATOM     33  N   UNL     1       0.266  -3.629  -1.849  0.00  0.00    -0.336 N 
ATOM     34  C   UNL     1      -0.626  -4.429  -1.006  0.00  0.00    +0.150 C 
ENDBRANCH  21  29
ENDBRANCH   3  21
TORSDOF 8
