REMARK  Name = ZINC46848098
REMARK  5 active torsions:
REMARK  status: ('A' for Active; 'I' for Inactive)
REMARK    1  A    between atoms: C_1  and  C_2
REMARK    2  A    between atoms: C_4  and  C_32
REMARK    3  A    between atoms: C_6  and  C_29
REMARK    4  A    between atoms: C_10  and  C_11
REMARK    5  A    between atoms: C_19  and  C_21
REMARK                            x       y       z     vdW  Elec       q    Type
REMARK                         _______ _______ _______ _____ _____    ______ ____
ROOT
ATOM      1  C   UNL     1       3.796  -0.587   0.751  0.00  0.00    +0.254 C 
ATOM      2  O   UNL     1       4.020   0.592   0.947  0.00  0.00    -0.269 OA
ATOM      3  N   UNL     1       4.486  -1.526   1.428  0.00  0.00    -0.294 N 
ATOM      4  C   UNL     1       4.168  -2.952   1.262  0.00  0.00    +0.127 C 
ATOM      5  C   UNL     1       5.446  -3.693   0.848  0.00  0.00    +0.127 C 
ATOM      6  N   UNL     1       6.529  -3.310   1.765  0.00  0.00    -0.294 N 
ATOM      7  C   UNL     1       6.846  -1.885   1.931  0.00  0.00    +0.127 C 
ATOM      8  C   UNL     1       5.572  -1.144   2.340  0.00  0.00    +0.127 C 
ATOM      9  C   UNL     1       7.218  -4.250   2.442  0.00  0.00    +0.250 C 
ATOM     10  O   UNL     1       6.921  -5.423   2.327  0.00  0.00    -0.270 OA
ENDROOT
BRANCH   1  20
ATOM     11  C   UNL     1       3.558   0.458  -2.088  0.00  0.00    +0.046 C 
ATOM     12  C   UNL     1       2.611  -0.560  -1.506  0.00  0.00    -0.020 A 
ATOM     13  C   UNL     1       1.563  -1.073  -2.287  0.00  0.00    +0.032 A 
ATOM     14  C   UNL     1       1.215  -0.777  -3.629  0.00  0.00    +0.050 A 
ATOM     15  N   UNL     1       0.181  -1.380  -4.174  0.00  0.00    -0.236 NA
ATOM     16  C   UNL     1      -0.554  -2.260  -3.516  0.00  0.00    +0.134 A 
ATOM     17  N   UNL     1      -0.286  -2.581  -2.265  0.00  0.00    -0.225 NA
ATOM     18  C   UNL     1       0.731  -2.026  -1.643  0.00  0.00    +0.113 A 
ATOM     19  S   UNL     1       1.436  -2.152  -0.020  0.00  0.00    -0.064 S 
ATOM     20  C   UNL     1       2.773  -0.988  -0.226  0.00  0.00    +0.080 A 
ATOM     21  C   UNL     1       2.021   0.218  -4.422  0.00  0.00    +0.066 C 
BRANCH  16  22
ATOM     22  C   UNL     1      -1.724  -2.909  -4.210  0.00  0.00    +0.057 C 
ATOM     23  C   UNL     1      -2.666  -3.763  -3.358  0.00  0.00    +0.012 C 
ATOM     24  C   UNL     1      -1.708  -4.433  -4.346  0.00  0.00    +0.012 C 
ENDBRANCH  16  22
ENDBRANCH   1  20
BRANCH   9  25
ATOM     25  C   UNL     1       8.335  -3.854   3.324  0.00  0.00    +0.073 A 
ATOM     26  C   UNL     1       9.379  -3.071   2.826  0.00  0.00    +0.036 A 
ATOM     27  C   UNL     1      10.419  -2.704   3.655  0.00  0.00    +0.042 A 
ATOM     28  C   UNL     1      10.430  -3.110   4.980  0.00  0.00    +0.023 A 
ATOM     29  C   UNL     1       9.401  -3.885   5.481  0.00  0.00    +0.040 A 
ATOM     30  C   UNL     1       8.350  -4.256   4.663  0.00  0.00    +0.136 A 
ATOM     31  F   UNL     1       7.341  -5.009   5.155  0.00  0.00    -0.205 F 
ATOM     32 CL   UNL     1      11.717  -1.731   3.037  0.00  0.00    -0.084 Cl
ENDBRANCH   9  25
TORSDOF 3
