REMARK  Name = ZINC40366101
REMARK  6 active torsions:
REMARK  status: ('A' for Active; 'I' for Inactive)
REMARK    1  A    between atoms: C_1  and  C_2
REMARK    2  A    between atoms: C_2  and  C_3
REMARK    3  A    between atoms: C_3  and  C_4
REMARK    4  A    between atoms: C_3  and  C_6
REMARK    5  A    between atoms: C_3  and  N_8
REMARK    6  A    between atoms: C_4  and  C_5
REMARK                            x       y       z     vdW  Elec       q    Type
REMARK                         _______ _______ _______ _____ _____    ______ ____
ROOT
ATOM      1  N   UNL     1       0.738  -1.962  -1.265  0.00  0.00    -0.222 N 
ATOM      2  C   UNL     1       0.190  -2.699  -0.292  0.00  0.00    +0.224 C 
ATOM      3  O   UNL     1      -0.375  -2.260   0.688  0.00  0.00    -0.275 OA
ATOM      4  C   UNL     1       0.385  -4.165  -0.607  0.00  0.00    +0.112 C 
ATOM      5  C   UNL     1       1.149  -4.152  -1.950  0.00  0.00    +0.056 C 
ATOM      6  C   UNL     1       1.301  -2.673  -2.248  0.00  0.00    +0.230 C 
ATOM      7  O   UNL     1       1.850  -2.207  -3.224  0.00  0.00    -0.275 OA
ATOM      8  C   UNL     1       0.218  -4.758  -3.025  0.00  0.00    +0.016 C 
ATOM      9  C   UNL     1       0.649  -4.258  -4.376  0.00  0.00    +0.001 C 
ATOM     10  C   UNL     1       1.620  -5.223  -5.084  0.00  0.00    +0.000 C 
ATOM     11  C   UNL     1       2.681  -5.807  -4.133  0.00  0.00    +0.000 C 
ATOM     12  C   UNL     1       3.227  -4.776  -3.183  0.00  0.00    +0.001 C 
ATOM     13  C   UNL     1       2.425  -4.850  -1.869  0.00  0.00    +0.016 C 
ENDROOT
BRANCH   1  14
ATOM     14  C   UNL     1       0.718  -0.497  -1.257  0.00  0.00    +0.130 C 
BRANCH  14  16
ATOM     15  C   UNL     1      -0.019   1.526   0.010  0.00  0.00    +0.007 C 
ATOM     16  C   UNL     1       0.002  -0.004   0.002  0.00  0.00    +0.038 C 
ENDBRANCH  14  16
BRANCH  14  17
ATOM     17  C   UNL     1      -0.022   0.009  -2.496  0.00  0.00    +0.038 C 
ATOM     18  C   UNL     1      -1.457  -0.520  -2.486  0.00  0.00    +0.007 C 
ENDBRANCH  14  17
BRANCH  14  19
ATOM     19  C   UNL     1       2.099   0.012  -1.267  0.00  0.00    +0.089 C 
ATOM     20  N   UNL     1       3.165   0.405  -1.275  0.00  0.00    -0.194 NA
ENDBRANCH  14  19
ENDBRANCH   1  14
TORSDOF 4
