REMARK  Name = ZINC64774688
REMARK  10 active torsions:
REMARK  status: ('A' for Active; 'I' for Inactive)
REMARK    1  A    between atoms: C_1  and  C_2
REMARK    2  A    between atoms: C_2  and  C_3
REMARK    3  A    between atoms: C_8  and  N_9
REMARK    4  A    between atoms: C_10  and  C_12
REMARK    5  A    between atoms: C_12  and  C_14
REMARK    6  A    between atoms: C_12  and  S_15
REMARK    7  A    between atoms: S_15  and  C_16
REMARK    8  A    between atoms: C_20  and  C_23
REMARK    9  A    between atoms: C_28  and  N_29
REMARK   10  A    between atoms: C_30  and  C_32
REMARK                            x       y       z     vdW  Elec       q    Type
REMARK                         _______ _______ _______ _____ _____    ______ ____
ROOT
ATOM      1  C   UNL     1      -5.660   0.789   5.555  0.00  0.00    +0.213 A 
ATOM      2  N   UNL     1      -6.377   1.270   6.564  0.00  0.00    -0.180 NA
ATOM      3  C   UNL     1      -7.678   1.476   6.401  0.00  0.00    +0.300 A 
ATOM      4  O   UNL     1      -8.433   1.966   7.413  0.00  0.00    -0.263 OA
ATOM      5  C   UNL     1      -8.255   1.174   5.154  0.00  0.00    +0.161 A 
ATOM      6  N   UNL     1      -7.483   0.695   4.186  0.00  0.00    -0.141 NA
ATOM      7  N   UNL     1      -6.224   0.515   4.384  0.00  0.00    -0.122 NA
ENDROOT
BRANCH   5   8
ATOM      8  C   UNL     1      -9.704   1.386   4.926  0.00  0.00    +0.029 A 
ATOM      9  C   UNL     1     -10.634   0.924   5.854  0.00  0.00    +0.012 A 
ATOM     10  C   UNL     1     -11.982   1.125   5.636  0.00  0.00    +0.001 A 
ATOM     11  C   UNL     1     -12.415   1.783   4.498  0.00  0.00    +0.002 A 
ATOM     12  C   UNL     1     -11.502   2.245   3.570  0.00  0.00    +0.024 A 
ATOM     13  C   UNL     1     -10.143   2.058   3.778  0.00  0.00    +0.043 A 
BRANCH  13  14
ATOM     14  N   UNL     1      -9.218   2.530   2.844  0.00  0.00    -0.285 N 
ATOM     15  C   UNL     1      -9.563   2.629   1.545  0.00  0.00    +0.214 C 
ATOM     16  O   UNL     1     -10.701   2.389   1.199  0.00  0.00    -0.276 OA
ATOM     17  C   UNL     1      -8.536   3.039   0.521  0.00  0.00    +0.109 C 
ATOM     18  H   UNL     1      -8.328   2.787   3.130  0.00  0.00    +0.155 HD
ENDBRANCH  13  14
ENDBRANCH   5   8
BRANCH   1  19
ATOM     19  S   UNL     1      -3.933   0.515   5.770  0.00  0.00    -0.072 S 
BRANCH  19  20
ATOM     20  C   UNL     1      -3.387  -0.131   4.165  0.00  0.00    +0.137 C 
ATOM     21  C   UNL     1      -4.048  -1.488   3.911  0.00  0.00    +0.029 C 
BRANCH  20  23
ATOM     22  N   UNL     1      -1.202  -0.267   3.013  0.00  0.00    -0.284 N 
ATOM     23  C   UNL     1      -1.889  -0.295   4.173  0.00  0.00    +0.230 C 
ATOM     24  O   UNL     1      -1.302  -0.453   5.222  0.00  0.00    -0.274 OA
ATOM     25  H   UNL     1      -1.663  -0.075   2.182  0.00  0.00    +0.155 HD
BRANCH  22  31
ATOM     26  C   UNL     1       0.780  -1.065   1.887  0.00  0.00    -0.026 A 
ATOM     27  C   UNL     1       2.140  -1.303   1.885  0.00  0.00    +0.005 A 
ATOM     28  C   UNL     1       2.899  -1.002   3.000  0.00  0.00    +0.000 A 
ATOM     29  C   UNL     1       2.298  -0.459   4.122  0.00  0.00    +0.002 A 
ATOM     30  C   UNL     1       0.939  -0.218   4.131  0.00  0.00    +0.023 A 
ATOM     31  C   UNL     1       0.175  -0.516   3.010  0.00  0.00    +0.037 A 
BRANCH  26  33
ATOM     32  C   UNL     1      -0.192  -0.144  -0.201  0.00  0.00    +0.009 C 
ATOM     33  C   UNL     1      -0.046  -1.394   0.670  0.00  0.00    +0.033 C 
ENDBRANCH  26  33
ENDBRANCH  22  31
ENDBRANCH  20  23
ENDBRANCH  19  20
ENDBRANCH   1  19
TORSDOF 7
