REMARK  Name = ZINC17306030
REMARK  9 active torsions:
REMARK  status: ('A' for Active; 'I' for Inactive)
REMARK    1  A    between atoms: C_1  and  C_2
REMARK    2  A    between atoms: C_2  and  C_4
REMARK    3  A    between atoms: C_2  and  N_47
REMARK    4  A    between atoms: C_7  and  N_10
REMARK    5  A    between atoms: C_15  and  N_47
REMARK    6  A    between atoms: C_16  and  C_17
REMARK    7  A    between atoms: C_16  and  N_47
REMARK    8  A    between atoms: N_19  and  C_20
REMARK    9  A    between atoms: C_21  and  C_25
REMARK                            x       y       z     vdW  Elec       q    Type
REMARK                         _______ _______ _______ _____ _____    ______ ____
ROOT
ATOM      1  C   UNL     1      -1.963   0.803   1.289  0.00  0.00    -0.095 C 
ATOM      2  N   UNL     1      -0.677   1.532   1.292  0.00  0.00    +0.388 N 
ATOM      3  H   UNL     1      -0.859   2.527   1.469  0.00  0.00    -0.081 HD
ENDROOT
BRANCH   2   5
ATOM      4  C   UNL     1      -0.498   1.192   3.710  0.00  0.00    -0.008 C 
ATOM      5  C   UNL     1       0.199   1.007   2.361  0.00  0.00    -0.041 C 
BRANCH   5   6
ATOM      6  C   UNL     1       1.494   1.777   2.354  0.00  0.00    -0.061 A 
ATOM      7  C   UNL     1       1.477   3.155   2.242  0.00  0.00    +0.004 A 
ATOM      8  C   UNL     1       2.662   3.865   2.242  0.00  0.00    +0.028 A 
ATOM      9  C   UNL     1       3.872   3.191   2.343  0.00  0.00    +0.067 A 
ATOM     10  C   UNL     1       3.886   1.807   2.450  0.00  0.00    +0.028 A 
ATOM     11  C   UNL     1       2.698   1.104   2.456  0.00  0.00    +0.004 A 
BRANCH   9  12
ATOM     12  N   UNL     1       5.077   3.908   2.337  0.00  0.00    -0.220 N 
ATOM     13  C   UNL     1       5.222   5.244   2.235  0.00  0.00    +0.225 A 
ATOM     14  N   UNL     1       6.501   5.516   2.271  0.00  0.00    -0.222 NA
ATOM     15  C   UNL     1       7.201   4.388   2.386  0.00  0.00    +0.245 A 
ATOM     16  N   UNL     1       6.373   3.376   2.431  0.00  0.00    -0.154 NA
ENDBRANCH   9  12
ENDBRANCH   5   6
ENDBRANCH   2   5
BRANCH   2  17
ATOM     17  C   UNL     1      -0.013   1.391  -0.020  0.00  0.00    +0.019 C 
BRANCH  17  18
ATOM     18  C   UNL     1      -0.823   2.128  -1.056  0.00  0.00    +0.201 C 
ATOM     19  O   UNL     1      -1.848   2.692  -0.737  0.00  0.00    -0.278 OA
ATOM     20  N   UNL     1      -0.407   2.160  -2.338  0.00  0.00    -0.281 N 
ATOM     21  H   UNL     1       0.413   1.710  -2.594  0.00  0.00    +0.155 HD
BRANCH  20  22
ATOM     22  C   UNL     1      -1.152   2.838  -3.291  0.00  0.00    +0.084 A 
ATOM     23  C   UNL     1      -0.888   2.988  -4.647  0.00  0.00    +0.065 A 
ATOM     24  C   UNL     1      -1.844   3.749  -5.415  0.00  0.00    +0.022 A 
ATOM     25  C   UNL     1      -2.900   4.255  -4.753  0.00  0.00    +0.048 A 
ATOM     26  S   UNL     1      -2.633   3.710  -3.079  0.00  0.00    -0.081 S 
BRANCH  23  27
ATOM     27  C   UNL     1       0.303   2.398  -5.269  0.00  0.00    +0.244 C 
ATOM     28  O   UNL     1       1.088   1.760  -4.593  0.00  0.00    -0.270 OA
ATOM     29  N   UNL     1       0.527   2.564  -6.587  0.00  0.00    -0.325 N 
ATOM     30  H   UNL     1      -0.100   3.073  -7.125  0.00  0.00    +0.145 HD
ATOM     31  H   UNL     1       1.314   2.174  -6.998  0.00  0.00    +0.145 HD
ENDBRANCH  23  27
ENDBRANCH  20  22
ENDBRANCH  17  18
ENDBRANCH   2  17
TORSDOF 7
