REMARK  Name = ZINC01214899
REMARK  4 active torsions:
REMARK  status: ('A' for Active; 'I' for Inactive)
REMARK    1  A    between atoms: C_4  and  N_7
REMARK    2  A    between atoms: C_8  and  C_10
REMARK    3  A    between atoms: C_14  and  S_16
REMARK    4  A    between atoms: S_16  and  N_19
REMARK                            x       y       z     vdW  Elec       q    Type
REMARK                         _______ _______ _______ _____ _____    ______ ____
ROOT
ATOM      1  C   UNL     1       4.936  -2.706   0.153  0.00  0.00    +0.039 A 
ATOM      2  C   UNL     1       6.133  -1.989   0.150  0.00  0.00    +0.014 A 
ATOM      3  C   UNL     1       7.335  -2.659   0.239  0.00  0.00    +0.018 A 
ATOM      4  C   UNL     1       7.356  -4.040   0.330  0.00  0.00    +0.045 A 
ATOM      5  C   UNL     1       6.172  -4.758   0.333  0.00  0.00    +0.127 A 
ATOM      6  C   UNL     1       4.963  -4.099   0.251  0.00  0.00    +0.043 A 
ATOM      7 BR   UNL     1       9.009  -4.952   0.451  0.00  0.00    -0.048 Br
ENDROOT
BRANCH   1   9
ATOM      8  N   UNL     1       3.621  -0.650  -0.036  0.00  0.00    -0.282 N 
ATOM      9  C   UNL     1       3.644  -1.994   0.058  0.00  0.00    +0.248 C 
ATOM     10  O   UNL     1       2.603  -2.621   0.065  0.00  0.00    -0.270 OA
ATOM     11  H   UNL     1       4.451  -0.155  -0.119  0.00  0.00    +0.155 HD
BRANCH   8  15
ATOM     12  C   UNL     1      -0.015   1.380   0.029  0.00  0.00    +0.000 A 
ATOM     13  C   UNL     1       0.140   0.219   0.764  0.00  0.00    +0.002 A 
ATOM     14  C   UNL     1       1.344  -0.457   0.744  0.00  0.00    +0.023 A 
ATOM     15  C   UNL     1       2.400   0.031  -0.015  0.00  0.00    +0.034 A 
ATOM     16  C   UNL     1       2.241   1.198  -0.751  0.00  0.00    +0.023 A 
ATOM     17  C   UNL     1       1.034   1.869  -0.727  0.00  0.00    +0.002 A 
ENDBRANCH   8  15
ENDBRANCH   1   9
BRANCH   5  18
ATOM     18  S   UNL     1       6.209  -6.515   0.449  0.00  0.00    +0.102 S 
ATOM     19  O   UNL     1       7.074  -6.833   1.530  0.00  0.00    -0.146 OA
ATOM     20  O   UNL     1       4.858  -6.954   0.400  0.00  0.00    -0.146 OA
BRANCH  18  21
ATOM     21  N   UNL     1       6.940  -7.081  -0.925  0.00  0.00    -0.111 NA
ATOM     22  C   UNL     1       7.100  -8.377  -1.100  0.00  0.00    +0.153 A 
ATOM     23  C   UNL     1       7.729  -8.865  -2.270  0.00  0.00    +0.048 A 
ATOM     24  C   UNL     1       7.884 -10.205  -2.431  0.00  0.00    +0.005 A 
ATOM     25  C   UNL     1       7.419 -11.084  -1.438  0.00  0.00    +0.018 A 
ATOM     26  C   UNL     1       6.821 -10.604  -0.328  0.00  0.00    +0.084 A 
ATOM     27  N   UNL     1       6.661  -9.262  -0.146  0.00  0.00    -0.345 N 
ATOM     28  H   UNL     1       6.233  -8.932   0.659  0.00  0.00    +0.167 HD
ENDBRANCH  18  21
ENDBRANCH   5  18
TORSDOF 4
