REMARK  Name = ZINC20183222
REMARK  9 active torsions:
REMARK  status: ('A' for Active; 'I' for Inactive)
REMARK    1  A    between atoms: C_1  and  C_2
REMARK    2  A    between atoms: C_4  and  N_26
REMARK    3  A    between atoms: C_9  and  N_12
REMARK    4  A    between atoms: N_12  and  C_13
REMARK    5  A    between atoms: C_13  and  N_15
REMARK    6  A    between atoms: N_15  and  C_16
REMARK    7  A    between atoms: C_16  and  C_17
REMARK    8  A    between atoms: C_22  and  O_23
REMARK    9  A    between atoms: O_23  and  C_24
REMARK                            x       y       z     vdW  Elec       q    Type
REMARK                         _______ _______ _______ _____ _____    ______ ____
ROOT
ATOM      1  C   UNL     1       7.107   5.359  -7.307  0.00  0.00    +0.044 C 
ATOM      2  C   UNL     1       7.924   5.962  -6.194  0.00  0.00    -0.038 A 
ATOM      3  C   UNL     1       9.120   6.562  -6.451  0.00  0.00    +0.045 A 
ATOM      4  C   UNL     1       9.863   7.116  -5.400  0.00  0.00    +0.100 A 
ATOM      5  N   UNL     1       9.435   7.073  -4.155  0.00  0.00    -0.343 N 
ATOM      6  C   UNL     1       8.269   6.497  -3.841  0.00  0.00    +0.048 A 
ATOM      7  C   UNL     1       7.471   5.919  -4.859  0.00  0.00    +0.003 A 
ATOM      8  C   UNL     1       6.252   5.311  -4.525  0.00  0.00    +0.033 A 
ATOM      9  C   UNL     1       5.840   5.294  -3.211  0.00  0.00    +0.033 A 
ATOM     10  C   UNL     1       6.632   5.867  -2.210  0.00  0.00    +0.025 A 
ATOM     11  C   UNL     1       7.820   6.457  -2.510  0.00  0.00    +0.028 A 
ATOM     12  H   UNL     1      10.040   7.516  -3.350  0.00  0.00    +0.167 HD
ENDROOT
BRANCH   4  13
ATOM     13  N   UNL     1      11.080   7.724  -5.677  0.00  0.00    -0.312 N 
ATOM     14  C   UNL     1      11.986   6.798  -6.372  0.00  0.00    +0.134 C 
ATOM     15  C   UNL     1      13.289   7.525  -6.710  0.00  0.00    +0.178 C 
ATOM     16  O   UNL     1      13.865   8.046  -5.509  0.00  0.00    -0.377 OA
ATOM     17  C   UNL     1      13.010   8.953  -4.808  0.00  0.00    +0.178 C 
ATOM     18  C   UNL     1      11.703   8.240  -4.449  0.00  0.00    +0.134 C 
ENDBRANCH   4  13
BRANCH   9  19
ATOM     19  N   UNL     1       4.622   4.694  -2.873  0.00  0.00    -0.297 N 
ATOM     20  H   UNL     1       4.551   4.060  -1.976  0.00  0.00    +0.154 HD
BRANCH  19  21
ATOM     21  C   UNL     1       3.535   4.891  -3.646  0.00  0.00    +0.135 C 
ATOM     22  S   UNL     1       3.607   5.988  -4.958  0.00  0.00    -0.019 S 
BRANCH  21  23
ATOM     23  N   UNL     1       2.393   4.226  -3.385  0.00  0.00    -0.322 N 
ATOM     24  H   UNL     1       2.347   3.521  -2.541  0.00  0.00    +0.148 HD
BRANCH  23  25
ATOM     25  C   UNL     1       1.212   4.440  -4.225  0.00  0.00    +0.142 C 
BRANCH  25  26
ATOM     26  C   UNL     1       0.077   3.584  -3.726  0.00  0.00    +0.012 A 
ATOM     27  C   UNL     1      -0.218   2.391  -4.357  0.00  0.00    +0.024 A 
ATOM     28  C   UNL     1      -1.259   1.604  -3.899  0.00  0.00    +0.018 A 
ATOM     29  C   UNL     1      -2.003   2.006  -2.804  0.00  0.00    +0.019 A 
ATOM     30  C   UNL     1      -1.714   3.201  -2.173  0.00  0.00    +0.047 A 
ATOM     31  C   UNL     1      -0.670   3.992  -2.631  0.00  0.00    +0.125 A 
ATOM     32 BR   UNL     1      -1.661  -0.029  -4.764  0.00  0.00    -0.050 Br
BRANCH  31  33
ATOM     33  O   UNL     1      -0.381   5.164  -2.008  0.00  0.00    -0.495 OA
ATOM     34  C   UNL     1      -1.192   5.521  -0.887  0.00  0.00    +0.277 C 
ENDBRANCH  31  33
ENDBRANCH  25  26
ENDBRANCH  23  25
ENDBRANCH  21  23
ENDBRANCH  19  21
ENDBRANCH   9  19
TORSDOF 7
