REMARK  Name = ZINC20192029
REMARK  3 active torsions:
REMARK  status: ('A' for Active; 'I' for Inactive)
REMARK    1  A    between atoms: C_4  and  N_7
REMARK    2  A    between atoms: C_9  and  C_21
REMARK    3  A    between atoms: N_12  and  C_15
REMARK                            x       y       z     vdW  Elec       q    Type
REMARK                         _______ _______ _______ _____ _____    ______ ____
ROOT
ATOM      1  N   UNL     1      -1.887   3.617  -2.695  0.00  0.00    -0.228 N 
ATOM      2  C   UNL     1      -1.413   3.428  -1.420  0.00  0.00    +0.267 A 
ATOM      3  C   UNL     1      -0.936   2.204  -1.056  0.00  0.00    +0.073 A 
ATOM      4  C   UNL     1      -0.937   1.162  -2.001  0.00  0.00    +0.267 A 
ATOM      5  O   UNL     1      -0.511   0.061  -1.700  0.00  0.00    -0.267 OA
ATOM      6  N   UNL     1      -1.416   1.389  -3.240  0.00  0.00    -0.228 N 
ATOM      7  C   UNL     1      -1.883   2.604  -3.581  0.00  0.00    +0.344 A 
ATOM      8  O   UNL     1      -2.306   2.789  -4.705  0.00  0.00    -0.245 OA
ATOM      9  O   UNL     1      -1.419   4.447  -0.534  0.00  0.00    -0.267 OA
ENDROOT
BRANCH   3  10
ATOM     10  C   UNL     1      -0.411   1.971   0.337  0.00  0.00    +0.001 C 
ATOM     11  C   UNL     1       1.067   1.692   0.271  0.00  0.00    -0.054 A 
ATOM     12  C   UNL     1       1.847   2.460  -0.581  0.00  0.00    +0.002 A 
ATOM     13  C   UNL     1       3.207   2.240  -0.671  0.00  0.00    +0.000 A 
ATOM     14  C   UNL     1       3.796   1.250   0.093  0.00  0.00    +0.000 A 
ATOM     15  C   UNL     1       3.022   0.483   0.940  0.00  0.00    +0.004 A 
ATOM     16  C   UNL     1       1.655   0.702   1.029  0.00  0.00    -0.047 A 
ATOM     17  C   UNL     1       0.849  -0.162   1.964  0.00  0.00    +0.016 C 
ATOM     18  C   UNL     1      -0.511   0.484   2.231  0.00  0.00    -0.077 C 
ATOM     19  N   UNL     1      -1.121   0.839   0.940  0.00  0.00    +0.387 N 
ATOM     20  H   UNL     1      -2.175   1.111   1.102  0.00  0.00    -0.085 HD
ATOM     21  H   UNL     1      -1.067  -0.029   0.266  0.00  0.00    -0.085 HD
ENDBRANCH   3  10
BRANCH   1  25
ATOM     22  C   UNL     1      -3.349   7.352  -3.829  0.00  0.00    +0.000 A 
ATOM     23  C   UNL     1      -4.214   6.394  -3.334  0.00  0.00    +0.002 A 
ATOM     24  C   UNL     1      -3.733   5.155  -2.957  0.00  0.00    +0.026 A 
ATOM     25  C   UNL     1      -2.378   4.873  -3.076  0.00  0.00    +0.054 A 
ATOM     26  C   UNL     1      -1.511   5.839  -3.568  0.00  0.00    +0.026 A 
ATOM     27  C   UNL     1      -2.000   7.074  -3.949  0.00  0.00    +0.002 A 
ENDBRANCH   1  25
BRANCH   6  28
ATOM     28  C   UNL     1      -1.424   0.352  -4.183  0.00  0.00    +0.054 A 
ATOM     29  C   UNL     1      -2.512  -0.506  -4.264  0.00  0.00    +0.026 A 
ATOM     30  C   UNL     1      -2.519  -1.524  -5.198  0.00  0.00    +0.002 A 
ATOM     31  C   UNL     1      -1.439  -1.695  -6.044  0.00  0.00    +0.000 A 
ATOM     32  C   UNL     1      -0.351  -0.846  -5.961  0.00  0.00    +0.002 A 
ATOM     33  C   UNL     1      -0.341   0.177  -5.034  0.00  0.00    +0.026 A 
ENDBRANCH   6  28
TORSDOF 3
