REMARK  Name = ZINC36520837
REMARK  18 active torsions:
REMARK  status: ('A' for Active; 'I' for Inactive)
REMARK    1  A    between atoms: C_1  and  C_2
REMARK    2  A    between atoms: C_2  and  C_3
REMARK    3  A    between atoms: C_3  and  C_4
REMARK    4  A    between atoms: C_4  and  C_5
REMARK    5  A    between atoms: C_5  and  C_6
REMARK    6  A    between atoms: C_6  and  N_7
REMARK    7  A    between atoms: N_7  and  C_8
REMARK    8  A    between atoms: C_8  and  C_10
REMARK    9  A    between atoms: C_8  and  C_18
REMARK   10  A    between atoms: C_13  and  C_17
REMARK   11  A    between atoms: C_15  and  C_16
REMARK   12  A    between atoms: N_20  and  C_21
REMARK   13  A    between atoms: C_21  and  C_22
REMARK   14  A    between atoms: C_22  and  C_23
REMARK   15  A    between atoms: C_23  and  C_24
REMARK   16  A    between atoms: C_25  and  C_27
REMARK   17  A    between atoms: C_27  and  O_28
REMARK   18  A    between atoms: O_28  and  C_29
REMARK                            x       y       z     vdW  Elec       q    Type
REMARK                         _______ _______ _______ _____ _____    ______ ____
ROOT
ATOM      1  C   UNL     1       3.612  -4.573  -3.488  0.00  0.00    +0.192 C 
ENDROOT
BRANCH   1   2
ATOM      2  C   UNL     1       4.242  -3.794  -4.613  0.00  0.00    -0.015 A 
ATOM      3  C   UNL     1       3.465  -3.349  -5.666  0.00  0.00    +0.006 A 
ATOM      4  C   UNL     1       4.043  -2.635  -6.699  0.00  0.00    +0.004 A 
ATOM      5  C   UNL     1       5.398  -2.364  -6.678  0.00  0.00    -0.050 A 
ATOM      6  C   UNL     1       6.176  -2.807  -5.624  0.00  0.00    +0.007 A 
ATOM      7  C   UNL     1       5.597  -3.518  -4.590  0.00  0.00    -0.045 A 
ATOM      8  C   UNL     1       6.443  -3.997  -3.438  0.00  0.00    +0.044 C 
ATOM      9  C   UNL     1       6.029  -1.585  -7.804  0.00  0.00    +0.044 C 
ENDBRANCH   1   2
BRANCH   1  10
ATOM     10  C   UNL     1       3.643  -6.043  -3.816  0.00  0.00    +0.238 C 
ATOM     11  O   UNL     1       2.609  -6.676  -3.865  0.00  0.00    -0.273 OA
ATOM     12  N   UNL     1       4.820  -6.656  -4.055  0.00  0.00    -0.313 N 
ATOM     13  H   UNL     1       5.651  -6.170  -3.942  0.00  0.00    +0.149 HD
BRANCH  12  14
ATOM     14  C   UNL     1       4.842  -8.056  -4.486  0.00  0.00    +0.104 C 
BRANCH  14  15
ATOM     15  C   UNL     1       6.291  -8.505  -4.686  0.00  0.00    +0.018 C 
BRANCH  15  16
ATOM     16  C   UNL     1       6.315  -9.967  -5.136  0.00  0.00    -0.002 C 
ATOM     17  C   UNL     1       7.764 -10.415  -5.337  0.00  0.00    +0.004 C 
ENDBRANCH  15  16
ENDBRANCH  14  15
ENDBRANCH  12  14
ENDBRANCH   1  10
BRANCH   1  18
ATOM     18  N   UNL     1       2.223  -4.141  -3.312  0.00  0.00    -0.284 N 
ATOM     19  C   UNL     1       1.302  -4.438  -4.250  0.00  0.00    +0.242 C 
ATOM     20  O   UNL     1       1.596  -5.154  -5.184  0.00  0.00    -0.273 OA
BRANCH  18  21
ATOM     21  C   UNL     1       1.837  -3.386  -2.118  0.00  0.00    +0.109 C 
BRANCH  21  22
ATOM     22  C   UNL     1       2.000  -1.889  -2.386  0.00  0.00    +0.019 C 
BRANCH  22  23
ATOM     23  C   UNL     1       1.595  -1.100  -1.139  0.00  0.00    +0.002 C 
BRANCH  23  24
ATOM     24  C   UNL     1       1.758   0.397  -1.407  0.00  0.00    -0.000 C 
BRANCH  24  26
ATOM     25  C   UNL     1       1.517   2.683  -0.427  0.00  0.00    +0.004 C 
ATOM     26  C   UNL     1       1.354   1.186  -0.159  0.00  0.00    -0.003 C 
ENDBRANCH  24  26
ENDBRANCH  23  24
ENDBRANCH  22  23
ENDBRANCH  21  22
ENDBRANCH  18  21
BRANCH  19  27
ATOM     27  C   UNL     1      -0.094  -3.881  -4.137  0.00  0.00    +0.255 C 
BRANCH  27  28
ATOM     28  O   UNL     1      -0.879  -4.335  -5.242  0.00  0.00    -0.374 OA
ATOM     29  C   UNL     1      -2.227  -3.861  -5.231  0.00  0.00    +0.194 C 
ENDBRANCH  27  28
ENDBRANCH  19  27
ENDBRANCH   1  18
TORSDOF 13
