REMARK  Name = ZINC65748343
REMARK  6 active torsions:
REMARK  status: ('A' for Active; 'I' for Inactive)
REMARK    1  A    between atoms: C_8  and  O_19
REMARK    2  A    between atoms: O_19  and  C_20
REMARK    3  A    between atoms: C_22  and  O_36
REMARK    4  A    between atoms: C_24  and  O_35
REMARK    5  A    between atoms: C_26  and  O_34
REMARK    6  A    between atoms: C_28  and  C_31
REMARK                            x       y       z     vdW  Elec       q    Type
REMARK                         _______ _______ _______ _____ _____    ______ ____
ROOT
ATOM      1  C   UNL     1      -0.016   1.310   0.009  0.00  0.00    +0.001 A 
ATOM      2  C   UNL     1       1.250   2.063   0.001  0.00  0.00    +0.002 A 
ATOM      3  C   UNL     1       2.396   1.417  -0.003  0.00  0.00    +0.024 A 
ATOM      4  C   UNL     1       2.416  -0.058   0.001  0.00  0.00    +0.050 A 
ATOM      5  C   UNL     1       1.287  -0.730  -0.014  0.00  0.00    +0.000 A 
ATOM      6  C   UNL     1       0.002  -0.004   0.002  0.00  0.00    +0.010 A 
ATOM      7  C   UNL     1       1.284  -2.195  -0.084  0.00  0.00    +0.056 C 
ATOM      8  C   UNL     1       2.111  -2.978   0.529  0.00  0.00    +0.134 C 
ATOM      9  C   UNL     1       3.199  -2.540   1.411  0.00  0.00    +0.039 A 
ATOM     10  C   UNL     1       3.497  -3.314   2.632  0.00  0.00    +0.013 A 
ATOM     11  C   UNL     1       4.487  -2.954   3.418  0.00  0.00    +0.001 A 
ATOM     12  C   UNL     1       5.302  -1.774   3.081  0.00  0.00    +0.002 A 
ATOM     13  C   UNL     1       5.029  -1.077   2.000  0.00  0.00    +0.024 A 
ATOM     14  C   UNL     1       3.909  -1.474   1.124  0.00  0.00    +0.053 A 
ATOM     15  N   UNL     1       3.601  -0.703   0.058  0.00  0.00    -0.223 N 
ATOM     16  C   UNL     1       4.482  -0.577  -0.954  0.00  0.00    +0.308 C 
ATOM     17  O   UNL     1       5.547  -1.155  -0.907  0.00  0.00    -0.252 OA
ATOM     18  N   UNL     1       4.179   0.191  -2.019  0.00  0.00    -0.313 N 
ATOM     19  H   UNL     1       3.327   0.653  -2.057  0.00  0.00    +0.147 HD
ATOM     20  H   UNL     1       4.813   0.282  -2.748  0.00  0.00    +0.147 HD
ENDROOT
BRANCH   8  21
ATOM     21  O   UNL     1       1.959  -4.319   0.342  0.00  0.00    -0.460 OA
BRANCH  21  22
ATOM     22  C   UNL     1       0.897  -4.737  -0.517  0.00  0.00    +0.340 C 
ATOM     23  C   UNL     1       0.959  -6.255  -0.704  0.00  0.00    +0.214 C 
ATOM     24  C   UNL     1       0.756  -6.937   0.653  0.00  0.00    +0.180 C 
ATOM     25  C   UNL     1      -0.580  -6.479   1.247  0.00  0.00    +0.186 C 
ATOM     26  C   UNL     1      -0.582  -4.952   1.358  0.00  0.00    +0.266 C 
ATOM     27  O   UNL     1      -0.358  -4.381   0.068  0.00  0.00    -0.322 OA
BRANCH  26  28
ATOM     28  C   UNL     1      -1.915  -4.489   1.888  0.00  0.00    +0.387 C 
ATOM     29  O   UNL     1      -2.260  -4.790   3.018  0.00  0.00    -0.243 OA
ATOM     30  O   UNL     1      -2.649  -3.814   1.186  0.00  0.00    -0.243 OA
ENDBRANCH  26  28
BRANCH  25  31
ATOM     31  O   UNL     1      -1.650  -6.899   0.398  0.00  0.00    -0.386 OA
ATOM     32  H   UNL     1      -2.527  -6.642   0.715  0.00  0.00    +0.210 HD
ENDBRANCH  25  31
BRANCH  24  33
ATOM     33  O   UNL     1       0.741  -8.356   0.477  0.00  0.00    -0.386 OA
ATOM     34  H   UNL     1       0.616  -8.852   1.298  0.00  0.00    +0.210 HD
ENDBRANCH  24  33
BRANCH  23  35
ATOM     35  O   UNL     1      -0.069  -6.668  -1.606  0.00  0.00    -0.383 OA
ATOM     36  H   UNL     1      -0.004  -6.270  -2.485  0.00  0.00    +0.210 HD
ENDBRANCH  23  35
ENDBRANCH  21  22
ENDBRANCH   8  21
TORSDOF 6
