REMARK  Name = ZINC31163412
REMARK  13 active torsions:
REMARK  status: ('A' for Active; 'I' for Inactive)
REMARK    1  A    between atoms: C_1  and  C_2
REMARK    2  A    between atoms: C_2  and  C_3
REMARK    3  A    between atoms: C_3  and  C_4
REMARK    4  A    between atoms: C_3  and  C_5
REMARK    5  A    between atoms: C_3  and  N_6
REMARK    6  A    between atoms: C_7  and  C_9
REMARK    7  A    between atoms: C_9  and  C_11
REMARK    8  A    between atoms: C_9  and  N_12
REMARK    9  A    between atoms: N_12  and  C_13
REMARK   10  A    between atoms: N_12  and  C_14
REMARK   11  A    between atoms: C_14  and  C_15
REMARK   12  A    between atoms: N_17  and  C_18
REMARK   13  A    between atoms: C_22  and  C_24
REMARK                            x       y       z     vdW  Elec       q    Type
REMARK                         _______ _______ _______ _____ _____    ______ ____
ROOT
ATOM      1  C   UNL     1       1.775  -6.059  -3.553  0.00  0.00    +0.020 C 
ENDROOT
BRANCH   1   2
ATOM      2  C   UNL     1       2.234  -6.603  -4.882  0.00  0.00    +0.201 C 
ATOM      3  O   UNL     1       2.618  -5.844  -5.747  0.00  0.00    -0.278 OA
ATOM      4  N   UNL     1       2.219  -7.931  -5.108  0.00  0.00    -0.287 N 
ATOM      5  H   UNL     1       1.976  -8.542  -4.394  0.00  0.00    +0.155 HD
BRANCH   4   6
ATOM      6  C   UNL     1       2.552  -8.429  -6.373  0.00  0.00    +0.034 A 
ATOM      7  C   UNL     1       3.544  -7.813  -7.124  0.00  0.00    +0.025 A 
ATOM      8  C   UNL     1       3.870  -8.307  -8.372  0.00  0.00    +0.022 A 
ATOM      9  C   UNL     1       3.210  -9.414  -8.874  0.00  0.00    +0.053 A 
ATOM     10  C   UNL     1       2.221 -10.030  -8.127  0.00  0.00    +0.075 A 
ATOM     11  C   UNL     1       1.895  -9.544  -6.876  0.00  0.00    +0.037 A 
ATOM     12 CL   UNL     1       3.622 -10.032 -10.443  0.00  0.00    -0.083 Cl
BRANCH  10  13
ATOM     13  C   UNL     1       1.504 -11.236  -8.677  0.00  0.00    +0.419 C 
ATOM     14  F   UNL     1       0.556 -11.679  -7.748  0.00  0.00    -0.166 F 
ATOM     15  F   UNL     1       0.861 -10.893  -9.871  0.00  0.00    -0.166 F 
ATOM     16  F   UNL     1       2.428 -12.257  -8.922  0.00  0.00    -0.166 F 
ENDBRANCH  10  13
ENDBRANCH   4   6
ENDBRANCH   1   2
BRANCH   1  17
ATOM     17  N   UNL     1       1.888  -4.595  -3.558  0.00  0.00    +0.391 N 
ATOM     18  C   UNL     1       3.302  -4.213  -3.666  0.00  0.00    -0.094 C 
ATOM     19  H   UNL     1       1.377  -4.220  -4.344  0.00  0.00    -0.080 HD
BRANCH  17  20
ATOM     20  C   UNL     1       1.329  -4.056  -2.310  0.00  0.00    +0.016 C 
ATOM     21  C   UNL     1      -0.125  -4.508  -2.166  0.00  0.00    -0.004 C 
BRANCH  20  23
ATOM     22  N   UNL     1       1.477  -1.855  -1.192  0.00  0.00    -0.312 N 
ATOM     23  C   UNL     1       1.387  -2.551  -2.342  0.00  0.00    +0.200 C 
ATOM     24  O   UNL     1       1.352  -1.965  -3.404  0.00  0.00    -0.278 OA
ATOM     25  H   UNL     1       1.506  -2.324  -0.343  0.00  0.00    +0.149 HD
BRANCH  22  26
ATOM     26  C   UNL     1       1.533  -0.392  -1.223  0.00  0.00    +0.029 C 
ATOM     27  C   UNL     1       0.267   0.153  -1.885  0.00  0.00    +0.031 C 
ATOM     28  C   UNL     1       2.759   0.055  -2.022  0.00  0.00    +0.031 C 
BRANCH  26  30
ATOM     29  C   UNL     1       1.691   1.674   0.174  0.00  0.00    +0.006 C 
ATOM     30  C   UNL     1       1.633   0.146   0.206  0.00  0.00    +0.022 C 
ENDBRANCH  26  30
ENDBRANCH  22  26
ENDBRANCH  20  23
ENDBRANCH  17  20
ENDBRANCH   1  17
TORSDOF 8
