REMARK  Name = ZINC44368681
REMARK  20 active torsions:
REMARK  status: ('A' for Active; 'I' for Inactive)
REMARK    1  A    between atoms: C_1  and  C_2
REMARK    2  A    between atoms: C_2  and  C_3
REMARK    3  A    between atoms: C_3  and  C_4
REMARK    4  A    between atoms: C_4  and  C_5
REMARK    5  A    between atoms: C_5  and  C_7
REMARK    6  A    between atoms: C_5  and  C_9
REMARK    7  A    between atoms: C_7  and  C_8
REMARK    8  A    between atoms: C_9  and  O_10
REMARK    9  A    between atoms: O_10  and  C_11
REMARK   10  A    between atoms: C_14  and  O_20
REMARK   11  A    between atoms: C_15  and  C_17
REMARK   12  A    between atoms: C_17  and  C_18
REMARK   13  A    between atoms: O_20  and  C_21
REMARK   14  A    between atoms: C_21  and  C_22
REMARK   15  A    between atoms: C_22  and  C_24
REMARK   16  A    between atoms: C_22  and  C_26
REMARK   17  A    between atoms: C_24  and  C_25
REMARK   18  A    between atoms: C_26  and  C_27
REMARK   19  A    between atoms: C_27  and  C_28
REMARK   20  A    between atoms: C_28  and  C_29
REMARK                            x       y       z     vdW  Elec       q    Type
REMARK                         _______ _______ _______ _____ _____    ______ ____
ROOT
ATOM      1  C   UNL     1       2.175  -3.369  -4.282  0.00  0.00    +0.121 A 
ATOM      2  C   UNL     1       1.473  -3.410  -3.086  0.00  0.00    +0.049 A 
ATOM      3  C   UNL     1       0.793  -4.556  -2.723  0.00  0.00    +0.049 A 
ATOM      4  C   UNL     1       0.811  -5.666  -3.555  0.00  0.00    +0.125 A 
ATOM      5  C   UNL     1       1.512  -5.624  -4.751  0.00  0.00    +0.011 A 
ATOM      6  C   UNL     1       2.188  -4.476  -5.116  0.00  0.00    +0.053 A 
ENDROOT
BRANCH   5   7
ATOM      7  C   UNL     1       1.531  -6.830  -5.655  0.00  0.00    +0.157 C 
BRANCH   7   8
ATOM      8  C   UNL     1       0.338  -6.816  -6.517  0.00  0.00    +0.067 C 
ATOM      9  N   UNL     1      -0.583  -6.805  -7.182  0.00  0.00    -0.196 NA
ENDBRANCH   7   8
ENDBRANCH   5   7
BRANCH   4  10
ATOM     10  O   UNL     1       0.141  -6.794  -3.198  0.00  0.00    -0.491 OA
BRANCH  10  11
ATOM     11  C   UNL     1      -0.559  -6.767  -1.953  0.00  0.00    +0.232 C 
BRANCH  11  12
ATOM     12  C   UNL     1      -1.245  -8.115  -1.724  0.00  0.00    +0.026 C 
BRANCH  12  13
ATOM     13  C   UNL     1      -0.185  -9.207  -1.568  0.00  0.00    +0.003 C 
ATOM     14  C   UNL     1      -0.870 -10.572  -1.475  0.00  0.00    +0.004 C 
ENDBRANCH  12  13
BRANCH  12  15
ATOM     15  C   UNL     1      -2.096  -8.045  -0.454  0.00  0.00    +0.007 C 
BRANCH  15  16
ATOM     16  C   UNL     1      -3.253  -7.067  -0.668  0.00  0.00    +0.000 C 
BRANCH  16  17
ATOM     17  C   UNL     1      -4.053  -6.931   0.629  0.00  0.00    -0.003 C 
ATOM     18  C   UNL     1      -5.210  -5.954   0.415  0.00  0.00    +0.004 C 
ENDBRANCH  16  17
ENDBRANCH  15  16
ENDBRANCH  12  15
ENDBRANCH  11  12
ENDBRANCH  10  11
ENDBRANCH   4  10
BRANCH   1  19
ATOM     19  O   UNL     1       2.845  -2.240  -4.638  0.00  0.00    -0.492 OA
BRANCH  19  20
ATOM     20  C   UNL     1       2.788  -1.138  -3.731  0.00  0.00    +0.232 C 
BRANCH  20  21
ATOM     21  C   UNL     1       3.595   0.032  -4.298  0.00  0.00    +0.026 C 
BRANCH  21  22
ATOM     22  C   UNL     1       5.074  -0.353  -4.362  0.00  0.00    +0.003 C 
ATOM     23  C   UNL     1       5.262  -1.493  -5.366  0.00  0.00    +0.004 C 
ENDBRANCH  21  22
BRANCH  21  24
ATOM     24  C   UNL     1       3.425   1.254  -3.394  0.00  0.00    +0.007 C 
BRANCH  24  25
ATOM     25  C   UNL     1       4.128   2.457  -4.026  0.00  0.00    +0.000 C 
BRANCH  25  27
ATOM     26  C   UNL     1       4.662   4.883  -3.754  0.00  0.00    +0.004 C 
ATOM     27  C   UNL     1       3.958   3.680  -3.123  0.00  0.00    -0.003 C 
ENDBRANCH  25  27
ENDBRANCH  24  25
ENDBRANCH  21  24
ENDBRANCH  20  21
ENDBRANCH  19  20
ENDBRANCH   1  19
TORSDOF 16
