REMARK  Name = ZINC01135079
REMARK  7 active torsions:
REMARK  status: ('A' for Active; 'I' for Inactive)
REMARK    1  A    between atoms: C_1  and  O_2
REMARK    2  A    between atoms: O_2  and  C_3
REMARK    3  A    between atoms: C_5  and  C_21
REMARK    4  A    between atoms: C_8  and  O_9
REMARK    5  A    between atoms: O_9  and  C_10
REMARK    6  A    between atoms: C_10  and  C_11
REMARK    7  A    between atoms: C_14  and  C_17
REMARK                            x       y       z     vdW  Elec       q    Type
REMARK                         _______ _______ _______ _____ _____    ______ ____
ROOT
ATOM      1  C   UNL     1      -0.695   3.209   1.855  0.00  0.00    +0.163 A 
ATOM      2  C   UNL     1      -0.368   3.909   0.711  0.00  0.00    +0.057 A 
ATOM      3  C   UNL     1      -0.163   5.295   0.776  0.00  0.00    -0.019 A 
ATOM      4  C   UNL     1      -0.290   5.962   2.004  0.00  0.00    +0.027 A 
ATOM      5  C   UNL     1      -0.617   5.254   3.139  0.00  0.00    +0.064 A 
ATOM      6  C   UNL     1      -0.826   3.881   3.071  0.00  0.00    +0.176 A 
ATOM      7 BR   UNL     1      -0.788   6.154   4.793  0.00  0.00    -0.046 Br
ENDROOT
BRANCH   3   8
ATOM      8  C   UNL     1       0.184   6.043  -0.433  0.00  0.00    +0.026 C 
ATOM      9  C   UNL     1      -0.457   7.234  -0.716  0.00  0.00    +0.101 C 
ATOM     10  C   UNL     1      -1.646   7.669   0.044  0.00  0.00    +0.274 C 
ATOM     11  O   UNL     1      -2.096   6.987   0.945  0.00  0.00    -0.268 OA
ATOM     12  N   UNL     1      -2.216   8.846  -0.285  0.00  0.00    -0.154 NA
ATOM     13  C   UNL     1      -1.734   9.605  -1.279  0.00  0.00    +0.164 C 
ATOM     14  S   UNL     1      -2.528  11.081  -1.629  0.00  0.00    -0.016 S 
ATOM     15  N   UNL     1      -0.663   9.271  -2.014  0.00  0.00    -0.262 N 
ATOM     16  C   UNL     1       0.013   8.125  -1.795  0.00  0.00    +0.255 C 
ATOM     17  O   UNL     1       0.983   7.833  -2.469  0.00  0.00    -0.270 OA
ATOM     18  H   UNL     1      -0.318   9.939  -2.817  0.00  0.00    +0.157 HD
ENDBRANCH   3   8
BRANCH   1  20
ATOM     19  C   UNL     1      -0.751   1.244   0.517  0.00  0.00    +0.277 C 
ATOM     20  O   UNL     1      -0.895   1.866   1.795  0.00  0.00    -0.491 OA
ENDBRANCH   1  20
BRANCH   6  21
ATOM     21  O   UNL     1      -1.153   3.190   4.193  0.00  0.00    -0.483 OA
BRANCH  21  22
ATOM     22  C   UNL     1      -0.074   2.666   4.969  0.00  0.00    +0.264 C 
BRANCH  22  23
ATOM     23  C   UNL     1      -0.626   1.936   6.167  0.00  0.00    -0.010 A 
ATOM     24  C   UNL     1      -0.836   2.618   7.352  0.00  0.00    +0.008 A 
ATOM     25  C   UNL     1      -1.345   1.957   8.451  0.00  0.00    +0.015 A 
ATOM     26  C   UNL     1      -1.639   0.594   8.368  0.00  0.00    +0.063 A 
ATOM     27  C   UNL     1      -1.419  -0.089   7.170  0.00  0.00    +0.015 A 
ATOM     28  C   UNL     1      -0.914   0.586   6.077  0.00  0.00    +0.008 A 
BRANCH  26  29
ATOM     29  C   UNL     1      -2.179  -0.121   9.542  0.00  0.00    +0.387 C 
ATOM     30  O   UNL     1      -2.434  -1.306   9.466  0.00  0.00    -0.241 OA
ATOM     31  O   UNL     1      -2.390   0.541  10.696  0.00  0.00    -0.241 OA
ENDBRANCH  26  29
ENDBRANCH  22  23
ENDBRANCH  21  22
ENDBRANCH   6  21
TORSDOF 6
