REMARK  Name = ZINC36341689
REMARK  14 active torsions:
REMARK  status: ('A' for Active; 'I' for Inactive)
REMARK    1  A    between atoms: C_1  and  C_2
REMARK    2  A    between atoms: C_2  and  O_3
REMARK    3  A    between atoms: O_3  and  C_4
REMARK    4  A    between atoms: C_4  and  C_6
REMARK    5  A    between atoms: N_9  and  C_12
REMARK    6  A    between atoms: C_12  and  C_13
REMARK    7  A    between atoms: C_16  and  C_29
REMARK    8  A    between atoms: C_19  and  C_21
REMARK    9  A    between atoms: C_24  and  C_28
REMARK   10  A    between atoms: C_25  and  C_27
REMARK   11  A    between atoms: C_31  and  O_37
REMARK   12  A    between atoms: C_34  and  O_35
REMARK   13  A    between atoms: O_35  and  C_36
REMARK   14  A    between atoms: O_37  and  C_38
REMARK                            x       y       z     vdW  Elec       q    Type
REMARK                         _______ _______ _______ _____ _____    ______ ____
ROOT
ATOM      1  C   UNL     1       1.703  -6.091  -6.098  0.00  0.00    +0.219 C 
ATOM      2  O   UNL     1       1.155  -6.602  -5.144  0.00  0.00    -0.276 OA
ATOM      3  N   UNL     1       2.146  -6.860  -7.112  0.00  0.00    -0.187 N 
ATOM      4  C   UNL     1       2.026  -8.324  -7.192  0.00  0.00    +0.140 C 
ATOM      5  C   UNL     1       2.690  -8.668  -8.540  0.00  0.00    +0.087 C 
ATOM      6  C   UNL     1       3.123  -7.326  -9.086  0.00  0.00    +0.069 C 
ATOM      7  N   UNL     1       2.789  -6.397  -8.259  0.00  0.00    -0.181 NA
ENDROOT
BRANCH   6   8
ATOM      8  C   UNL     1       3.817  -7.113 -10.370  0.00  0.00    -0.002 A 
ATOM      9  C   UNL     1       4.119  -8.201 -11.193  0.00  0.00    +0.010 A 
ATOM     10  C   UNL     1       4.768  -7.994 -12.392  0.00  0.00    +0.004 A 
ATOM     11  C   UNL     1       5.119  -6.713 -12.781  0.00  0.00    -0.048 A 
ATOM     12  C   UNL     1       4.823  -5.632 -11.971  0.00  0.00    -0.047 A 
ATOM     13  C   UNL     1       4.169  -5.823 -10.771  0.00  0.00    +0.013 A 
ATOM     14  C   UNL     1       5.211  -4.241 -12.402  0.00  0.00    +0.044 C 
ATOM     15  C   UNL     1       5.828  -6.496 -14.093  0.00  0.00    +0.044 C 
ENDBRANCH   6   8
BRANCH   4  16
ATOM     16  C   UNL     1       2.761  -8.980  -6.052  0.00  0.00    +0.020 A 
ATOM     17  C   UNL     1       3.718  -8.273  -5.349  0.00  0.00    +0.054 A 
ATOM     18  C   UNL     1       4.394  -8.877  -4.300  0.00  0.00    +0.121 A 
ATOM     19  C   UNL     1       4.111 -10.190  -3.956  0.00  0.00    +0.049 A 
ATOM     20  C   UNL     1       3.155 -10.897  -4.659  0.00  0.00    +0.049 A 
ATOM     21  C   UNL     1       2.474 -10.292  -5.705  0.00  0.00    +0.125 A 
BRANCH  21  22
ATOM     22  O   UNL     1       1.529 -10.986  -6.393  0.00  0.00    -0.495 OA
ATOM     23  C   UNL     1       1.285 -12.332  -5.982  0.00  0.00    +0.277 C 
ENDBRANCH  21  22
BRANCH  18  24
ATOM     24  O   UNL     1       5.336  -8.181  -3.608  0.00  0.00    -0.495 OA
ATOM     25  C   UNL     1       5.993  -8.864  -2.539  0.00  0.00    +0.277 C 
ENDBRANCH  18  24
ENDBRANCH   4  16
BRANCH   1  26
ATOM     26  C   UNL     1       1.887  -4.596  -6.149  0.00  0.00    +0.021 C 
BRANCH  26  30
ATOM     27  C   UNL     1       1.468  -2.353  -2.550  0.00  0.00    +0.094 C 
ATOM     28  C   UNL     1       0.736  -1.893  -3.814  0.00  0.00    -0.004 C 
ATOM     29  C   UNL     1       1.396  -2.529  -5.039  0.00  0.00    -0.077 C 
ATOM     30  N   UNL     1       1.323  -3.992  -4.935  0.00  0.00    +0.385 N 
ATOM     31  C   UNL     1       2.084  -4.446  -3.764  0.00  0.00    -0.077 C 
ATOM     32  C   UNL     1       1.450  -3.884  -2.490  0.00  0.00    -0.004 C 
ATOM     33  H   UNL     1       0.359  -4.273  -4.838  0.00  0.00    -0.081 HD
BRANCH  27  34
ATOM     34  C   UNL     1       0.775  -1.794  -1.334  0.00  0.00    +0.310 C 
ATOM     35  O   UNL     1       0.314  -2.540  -0.504  0.00  0.00    -0.251 OA
BRANCH  34  36
ATOM     36  O   UNL     1       0.671  -0.465  -1.174  0.00  0.00    -0.465 OA
BRANCH  36  38
ATOM     37  C   UNL     1      -0.019   1.526   0.010  0.00  0.00    +0.048 C 
ATOM     38  C   UNL     1       0.002  -0.004   0.002  0.00  0.00    +0.229 C 
ENDBRANCH  36  38
ENDBRANCH  34  36
ENDBRANCH  27  34
ENDBRANCH  26  30
ENDBRANCH   1  26
TORSDOF 9
