REMARK  Name = ZINC58791504
REMARK  8 active torsions:
REMARK  status: ('A' for Active; 'I' for Inactive)
REMARK    1  A    between atoms: C_1  and  C_2
REMARK    2  A    between atoms: N_4  and  C_5
REMARK    3  A    between atoms: C_8  and  S_11
REMARK    4  A    between atoms: S_11  and  N_14
REMARK    5  A    between atoms: N_14  and  C_15
REMARK    6  A    between atoms: C_15  and  C_16
REMARK    7  A    between atoms: C_16  and  C_18
REMARK    8  A    between atoms: C_16  and  N_26
REMARK                            x       y       z     vdW  Elec       q    Type
REMARK                         _______ _______ _______ _____ _____    ______ ____
ROOT
ATOM      1  N   UNL     1      -2.993  -5.594  -2.585  0.00  0.00    -0.191 NA
ATOM      2  H   UNL     1      -3.896  -5.369  -2.858  0.00  0.00    +0.148 HD
ENDROOT
BRANCH   1   3
ATOM      3  S   UNL     1      -1.973  -4.407  -2.043  0.00  0.00    +0.058 S 
ATOM      4  O   UNL     1      -1.408  -4.880  -0.829  0.00  0.00    -0.153 OA
ATOM      5  O   UNL     1      -2.693  -3.184  -2.123  0.00  0.00    -0.153 OA
BRANCH   3   9
ATOM      6  C   UNL     1       1.426  -4.102  -5.021  0.00  0.00    +0.033 A 
ATOM      7  C   UNL     1       0.283  -3.331  -5.188  0.00  0.00    +0.025 A 
ATOM      8  C   UNL     1      -0.752  -3.426  -4.278  0.00  0.00    +0.030 A 
ATOM      9  C   UNL     1      -0.651  -4.288  -3.202  0.00  0.00    +0.105 A 
ATOM     10  C   UNL     1       0.486  -5.058  -3.033  0.00  0.00    +0.030 A 
ATOM     11  C   UNL     1       1.522  -4.971  -3.942  0.00  0.00    +0.025 A 
BRANCH   6  15
ATOM     12  C   UNL     1       4.245  -5.029  -7.336  0.00  0.00    +0.109 C 
ATOM     13  C   UNL     1       3.191  -5.104  -6.261  0.00  0.00    +0.214 C 
ATOM     14  O   UNL     1       2.987  -6.152  -5.685  0.00  0.00    -0.276 OA
ATOM     15  N   UNL     1       2.476  -4.008  -5.941  0.00  0.00    -0.286 N 
ATOM     16  H   UNL     1       2.689  -3.154  -6.348  0.00  0.00    +0.155 HD
ENDBRANCH   6  15
ENDBRANCH   3   9
ENDBRANCH   1   3
BRANCH   1  17
ATOM     17  C   UNL     1      -2.532  -6.983  -2.650  0.00  0.00    +0.095 C 
BRANCH  17  18
ATOM     18  C   UNL     1      -3.739  -7.915  -2.771  0.00  0.00    -0.018 C 
BRANCH  18  19
ATOM     19  C   UNL     1      -4.456  -7.642  -4.068  0.00  0.00    -0.006 A 
ATOM     20  C   UNL     1      -3.920  -8.088  -5.264  0.00  0.00    +0.126 A 
ATOM     21  C   UNL     1      -4.580  -7.836  -6.455  0.00  0.00    +0.038 A 
ATOM     22  C   UNL     1      -5.774  -7.140  -6.449  0.00  0.00    +0.004 A 
ATOM     23  C   UNL     1      -6.310  -6.696  -5.255  0.00  0.00    +0.020 A 
ATOM     24  C   UNL     1      -5.654  -6.951  -4.064  0.00  0.00    +0.045 A 
ATOM     25 CL   UNL     1      -6.331  -6.398  -2.564  0.00  0.00    -0.083 Cl
ATOM     26  F   UNL     1      -2.752  -8.768  -5.269  0.00  0.00    -0.205 F 
ENDBRANCH  18  19
BRANCH  18  27
ATOM     27  N   UNL     1      -3.282  -9.312  -2.749  0.00  0.00    +0.385 N 
ATOM     28  C   UNL     1      -2.764  -9.660  -1.401  0.00  0.00    -0.078 C 
ATOM     29  C   UNL     1      -2.867 -11.205  -1.370  0.00  0.00    -0.020 C 
ATOM     30  C   UNL     1      -4.184 -11.479  -2.131  0.00  0.00    -0.020 C 
ATOM     31  C   UNL     1      -4.420 -10.224  -2.991  0.00  0.00    -0.078 C 
ATOM     32  H   UNL     1      -2.567  -9.455  -3.446  0.00  0.00    -0.081 HD
ENDBRANCH  18  27
ENDBRANCH  17  18
ENDBRANCH   1  17
TORSDOF 7
