REMARK  Name = ZINC13402906
REMARK  6 active torsions:
REMARK  status: ('A' for Active; 'I' for Inactive)
REMARK    1  A    between atoms: C_3  and  C_15
REMARK    2  A    between atoms: C_6  and  C_7
REMARK    3  A    between atoms: C_7  and  C_9
REMARK    4  A    between atoms: N_10  and  N_11
REMARK    5  A    between atoms: C_15  and  C_17
REMARK    6  A    between atoms: N_18  and  N_19
REMARK                            x       y       z     vdW  Elec       q    Type
REMARK                         _______ _______ _______ _____ _____    ______ ____
ROOT
ATOM      1  C   UNL     1       0.226   1.430   1.573  0.00  0.00    +0.012 A 
ATOM      2  C   UNL     1       1.409   2.108   1.379  0.00  0.00    +0.012 A 
ATOM      3  C   UNL     1       2.527   1.435   0.885  0.00  0.00    +0.023 A 
ATOM      4  C   UNL     1       2.447   0.072   0.587  0.00  0.00    +0.012 A 
ATOM      5  C   UNL     1       1.264  -0.606   0.781  0.00  0.00    +0.012 A 
ATOM      6  C   UNL     1       0.145   0.068   1.274  0.00  0.00    +0.023 A 
ENDROOT
BRANCH   6   7
ATOM      7  C   UNL     1      -1.126  -0.662   1.482  0.00  0.00    +0.205 C 
ATOM      8  O   UNL     1      -2.100  -0.075   1.914  0.00  0.00    -0.286 OA
BRANCH   7   9
ATOM      9  C   UNL     1      -1.210  -2.089   1.169  0.00  0.00    +0.181 C 
ATOM     10  N   UNL     1      -2.329  -2.731   1.353  0.00  0.00    -0.183 NA
BRANCH  10  11
ATOM     11  N   UNL     1      -2.410  -4.098   1.053  0.00  0.00    -0.191 N 
ATOM     12  C   UNL     1      -3.567  -4.762   1.243  0.00  0.00    +0.317 C 
ATOM     13  O   UNL     1      -3.637  -5.947   0.983  0.00  0.00    -0.251 OA
ATOM     14  N   UNL     1      -4.647  -4.112   1.720  0.00  0.00    -0.312 N 
ATOM     15  H   UNL     1      -1.633  -4.565   0.709  0.00  0.00    +0.179 HD
ATOM     16  H   UNL     1      -4.591  -3.166   1.928  0.00  0.00    +0.147 HD
ATOM     17  H   UNL     1      -5.480  -4.590   1.857  0.00  0.00    +0.147 HD
ENDBRANCH  10  11
ENDBRANCH   7   9
ENDBRANCH   6   7
BRANCH   3  18
ATOM     18  C   UNL     1       3.798   2.164   0.676  0.00  0.00    +0.205 C 
ATOM     19  O   UNL     1       3.868   3.351   0.935  0.00  0.00    -0.286 OA
BRANCH  18  20
ATOM     20  C   UNL     1       4.971   1.458   0.157  0.00  0.00    +0.181 C 
ATOM     21  N   UNL     1       6.051   2.122  -0.144  0.00  0.00    -0.183 NA
BRANCH  21  22
ATOM     22  N   UNL     1       6.036   3.522  -0.138  0.00  0.00    -0.191 N 
ATOM     23  C   UNL     1       7.177   4.209  -0.349  0.00  0.00    +0.317 C 
ATOM     24  O   UNL     1       7.164   5.425  -0.343  0.00  0.00    -0.251 OA
ATOM     25  N   UNL     1       8.331   3.548  -0.566  0.00  0.00    -0.312 N 
ATOM     26  H   UNL     1       5.205   3.998   0.018  0.00  0.00    +0.179 HD
ATOM     27  H   UNL     1       8.341   2.578  -0.570  0.00  0.00    +0.147 HD
ATOM     28  H   UNL     1       9.152   4.042  -0.717  0.00  0.00    +0.147 HD
ENDBRANCH  21  22
ENDBRANCH  18  20
ENDBRANCH   3  18
TORSDOF 6
