REMARK  Name = ZINC44393955
REMARK  8 active torsions:
REMARK  status: ('A' for Active; 'I' for Inactive)
REMARK    1  A    between atoms: C_1  and  C_2
REMARK    2  A    between atoms: C_2  and  C_3
REMARK    3  A    between atoms: C_2  and  C_4
REMARK    4  A    between atoms: C_2  and  N_17
REMARK    5  A    between atoms: N_6  and  C_7
REMARK    6  A    between atoms: C_10  and  S_13
REMARK    7  A    between atoms: S_13  and  N_16
REMARK    8  A    between atoms: C_22  and  C_24
REMARK                            x       y       z     vdW  Elec       q    Type
REMARK                         _______ _______ _______ _____ _____    ______ ____
ROOT
ATOM      1  C   UNL     1      -0.067   1.655  -0.169  0.00  0.00    +0.046 C 
ATOM      2  C   UNL     1      -0.064   0.138   0.030  0.00  0.00    +0.137 C 
ATOM      3  C   UNL     1       0.594  -0.199   1.370  0.00  0.00    +0.046 C 
ENDROOT
BRANCH   2   4
ATOM      4  N   UNL     1       0.688  -0.496  -1.056  0.00  0.00    -0.214 N 
ATOM      5  C   UNL     1       1.986  -0.181  -1.224  0.00  0.00    +0.268 A 
ATOM      6  O   UNL     1       2.525   0.623  -0.480  0.00  0.00    -0.266 OA
ATOM      7  C   UNL     1       2.720  -0.787  -2.268  0.00  0.00    +0.074 A 
ATOM      8  C   UNL     1       2.070  -1.678  -3.071  0.00  0.00    +0.035 A 
ATOM      9  C   UNL     1       0.705  -1.941  -2.811  0.00  0.00    +0.092 A 
ATOM     10  N   UNL     1       0.093  -1.340  -1.817  0.00  0.00    -0.167 NA
BRANCH   9  11
ATOM     11  C   UNL     1      -0.037  -2.904  -3.662  0.00  0.00    +0.002 A 
ATOM     12  C   UNL     1      -1.384  -3.162  -3.413  0.00  0.00    +0.013 A 
ATOM     13  C   UNL     1      -2.070  -4.059  -4.207  0.00  0.00    +0.039 A 
ATOM     14  C   UNL     1      -1.421  -4.702  -5.249  0.00  0.00    +0.123 A 
ATOM     15  C   UNL     1      -0.082  -4.448  -5.499  0.00  0.00    +0.039 A 
ATOM     16  C   UNL     1       0.610  -3.548  -4.715  0.00  0.00    +0.013 A 
ATOM     17  F   UNL     1      -2.097  -5.579  -6.023  0.00  0.00    -0.205 F 
ENDBRANCH   9  11
ENDBRANCH   2   4
BRANCH   2  18
ATOM     18  C   UNL     1      -1.482  -0.372   0.024  0.00  0.00    +0.244 C 
ATOM     19  O   UNL     1      -2.075  -0.527   1.070  0.00  0.00    -0.273 OA
ATOM     20  N   UNL     1      -2.090  -0.657  -1.144  0.00  0.00    -0.284 N 
ATOM     21  H   UNL     1      -1.646  -0.459  -1.984  0.00  0.00    +0.155 HD
BRANCH  20  22
ATOM     22  C   UNL     1      -3.363  -1.239  -1.147  0.00  0.00    +0.034 A 
ATOM     23  C   UNL     1      -4.264  -0.936  -2.159  0.00  0.00    +0.025 A 
ATOM     24  C   UNL     1      -5.520  -1.512  -2.159  0.00  0.00    +0.030 A 
ATOM     25  C   UNL     1      -5.880  -2.388  -1.152  0.00  0.00    +0.105 A 
ATOM     26  C   UNL     1      -4.985  -2.691  -0.142  0.00  0.00    +0.030 A 
ATOM     27  C   UNL     1      -3.726  -2.124  -0.140  0.00  0.00    +0.025 A 
BRANCH  25  28
ATOM     28  S   UNL     1      -7.482  -3.120  -1.155  0.00  0.00    +0.056 S 
ATOM     29  O   UNL     1      -7.767  -3.481   0.190  0.00  0.00    -0.153 OA
ATOM     30  O   UNL     1      -8.323  -2.255  -1.905  0.00  0.00    -0.153 OA
BRANCH  28  31
ATOM     31  N   UNL     1      -7.373  -4.534  -2.011  0.00  0.00    -0.204 NA
ATOM     32  H   UNL     1      -7.955  -5.279  -1.793  0.00  0.00    +0.144 HD
ATOM     33  H   UNL     1      -6.728  -4.617  -2.730  0.00  0.00    +0.144 HD
ENDBRANCH  28  31
ENDBRANCH  25  28
ENDBRANCH  20  22
ENDBRANCH   2  18
TORSDOF 6
