REMARK  Name = ZINC13148348
REMARK  10 active torsions:
REMARK  status: ('A' for Active; 'I' for Inactive)
REMARK    1  A    between atoms: C_1  and  C_2
REMARK    2  A    between atoms: C_2  and  N_3
REMARK    3  A    between atoms: N_3  and  C_4
REMARK    4  A    between atoms: N_3  and  S_6
REMARK    5  A    between atoms: C_4  and  C_5
REMARK    6  A    between atoms: S_6  and  C_9
REMARK    7  A    between atoms: C_12  and  N_27
REMARK    8  A    between atoms: C_13  and  N_15
REMARK    9  A    between atoms: C_16  and  C_18
REMARK   10  A    between atoms: C_32  and  N_67
REMARK                            x       y       z     vdW  Elec       q    Type
REMARK                         _______ _______ _______ _____ _____    ______ ____
ROOT
ATOM      1  C   UNL     1      -4.390   4.973  -0.123  0.00  0.00    +0.107 A 
ATOM      2  C   UNL     1      -4.136   6.329  -0.212  0.00  0.00    +0.030 A 
ATOM      3  C   UNL     1      -2.834   6.794  -0.223  0.00  0.00    +0.027 A 
ATOM      4  C   UNL     1      -1.778   5.899  -0.138  0.00  0.00    +0.051 A 
ATOM      5  C   UNL     1      -2.034   4.530  -0.053  0.00  0.00    +0.057 A 
ATOM      6  C   UNL     1      -3.343   4.073  -0.044  0.00  0.00    +0.053 A 
ENDROOT
BRANCH   4   7
ATOM      7  N   UNL     1      -0.459   6.367  -0.142  0.00  0.00    -0.332 N 
ATOM      8  C   UNL     1      -0.190   7.193   1.043  0.00  0.00    +0.086 C 
ATOM      9  C   UNL     1       1.280   7.619   1.041  0.00  0.00    -0.060 C 
ATOM     10  C   UNL     1       1.301   7.537  -1.378  0.00  0.00    -0.060 C 
ATOM     11  C   UNL     1      -0.169   7.111  -1.376  0.00  0.00    +0.086 C 
ATOM     12  C   UNL     1       2.955   8.854  -0.198  0.00  0.00    -0.096 C 
ATOM     13  N   UNL     1       1.553   8.384  -0.194  0.00  0.00    +0.380 N 
ATOM     14  H   UNL     1       0.928   9.198  -0.226  0.00  0.00    -0.082 HD
ENDBRANCH   4   7
BRANCH   5  15
ATOM     15  N   UNL     1      -0.971   3.621   0.027  0.00  0.00    -0.279 N 
ATOM     16  C   UNL     1      -1.075   2.410  -0.557  0.00  0.00    +0.255 C 
ATOM     17  O   UNL     1      -2.120   2.076  -1.084  0.00  0.00    -0.269 OA
ATOM     18  H   UNL     1      -0.161   3.862   0.502  0.00  0.00    +0.155 HD
BRANCH  16  19
ATOM     19  C   UNL     1       0.071   1.497  -0.558  0.00  0.00    +0.075 A 
ATOM     20  C   UNL     1       0.173   0.226  -1.095  0.00  0.00    +0.024 A 
ATOM     21  C   UNL     1       1.380  -0.442  -0.969  0.00  0.00    -0.036 A 
ATOM     22  C   UNL     1       2.382   0.217  -0.316  0.00  0.00    -0.006 A 
ATOM     23  S   UNL     1       1.701   1.736   0.127  0.00  0.00    -0.088 S 
ATOM     24  C   UNL     1       3.769  -0.284  -0.051  0.00  0.00    +0.043 C 
ATOM     25  C   UNL     1       3.791  -1.800  -0.294  0.00  0.00    +0.005 C 
ATOM     26  C   UNL     1       3.112  -2.093  -1.635  0.00  0.00    +0.005 C 
ATOM     27  C   UNL     1       1.607  -1.846  -1.523  0.00  0.00    +0.036 C 
ENDBRANCH  16  19
ENDBRANCH   5  15
BRANCH   1  28
ATOM     28  S   UNL     1      -6.052   4.389  -0.111  0.00  0.00    +0.061 S 
ATOM     29  O   UNL     1      -6.838   5.389  -0.745  0.00  0.00    -0.153 OA
ATOM     30  O   UNL     1      -6.014   3.045  -0.570  0.00  0.00    -0.153 OA
BRANCH  28  31
ATOM     31  N   UNL     1      -6.540   4.335   1.471  0.00  0.00    -0.177 NA
BRANCH  31  33
ATOM     32  C   UNL     1      -8.697   5.366   1.988  0.00  0.00    +0.022 C 
ATOM     33  C   UNL     1      -7.176   5.505   2.081  0.00  0.00    +0.106 C 
ENDBRANCH  31  33
BRANCH  31  34
ATOM     34  C   UNL     1      -6.337   3.117   2.259  0.00  0.00    +0.106 C 
ATOM     35  C   UNL     1      -5.030   3.233   3.048  0.00  0.00    +0.022 C 
ENDBRANCH  31  34
ENDBRANCH  28  31
ENDBRANCH   1  28
TORSDOF 7
