REMARK  Name = ZINC01432026
REMARK  6 active torsions:
REMARK  status: ('A' for Active; 'I' for Inactive)
REMARK    1  A    between atoms: C_1  and  C_2
REMARK    2  A    between atoms: C_2  and  C_38
REMARK    3  A    between atoms: C_6  and  C_26
REMARK    4  A    between atoms: C_8  and  C_24
REMARK    5  A    between atoms: C_9  and  N_19
REMARK    6  A    between atoms: N_10  and  C_11
REMARK                            x       y       z     vdW  Elec       q    Type
REMARK                         _______ _______ _______ _____ _____    ______ ____
ROOT
ATOM      1  C   UNL     1      -4.512  -5.936  -1.290  0.00  0.00    +0.011 C 
ATOM      2  C   UNL     1      -3.467  -5.775  -2.397  0.00  0.00    -0.023 C 
ATOM      3  C   UNL     1      -2.103  -6.247  -1.888  0.00  0.00    +0.058 C 
ATOM      4  C   UNL     1      -1.678  -5.399  -0.715  0.00  0.00    +0.025 C 
ATOM      5  C   UNL     1      -2.055  -4.106  -0.619  0.00  0.00    +0.025 C 
ATOM      6  C   UNL     1      -1.618  -3.257   0.548  0.00  0.00    +0.098 C 
ATOM      7  C   UNL     1      -1.153  -4.110   1.692  0.00  0.00    +0.080 C 
ATOM      8  C   UNL     1      -0.816  -5.407   1.508  0.00  0.00    +0.129 C 
ATOM      9  N   UNL     1      -0.902  -5.973   0.257  0.00  0.00    -0.255 N 
ATOM     10  C   UNL     1      -2.867  -3.513  -1.601  0.00  0.00    +0.162 C 
ATOM     11  O   UNL     1      -3.180  -2.344  -1.490  0.00  0.00    -0.292 OA
ATOM     12  C   UNL     1      -3.355  -4.298  -2.788  0.00  0.00    +0.086 C 
ATOM     13  C   UNL     1      -3.874  -6.601  -3.618  0.00  0.00    +0.011 C 
ENDROOT
BRANCH   6  14
ATOM     14  C   UNL     1      -0.490  -2.358   0.111  0.00  0.00    -0.031 A 
ATOM     15  C   UNL     1       0.691  -2.909  -0.352  0.00  0.00    +0.008 A 
ATOM     16  C   UNL     1       1.728  -2.089  -0.754  0.00  0.00    +0.050 A 
ATOM     17  C   UNL     1       1.587  -0.712  -0.695  0.00  0.00    +0.166 A 
ATOM     18  C   UNL     1       0.398  -0.158  -0.229  0.00  0.00    +0.167 A 
ATOM     19  C   UNL     1      -0.638  -0.986   0.173  0.00  0.00    +0.054 A 
ATOM     20  O   UNL     1       0.506   1.202  -0.267  0.00  0.00    -0.453 OA
ATOM     21  C   UNL     1       1.917   1.473  -0.374  0.00  0.00    +0.466 C 
ATOM     22  O   UNL     1       2.441   0.300  -1.025  0.00  0.00    -0.453 OA
ENDBRANCH   6  14
BRANCH   9  23
ATOM     23  C   UNL     1      -0.189  -7.145  -0.026  0.00  0.00    +0.075 A 
ATOM     24  C   UNL     1       1.056  -7.072  -0.636  0.00  0.00    +0.029 A 
ATOM     25  C   UNL     1       1.760  -8.228  -0.909  0.00  0.00    +0.040 A 
ATOM     26  C   UNL     1       1.221  -9.462  -0.586  0.00  0.00    +0.126 A 
ATOM     27  C   UNL     1      -0.023  -9.540   0.018  0.00  0.00    +0.078 A 
ATOM     28  C   UNL     1      -0.730  -8.385   0.298  0.00  0.00    +0.148 A 
ATOM     29  F   UNL     1      -1.944  -8.460   0.886  0.00  0.00    -0.203 F 
ATOM     30  F   UNL     1       1.909 -10.592  -0.859  0.00  0.00    -0.205 F 
ENDBRANCH   9  23
BRANCH   8  31
ATOM     31  N   UNL     1      -0.383  -6.168   2.582  0.00  0.00    -0.310 N 
ATOM     32  C   UNL     1      -1.029  -6.296   3.782  0.00  0.00    +0.092 A 
ATOM     33  C   UNL     1      -0.302  -7.118   4.564  0.00  0.00    +0.019 A 
ATOM     34  C   UNL     1       0.838  -7.505   3.830  0.00  0.00    +0.019 A 
ATOM     35  C   UNL     1       0.764  -6.912   2.623  0.00  0.00    +0.092 A 
ENDBRANCH   8  31
BRANCH   7  36
ATOM     36  C   UNL     1      -1.064  -3.540   3.003  0.00  0.00    +0.099 C 
ATOM     37  N   UNL     1      -0.993  -3.089   4.043  0.00  0.00    -0.191 NA
ENDBRANCH   7  36
TORSDOF 4
