REMARK  Name = ZINC13727459
REMARK  11 active torsions:
REMARK  status: ('A' for Active; 'I' for Inactive)
REMARK    1  A    between atoms: C_1  and  O_2
REMARK    2  A    between atoms: O_2  and  C_3
REMARK    3  A    between atoms: C_5  and  C_20
REMARK    4  A    between atoms: C_8  and  O_9
REMARK    5  A    between atoms: O_9  and  C_10
REMARK    6  A    between atoms: C_10  and  C_11
REMARK    7  A    between atoms: C_20  and  N_54
REMARK    8  A    between atoms: C_21  and  C_22
REMARK    9  A    between atoms: C_21  and  N_54
REMARK   10  A    between atoms: C_22  and  C_23
REMARK   11  A    between atoms: C_23  and  N_24
REMARK                            x       y       z     vdW  Elec       q    Type
REMARK                         _______ _______ _______ _____ _____    ______ ____
ROOT
ATOM      1  C   UNL     1      -0.787   2.893   1.346  0.00  0.00    +0.163 A 
ATOM      2  C   UNL     1      -0.254   3.751   0.398  0.00  0.00    +0.051 A 
ATOM      3  C   UNL     1      -0.367   5.119   0.561  0.00  0.00    -0.060 A 
ATOM      4  C   UNL     1      -1.002   5.635   1.676  0.00  0.00    +0.021 A 
ATOM      5  C   UNL     1      -1.532   4.784   2.629  0.00  0.00    +0.063 A 
ATOM      6  C   UNL     1      -1.426   3.411   2.468  0.00  0.00    +0.176 A 
ATOM      7 BR   UNL     1      -2.400   5.494   4.152  0.00  0.00    -0.046 Br
ENDROOT
BRANCH   1   9
ATOM      8  C   UNL     1      -0.013   1.086   0.008  0.00  0.00    +0.277 C 
ATOM      9  O   UNL     1      -0.682   1.547   1.184  0.00  0.00    -0.491 OA
ENDBRANCH   1   9
BRANCH   6  10
ATOM     10  O   UNL     1      -1.947   2.573   3.404  0.00  0.00    -0.483 OA
BRANCH  10  11
ATOM     11  C   UNL     1      -1.087   2.184   4.477  0.00  0.00    +0.266 C 
BRANCH  11  12
ATOM     12  C   UNL     1      -1.830   1.262   5.408  0.00  0.00    +0.008 A 
ATOM     13  C   UNL     1      -3.145   0.925   5.144  0.00  0.00    +0.010 A 
ATOM     14  C   UNL     1      -3.827   0.079   5.997  0.00  0.00    +0.020 A 
ATOM     15  C   UNL     1      -3.195  -0.431   7.117  0.00  0.00    +0.042 A 
ATOM     16  C   UNL     1      -1.880  -0.095   7.383  0.00  0.00    +0.040 A 
ATOM     17  C   UNL     1      -1.196   0.748   6.525  0.00  0.00    +0.049 A 
ATOM     18 CL   UNL     1       0.457   1.166   6.854  0.00  0.00    -0.083 Cl
ATOM     19 CL   UNL     1      -4.053  -1.494   8.189  0.00  0.00    -0.083 Cl
ENDBRANCH  11  12
ENDBRANCH  10  11
ENDBRANCH   6  10
BRANCH   3  20
ATOM     20  C   UNL     1       0.209   6.050  -0.474  0.00  0.00    -0.047 C 
BRANCH  20  21
ATOM     21  N   UNL     1       1.607   6.361  -0.121  0.00  0.00    +0.382 N 
ATOM     22  H   UNL     1       2.151   5.491  -0.093  0.00  0.00    -0.085 HD
ATOM     23  H   UNL     1       1.631   6.809   0.803  0.00  0.00    -0.085 HD
BRANCH  21  24
ATOM     24  C   UNL     1       2.197   7.273  -1.119  0.00  0.00    -0.081 C 
BRANCH  24  25
ATOM     25  C   UNL     1       3.644   7.577  -0.727  0.00  0.00    -0.000 C 
BRANCH  25  26
ATOM     26  C   UNL     1       4.264   8.523  -1.758  0.00  0.00    +0.106 C 
BRANCH  26  27
ATOM     27  N   UNL     1       5.649   8.814  -1.382  0.00  0.00    -0.302 N 
ATOM     28  C   UNL     1       6.057   9.935  -0.527  0.00  0.00    +0.108 C 
ATOM     29  C   UNL     1       7.490   9.592  -0.058  0.00  0.00    +0.028 C 
ATOM     30  C   UNL     1       7.982   8.671  -1.198  0.00  0.00    +0.097 C 
ATOM     31  C   UNL     1       6.711   8.093  -1.781  0.00  0.00    +0.216 C 
ATOM     32  O   UNL     1       6.658   7.120  -2.504  0.00  0.00    -0.276 OA
ENDBRANCH  26  27
ENDBRANCH  25  26
ENDBRANCH  24  25
ENDBRANCH  21  24
ENDBRANCH  20  21
ENDBRANCH   3  20
TORSDOF 10
