REMARK  Name = ZINC39381088
REMARK  5 active torsions:
REMARK  status: ('A' for Active; 'I' for Inactive)
REMARK    1  A    between atoms: C_1  and  C_2
REMARK    2  A    between atoms: C_4  and  C_12
REMARK    3  A    between atoms: C_13  and  C_14
REMARK    4  A    between atoms: N_25  and  C_26
REMARK    5  A    between atoms: C_29  and  N_32
REMARK                            x       y       z     vdW  Elec       q    Type
REMARK                         _______ _______ _______ _____ _____    ______ ____
ROOT
ATOM      1  C   UNL     1      -4.619  -0.822  -1.810  0.00  0.00    +0.190 C 
ATOM      2  N   UNL     1      -4.886  -2.142  -2.391  0.00  0.00    -0.322 N 
ATOM      3  C   UNL     1      -5.732  -3.013  -1.714  0.00  0.00    +0.041 A 
ATOM      4  C   UNL     1      -5.601  -4.387  -1.821  0.00  0.00    +0.024 A 
ATOM      5  C   UNL     1      -6.472  -5.213  -1.138  0.00  0.00    +0.002 A 
ATOM      6  C   UNL     1      -7.477  -4.677  -0.347  0.00  0.00    +0.001 A 
ATOM      7  C   UNL     1      -7.618  -3.310  -0.226  0.00  0.00    +0.015 A 
ATOM      8  C   UNL     1      -6.743  -2.466  -0.905  0.00  0.00    +0.058 A 
ATOM      9  C   UNL     1      -6.838  -1.000  -0.789  0.00  0.00    +0.254 C 
ATOM     10  O   UNL     1      -7.793  -0.489  -0.237  0.00  0.00    -0.270 OA
ATOM     11  N   UNL     1      -5.858  -0.234  -1.300  0.00  0.00    -0.245 N 
ATOM     12  H   UNL     1      -4.479  -2.402  -3.233  0.00  0.00    +0.148 HD
ENDROOT
BRANCH  11  13
ATOM     13  C   UNL     1      -6.030   1.153  -1.344  0.00  0.00    +0.039 A 
ATOM     14  C   UNL     1      -6.056   1.888  -0.166  0.00  0.00    +0.026 A 
ATOM     15  C   UNL     1      -6.225   3.258  -0.212  0.00  0.00    +0.034 A 
ATOM     16  C   UNL     1      -6.368   3.898  -1.430  0.00  0.00    +0.126 A 
ATOM     17  C   UNL     1      -6.342   3.168  -2.605  0.00  0.00    +0.034 A 
ATOM     18  C   UNL     1      -6.168   1.799  -2.566  0.00  0.00    +0.026 A 
BRANCH  16  19
ATOM     19  N   UNL     1      -6.550   5.366  -1.476  0.00  0.00    +0.056 N 
ATOM     20  O   UNL     1      -6.573   6.005  -0.450  0.00  0.00    -0.126 OA
ATOM     21  O   UNL     1      -6.675   5.927  -2.540  0.00  0.00    -0.126 OA
ENDBRANCH  16  19
ENDBRANCH  11  13
BRANCH   1  23
ATOM     22  C   UNL     1      -2.453  -0.330  -0.733  0.00  0.00    +0.005 C 
ATOM     23  C   UNL     1      -3.633  -0.965  -0.678  0.00  0.00    +0.015 C 
BRANCH  22  26
ATOM     24  C   UNL     1      -1.664  -2.966   0.862  0.00  0.00    +0.035 C 
ATOM     25  C   UNL     1      -1.562  -1.542   1.410  0.00  0.00    +0.107 C 
ATOM     26  C   UNL     1      -1.488  -0.549   0.271  0.00  0.00    -0.017 C 
ATOM     27  C   UNL     1      -0.269   0.102   0.421  0.00  0.00    +0.003 A 
ATOM     28  C   UNL     1       0.367   1.122  -0.323  0.00  0.00    +0.010 A 
ATOM     29  C   UNL     1       1.585   1.576   0.062  0.00  0.00    +0.001 A 
ATOM     30  C   UNL     1       2.238   1.059   1.186  0.00  0.00    +0.002 A 
ATOM     31  C   UNL     1       1.690   0.082   1.946  0.00  0.00    +0.026 A 
ATOM     32  C   UNL     1       0.415  -0.446   1.606  0.00  0.00    +0.043 A 
ATOM     33  N   UNL     1      -0.320  -1.381   2.172  0.00  0.00    -0.378 N 
ATOM     34  H   UNL     1      -0.078  -1.884   2.965  0.00  0.00    +0.160 HD
ENDBRANCH  22  26
ENDBRANCH   1  23
TORSDOF 4
