REMARK  Name = ZINC14977097
REMARK  7 active torsions:
REMARK  status: ('A' for Active; 'I' for Inactive)
REMARK    1  A    between atoms: C_1  and  C_2
REMARK    2  A    between atoms: C_10  and  C_13
REMARK    3  A    between atoms: C_13  and  N_57
REMARK    4  A    between atoms: C_14  and  N_57
REMARK    5  A    between atoms: C_17  and  C_31
REMARK    6  A    between atoms: C_17  and  C_32
REMARK    7  A    between atoms: N_23  and  C_24
REMARK                            x       y       z     vdW  Elec       q    Type
REMARK                         _______ _______ _______ _____ _____    ______ ____
ROOT
ATOM      1  C   UNL     1       2.422  -0.242   0.519  0.00  0.00    -0.037 C 
ATOM      2  C   UNL     1       0.954  -0.620   0.752  0.00  0.00    -0.005 C 
ATOM      3  C   UNL     1       0.096  -0.069  -0.390  0.00  0.00    -0.031 C 
ATOM      4  C   UNL     1       0.022   1.460  -0.283  0.00  0.00    +0.062 C 
ATOM      5  C   UNL     1       1.423   1.994  -0.126  0.00  0.00    +0.047 A 
ATOM      6  C   UNL     1       2.492   1.237   0.230  0.00  0.00    -0.020 A 
ATOM      7  C   UNL     1       3.612   2.065   0.271  0.00  0.00    +0.137 A 
ATOM      8  N   UNL     1       3.233   3.279  -0.048  0.00  0.00    -0.174 NA
ATOM      9  N   UNL     1       1.853   3.258  -0.301  0.00  0.00    -0.236 N 
ATOM     10  C   UNL     1      -1.313  -0.656  -0.299  0.00  0.00    +0.011 C 
ATOM     11  C   UNL     1       0.723  -0.455  -1.732  0.00  0.00    +0.011 C 
ENDROOT
BRANCH   9  12
ATOM     12  C   UNL     1       1.064   4.355  -0.672  0.00  0.00    +0.068 A 
ATOM     13  C   UNL     1       1.541   5.275  -1.596  0.00  0.00    +0.028 A 
ATOM     14  C   UNL     1       0.761   6.354  -1.963  0.00  0.00    +0.005 A 
ATOM     15  C   UNL     1      -0.492   6.525  -1.404  0.00  0.00    +0.038 A 
ATOM     16  C   UNL     1      -0.970   5.613  -0.477  0.00  0.00    +0.125 A 
ATOM     17  C   UNL     1      -0.193   4.528  -0.110  0.00  0.00    +0.066 A 
ATOM     18  F   UNL     1      -2.194   5.783   0.069  0.00  0.00    -0.205 F 
ENDBRANCH   9  12
BRANCH   1  19
ATOM     19  N   UNL     1       3.205  -0.549   1.731  0.00  0.00    +0.386 N 
ATOM     20  H   UNL     1       3.137   0.238   2.386  0.00  0.00    -0.085 HD
ATOM     21  H   UNL     1       2.827  -1.395   2.172  0.00  0.00    -0.085 HD
BRANCH  19  22
ATOM     22  C   UNL     1       4.621  -0.772   1.383  0.00  0.00    -0.039 C 
BRANCH  22  32
ATOM     23  C   UNL     1       6.951  -5.385   6.869  0.00  0.00    +0.044 C 
ATOM     24  C   UNL     1       6.914  -4.039   6.192  0.00  0.00    -0.050 A 
ATOM     25  C   UNL     1       7.630  -2.977   6.726  0.00  0.00    +0.007 A 
ATOM     26  C   UNL     1       7.609  -1.739   6.121  0.00  0.00    +0.047 A 
ATOM     27  C   UNL     1       6.865  -1.546   4.964  0.00  0.00    +0.138 A 
ATOM     28  C   UNL     1       6.141  -2.621   4.424  0.00  0.00    +0.064 A 
ATOM     29  C   UNL     1       6.170  -3.868   5.045  0.00  0.00    +0.018 A 
ATOM     30  C   UNL     1       5.359  -2.390   3.194  0.00  0.00    +0.194 A 
ATOM     31  O   UNL     1       4.709  -3.283   2.677  0.00  0.00    -0.287 OA
ATOM     32  C   UNL     1       5.394  -1.083   2.639  0.00  0.00    +0.018 A 
ATOM     33  C   UNL     1       6.127  -0.127   3.237  0.00  0.00    +0.201 A 
ATOM     34  O   UNL     1       6.829  -0.343   4.354  0.00  0.00    -0.462 OA
ENDBRANCH  22  32
ENDBRANCH  19  22
ENDBRANCH   1  19
TORSDOF 4
