REMARK  Name = ZINC23005350
REMARK  9 active torsions:
REMARK  status: ('A' for Active; 'I' for Inactive)
REMARK    1  A    between atoms: C_1  and  C_2
REMARK    2  A    between atoms: C_2  and  O_3
REMARK    3  A    between atoms: O_3  and  C_4
REMARK    4  A    between atoms: C_4  and  C_6
REMARK    5  A    between atoms: C_7  and  C_8
REMARK    6  A    between atoms: C_11  and  N_14
REMARK    7  A    between atoms: C_15  and  C_17
REMARK    8  A    between atoms: C_17  and  N_18
REMARK    9  A    between atoms: C_24  and  C_26
REMARK                            x       y       z     vdW  Elec       q    Type
REMARK                         _______ _______ _______ _____ _____    ______ ____
ROOT
ATOM      1  N   UNL     1      -6.021  -5.698   2.882  0.00  0.00    -0.287 N 
ATOM      2  C   UNL     1      -7.117  -5.053   2.434  0.00  0.00    +0.201 C 
ATOM      3  O   UNL     1      -7.010  -3.957   1.927  0.00  0.00    -0.278 OA
ATOM      4  H   UNL     1      -6.107  -6.723   3.271  0.00  0.00    +0.155 HD
ENDROOT
BRANCH   1   8
ATOM      5  C   UNL     1      -2.308  -3.808   2.792  0.00  0.00    -0.025 A 
ATOM      6  C   UNL     1      -2.627  -4.682   3.839  0.00  0.00    +0.010 A 
ATOM      7  C   UNL     1      -3.856  -5.300   3.867  0.00  0.00    +0.024 A 
ATOM      8  C   UNL     1      -4.778  -5.065   2.852  0.00  0.00    +0.033 A 
ATOM      9  C   UNL     1      -4.465  -4.201   1.807  0.00  0.00    +0.024 A 
ATOM     10  C   UNL     1      -3.240  -3.575   1.773  0.00  0.00    +0.010 A 
BRANCH   5  12
ATOM     11  C   UNL     1      -0.102  -3.368   3.745  0.00  0.00    +0.092 C 
ATOM     12  C   UNL     1      -0.999  -3.142   2.760  0.00  0.00    +0.015 C 
BRANCH  11  13
ATOM     13  C   UNL     1       1.161  -2.726   3.714  0.00  0.00    +0.332 C 
ATOM     14  O   UNL     1       1.438  -1.970   2.801  0.00  0.00    -0.246 OA
BRANCH  13  15
ATOM     15  O   UNL     1       2.058  -2.952   4.697  0.00  0.00    -0.462 OA
BRANCH  15  17
ATOM     16  C   UNL     1       4.188  -2.649   5.797  0.00  0.00    +0.048 C 
ATOM     17  C   UNL     1       3.310  -2.271   4.603  0.00  0.00    +0.229 C 
ENDBRANCH  15  17
ENDBRANCH  13  15
ENDBRANCH  11  13
ENDBRANCH   5  12
ENDBRANCH   1   8
BRANCH   2  18
ATOM     18  C   UNL     1      -8.474  -5.695   2.563  0.00  0.00    +0.019 C 
BRANCH  18  19
ATOM     19  N   UNL     1      -9.495  -4.798   2.005  0.00  0.00    +0.387 N 
ATOM     20  C   UNL     1      -9.605  -3.567   2.800  0.00  0.00    -0.059 C 
ATOM     21  C   UNL     1     -10.543  -2.586   2.088  0.00  0.00    +0.089 C 
ATOM     22  N   UNL     1     -11.817  -3.269   1.819  0.00  0.00    -0.301 N 
ATOM     23  C   UNL     1     -11.778  -4.577   1.147  0.00  0.00    +0.089 C 
ATOM     24  C   UNL     1     -10.791  -5.479   1.896  0.00  0.00    -0.059 C 
ATOM     25  C   UNL     1     -12.990  -2.711   2.179  0.00  0.00    +0.246 C 
ATOM     26  O   UNL     1     -13.008  -1.604   2.681  0.00  0.00    -0.270 OA
ATOM     27  H   UNL     1      -9.179  -4.514   0.990  0.00  0.00    -0.081 HD
BRANCH  25  28
ATOM     28  C   UNL     1     -14.254  -3.446   1.964  0.00  0.00    +0.037 A 
ATOM     29  C   UNL     1     -14.393  -4.295   0.865  0.00  0.00    +0.014 A 
ATOM     30  C   UNL     1     -15.573  -4.983   0.673  0.00  0.00    +0.021 A 
ATOM     31  C   UNL     1     -16.623  -4.823   1.562  0.00  0.00    +0.041 A 
ATOM     32  C   UNL     1     -16.493  -3.978   2.651  0.00  0.00    +0.021 A 
ATOM     33  C   UNL     1     -15.316  -3.289   2.857  0.00  0.00    +0.014 A 
ATOM     34 CL   UNL     1     -18.108  -5.687   1.310  0.00  0.00    -0.084 Cl
ENDBRANCH  25  28
ENDBRANCH  18  19
ENDBRANCH   2  18
TORSDOF 8
