REMARK  Name = ZINC09159905
REMARK  3 active torsions:
REMARK  status: ('A' for Active; 'I' for Inactive)
REMARK    1  A    between atoms: C_1  and  C_2
REMARK    2  A    between atoms: N_20  and  C_23
REMARK    3  A    between atoms: C_27  and  C_29
REMARK                            x       y       z     vdW  Elec       q    Type
REMARK                         _______ _______ _______ _____ _____    ______ ____
ROOT
ATOM      1  C   UNL     1       4.591   0.879   2.729  0.00  0.00    +0.044 C 
ATOM      2  C   UNL     1       4.234  -0.538   2.361  0.00  0.00    -0.050 A 
ATOM      3  C   UNL     1       5.198  -1.529   2.400  0.00  0.00    +0.005 A 
ATOM      4  C   UNL     1       4.877  -2.828   2.065  0.00  0.00    +0.024 A 
ATOM      5  C   UNL     1       3.576  -3.152   1.686  0.00  0.00    +0.036 A 
ATOM      6  C   UNL     1       2.615  -2.147   1.651  0.00  0.00    -0.027 A 
ATOM      7  C   UNL     1       2.940  -0.852   1.985  0.00  0.00    +0.008 A 
ATOM      8  C   UNL     1       1.340  -2.812   1.210  0.00  0.00    +0.053 C 
ATOM      9  C   UNL     1       0.805  -2.188  -0.083  0.00  0.00    +0.089 C 
ATOM     10  C   UNL     1      -0.742  -2.210   0.062  0.00  0.00    +0.074 C 
ATOM     11  C   UNL     1      -0.993  -2.851   1.455  0.00  0.00    -0.054 C 
ATOM     12  C   UNL     1       0.226  -1.251   2.683  0.00  0.00    -0.076 C 
ATOM     13  C   UNL     1      -1.253  -0.995   3.037  0.00  0.00    -0.020 C 
ATOM     14  C   UNL     1      -2.048  -2.030   2.216  0.00  0.00    -0.016 C 
ATOM     15  C   UNL     1      -1.108  -0.744   0.112  0.00  0.00    +0.228 C 
ATOM     16  O   UNL     1      -2.232  -0.306   0.232  0.00  0.00    -0.275 OA
ATOM     17  N   UNL     1       0.002  -0.004   0.002  0.00  0.00    -0.210 N 
ATOM     18  C   UNL     1       1.132  -0.712  -0.111  0.00  0.00    +0.229 C 
ATOM     19  O   UNL     1       2.245  -0.243  -0.218  0.00  0.00    -0.275 OA
ATOM     20  C   UNL     1       1.704  -4.259   1.012  0.00  0.00    +0.212 C 
ATOM     21  O   UNL     1       0.962  -5.149   0.656  0.00  0.00    -0.277 OA
ATOM     22  N   UNL     1       3.013  -4.373   1.308  0.00  0.00    -0.286 N 
ATOM     23  H   UNL     1       3.507  -5.207   1.264  0.00  0.00    +0.155 HD
ATOM     24  N   UNL     1       0.245  -2.636   2.169  0.00  0.00    +0.395 N 
ATOM     25  H   UNL     1       0.341  -3.301   2.945  0.00  0.00    -0.079 HD
ENDROOT
BRANCH  17  26
ATOM     26  C   UNL     1      -0.017   1.398   0.010  0.00  0.00    +0.045 A 
ATOM     27  C   UNL     1       0.536   2.095   1.075  0.00  0.00    +0.025 A 
ATOM     28  C   UNL     1       0.517   3.476   1.081  0.00  0.00    +0.022 A 
ATOM     29  C   UNL     1      -0.055   4.165   0.025  0.00  0.00    +0.053 A 
ATOM     30  C   UNL     1      -0.607   3.473  -1.038  0.00  0.00    +0.075 A 
ATOM     31  C   UNL     1      -0.584   2.091  -1.051  0.00  0.00    +0.037 A 
ATOM     32 CL   UNL     1      -0.078   5.901   0.035  0.00  0.00    -0.083 Cl
BRANCH  30  33
ATOM     33  C   UNL     1      -1.228   4.226  -2.186  0.00  0.00    +0.419 C 
ATOM     34  F   UNL     1      -1.715   3.317  -3.131  0.00  0.00    -0.166 F 
ATOM     35  F   UNL     1      -2.282   5.014  -1.711  0.00  0.00    -0.166 F 
ATOM     36  F   UNL     1      -0.264   5.046  -2.781  0.00  0.00    -0.166 F 
ENDBRANCH  30  33
ENDBRANCH  17  26
TORSDOF 2
