REMARK  Name = ZINC25577976
REMARK  6 active torsions:
REMARK  status: ('A' for Active; 'I' for Inactive)
REMARK    1  A    between atoms: C_6  and  C_7
REMARK    2  A    between atoms: C_10  and  S_13
REMARK    3  A    between atoms: S_13  and  C_14
REMARK    4  A    between atoms: C_14  and  C_15
REMARK    5  A    between atoms: C_15  and  C_16
REMARK    6  A    between atoms: N_21  and  C_22
REMARK                            x       y       z     vdW  Elec       q    Type
REMARK                         _______ _______ _______ _____ _____    ______ ____
ROOT
ATOM      1  C   UNL     1      -0.513   0.985   8.450  0.00  0.00    +0.086 C 
ENDROOT
BRANCH   1   2
ATOM      2  S   UNL     1      -0.191  -0.051   9.899  0.00  0.00    -0.087 S 
BRANCH   2   6
ATOM      3  C   UNL     1      -0.760   2.038  13.169  0.00  0.00    +0.067 A 
ATOM      4  C   UNL     1      -1.040   2.951  12.203  0.00  0.00    +0.139 A 
ATOM      5  N   UNL     1      -0.878   2.362  11.011  0.00  0.00    -0.230 NA
ATOM      6  C   UNL     1      -0.515   1.111  11.183  0.00  0.00    +0.167 A 
ATOM      7  N   UNL     1      -0.425   0.863  12.519  0.00  0.00    -0.333 N 
ATOM      8  H   UNL     1      -0.156  -0.031  13.102  0.00  0.00    +0.168 HD
BRANCH   3  14
ATOM      9  C   UNL     1      -0.497   1.214  15.505  0.00  0.00    +0.011 A 
ATOM     10  C   UNL     1      -0.536   1.426  16.868  0.00  0.00    +0.016 A 
ATOM     11  C   UNL     1      -0.892   2.666  17.368  0.00  0.00    +0.018 A 
ATOM     12  C   UNL     1      -1.206   3.703  16.506  0.00  0.00    +0.016 A 
ATOM     13  C   UNL     1      -1.165   3.505  15.141  0.00  0.00    +0.011 A 
ATOM     14  C   UNL     1      -0.806   2.257  14.630  0.00  0.00    -0.000 A 
ATOM     15 BR   UNL     1      -0.950   2.946  19.237  0.00  0.00    -0.050 Br
ENDBRANCH   3  14
ENDBRANCH   2   6
ENDBRANCH   1   2
BRANCH   1  16
ATOM     16  C   UNL     1      -0.289   0.166   7.177  0.00  0.00    +0.107 C 
BRANCH  16  17
ATOM     17  C   UNL     1      -0.557   1.028   5.971  0.00  0.00    +0.221 C 
ATOM     18  O   UNL     1      -0.894   2.184   6.115  0.00  0.00    -0.275 OA
ATOM     19  N   UNL     1      -0.423   0.515   4.732  0.00  0.00    -0.240 N 
ATOM     20  C   UNL     1      -0.663   1.286   3.653  0.00  0.00    +0.306 C 
ATOM     21  O   UNL     1      -1.000   2.444   3.797  0.00  0.00    -0.252 OA
ATOM     22  N   UNL     1      -0.528   0.772   2.414  0.00  0.00    -0.296 N 
ATOM     23  H   UNL     1      -0.117  -0.534   4.601  0.00  0.00    +0.159 HD
ATOM     24  H   UNL     1      -0.222  -0.276   2.284  0.00  0.00    +0.151 HD
BRANCH  22  25
ATOM     25  C   UNL     1      -0.789   1.611   1.242  0.00  0.00    +0.074 C 
ATOM     26  C   UNL     1      -0.013   1.086   0.008  0.00  0.00    +0.022 C 
ATOM     27  C   UNL     1      -0.809   1.622  -1.200  0.00  0.00    +0.002 C 
ATOM     28  C   UNL     1      -2.243   1.875  -0.703  0.00  0.00    +0.002 C 
ATOM     29  C   UNL     1      -2.268   1.485   0.789  0.00  0.00    +0.022 C 
ENDBRANCH  22  25
ENDBRANCH  16  17
ENDBRANCH   1  16
TORSDOF 6
