REMARK  Name = ZINC50081540
REMARK  9 active torsions:
REMARK  status: ('A' for Active; 'I' for Inactive)
REMARK    1  A    between atoms: C_1  and  C_2
REMARK    2  A    between atoms: N_5  and  C_11
REMARK    3  A    between atoms: C_7  and  C_10
REMARK    4  A    between atoms: C_14  and  N_17
REMARK    5  A    between atoms: N_20  and  C_21
REMARK    6  A    between atoms: N_24  and  C_27
REMARK    7  A    between atoms: C_27  and  C_28
REMARK    8  A    between atoms: C_28  and  C_29
REMARK    9  A    between atoms: C_28  and  C_30
REMARK                            x       y       z     vdW  Elec       q    Type
REMARK                         _______ _______ _______ _____ _____    ______ ____
ROOT
ATOM      1  N   UNL     1       4.316   3.463  -5.163  0.00  0.00    -0.269 N 
ATOM      2  C   UNL     1       5.650   3.623  -5.056  0.00  0.00    +0.304 C 
ATOM      3  O   UNL     1       6.230   3.237  -4.059  0.00  0.00    -0.253 OA
ATOM      4  N   UNL     1       6.341   4.209  -6.053  0.00  0.00    -0.296 N 
ATOM      5  H   UNL     1       3.862   3.709  -5.984  0.00  0.00    +0.156 HD
ATOM      6  H   UNL     1       5.878   4.517  -6.848  0.00  0.00    +0.151 HD
ENDROOT
BRANCH   4   7
ATOM      7  C   UNL     1       7.791   4.383  -5.937  0.00  0.00    +0.071 C 
ATOM      8  C   UNL     1       8.092   5.678  -5.177  0.00  0.00    +0.004 C 
ATOM      9  C   UNL     1       9.606   5.893  -5.128  0.00  0.00    -0.077 C 
ATOM     10  N   UNL     1      10.134   5.992  -6.494  0.00  0.00    +0.380 N 
ATOM     11  C   UNL     1       9.912   4.727  -7.206  0.00  0.00    -0.077 C 
ATOM     12  C   UNL     1       8.410   4.467  -7.335  0.00  0.00    +0.004 C 
ATOM     13  H   UNL     1       9.664   6.739  -6.982  0.00  0.00    -0.082 HD
BRANCH  10  14
ATOM     14  C   UNL     1      11.575   6.276  -6.441  0.00  0.00    -0.076 C 
BRANCH  14  15
ATOM     15  C   UNL     1      12.096   6.532  -7.857  0.00  0.00    -0.034 C 
ATOM     16  C   UNL     1      11.405   7.767  -8.439  0.00  0.00    +0.005 C 
ATOM     17  C   UNL     1      13.607   6.768  -7.809  0.00  0.00    +0.005 C 
ENDBRANCH  14  15
ENDBRANCH  10  14
ENDBRANCH   4   7
BRANCH   1  21
ATOM     18  C   UNL     1       2.138   1.912  -1.961  0.00  0.00    +0.030 A 
ATOM     19  C   UNL     1       3.419   1.443  -2.221  0.00  0.00    +0.025 A 
ATOM     20  C   UNL     1       4.140   1.957  -3.281  0.00  0.00    +0.025 A 
ATOM     21  C   UNL     1       3.584   2.941  -4.087  0.00  0.00    +0.035 A 
ATOM     22  C   UNL     1       2.303   3.410  -3.827  0.00  0.00    +0.025 A 
ATOM     23  C   UNL     1       1.579   2.893  -2.771  0.00  0.00    +0.025 A 
BRANCH  18  27
ATOM     24  C   UNL     1       1.080   3.389   1.279  0.00  0.00    +0.039 C 
ATOM     25  C   UNL     1       0.104   2.248   0.985  0.00  0.00    +0.133 C 
ATOM     26  C   UNL     1       0.098   1.953  -0.519  0.00  0.00    +0.136 C 
ATOM     27  N   UNL     1       1.407   1.392  -0.887  0.00  0.00    -0.325 N 
ATOM     28  C   UNL     1       1.925   0.266  -0.093  0.00  0.00    +0.136 C 
ATOM     29  C   UNL     1       1.842   0.643   1.391  0.00  0.00    +0.133 C 
ATOM     30  O   UNL     1       0.513   1.075   1.694  0.00  0.00    -0.371 OA
ATOM     31  C   UNL     1       2.192  -0.575   2.248  0.00  0.00    +0.039 C 
ENDBRANCH  18  27
ENDBRANCH   1  21
TORSDOF 5
