REMARK  Name = ZINC35427252
REMARK  4 active torsions:
REMARK  status: ('A' for Active; 'I' for Inactive)
REMARK    1  A    between atoms: C_1  and  C_2
REMARK    2  A    between atoms: C_5  and  N_9
REMARK    3  A    between atoms: C_24  and  C_26
REMARK    4  A    between atoms: N_34  and  C_37
REMARK                            x       y       z     vdW  Elec       q    Type
REMARK                         _______ _______ _______ _____ _____    ______ ____
ROOT
ATOM      1  N   UNL     1       0.056  -3.596  -0.912  0.00  0.00    -0.268 N 
ATOM      2  C   UNL     1      -0.004  -4.572  -1.841  0.00  0.00    +0.308 C 
ATOM      3  O   UNL     1       0.086  -4.293  -3.021  0.00  0.00    -0.252 OA
ATOM      4  N   UNL     1      -0.164  -5.855  -1.461  0.00  0.00    -0.268 N 
ATOM      5  C   UNL     1      -0.283  -6.231  -0.041  0.00  0.00    +0.148 C 
ATOM      6  C   UNL     1      -1.309  -7.317   0.193  0.00  0.00    +0.004 A 
ATOM      7  C   UNL     1      -2.530  -7.093   0.855  0.00  0.00    -0.034 A 
ATOM      8  C   UNL     1      -3.365  -8.155   1.026  0.00  0.00    -0.021 A 
ATOM      9  S   UNL     1      -2.496  -9.502   0.267  0.00  0.00    -0.077 S 
ATOM     10  C   UNL     1      -1.076  -8.584  -0.247  0.00  0.00    +0.090 A 
ATOM     11  N   UNL     1       0.055  -8.967  -0.957  0.00  0.00    -0.312 N 
ATOM     12  C   UNL     1       0.879 -10.032  -0.825  0.00  0.00    +0.092 A 
ATOM     13  C   UNL     1       1.879  -9.902  -1.726  0.00  0.00    +0.020 A 
ATOM     14  C   UNL     1       1.645  -8.715  -2.453  0.00  0.00    +0.025 A 
ATOM     15  C   UNL     1       0.512  -8.173  -1.983  0.00  0.00    +0.049 A 
ATOM     16  C   UNL     1      -0.234  -6.955  -2.453  0.00  0.00    +0.155 C 
ATOM     17  C   UNL     1      -4.695  -8.150   1.704  0.00  0.00    -0.036 C 
ATOM     18  N   UNL     1      -4.815  -6.902   2.481  0.00  0.00    +0.381 N 
ATOM     19  C   UNL     1      -4.464  -5.759   1.627  0.00  0.00    -0.074 C 
ATOM     20  C   UNL     1      -2.953  -5.723   1.381  0.00  0.00    +0.018 C 
ATOM     21  C   UNL     1      -6.197  -6.752   2.957  0.00  0.00    -0.096 C 
ATOM     22  H   UNL     1       0.059  -3.824   0.031  0.00  0.00    +0.156 HD
ATOM     23  H   UNL     1      -4.189  -6.936   3.271  0.00  0.00    -0.082 HD
ENDROOT
BRANCH   1  28
ATOM     24  C   UNL     1       0.285   1.841  -2.518  0.00  0.00    +0.044 C 
ATOM     25  C   UNL     1       0.225   0.397  -2.091  0.00  0.00    -0.049 A 
ATOM     26  C   UNL     1      -0.250  -0.562  -2.967  0.00  0.00    +0.005 A 
ATOM     27  C   UNL     1      -0.307  -1.886  -2.579  0.00  0.00    +0.025 A 
ATOM     28  C   UNL     1       0.113  -2.255  -1.308  0.00  0.00    +0.053 A 
ATOM     29  C   UNL     1       0.591  -1.289  -0.430  0.00  0.00    +0.062 A 
ATOM     30  C   UNL     1       0.649   0.034  -0.827  0.00  0.00    +0.025 A 
ATOM     31 CL   UNL     1       1.117  -1.745   1.160  0.00  0.00    -0.082 Cl
ENDBRANCH   1  28
BRANCH  16  32
ATOM     32  C   UNL     1      -1.679  -7.317  -2.682  0.00  0.00    -0.021 A 
ATOM     33  C   UNL     1      -2.674  -6.397  -2.406  0.00  0.00    +0.008 A 
ATOM     34  C   UNL     1      -3.999  -6.728  -2.617  0.00  0.00    +0.038 A 
ATOM     35  C   UNL     1      -4.330  -7.981  -3.104  0.00  0.00    +0.123 A 
ATOM     36  C   UNL     1      -3.333  -8.901  -3.380  0.00  0.00    +0.038 A 
ATOM     37  C   UNL     1      -2.008  -8.567  -3.174  0.00  0.00    +0.008 A 
ATOM     38  F   UNL     1      -5.625  -8.305  -3.310  0.00  0.00    -0.205 F 
ENDBRANCH  16  32
TORSDOF 2
