REMARK  Name = ZINC36629332
REMARK  6 active torsions:
REMARK  status: ('A' for Active; 'I' for Inactive)
REMARK    1  A    between atoms: C_6  and  N_7
REMARK    2  A    between atoms: C_8  and  C_10
REMARK    3  A    between atoms: C_10  and  C_11
REMARK    4  A    between atoms: N_15  and  C_29
REMARK    5  A    between atoms: N_17  and  S_18
REMARK    6  A    between atoms: S_18  and  C_21
REMARK                            x       y       z     vdW  Elec       q    Type
REMARK                         _______ _______ _______ _____ _____    ______ ____
ROOT
ATOM      1  C   UNL     1      -1.465  -5.033  -0.684  0.00  0.00    +0.149 C 
ATOM      2  C   UNL     1      -2.879  -5.537  -0.446  0.00  0.00    +0.235 C 
ATOM      3  O   UNL     1      -3.344  -5.649   0.668  0.00  0.00    -0.274 OA
ATOM      4  N   UNL     1      -3.571  -5.846  -1.530  0.00  0.00    -0.245 N 
ATOM      5  C   UNL     1      -3.048  -5.720  -2.802  0.00  0.00    +0.185 C 
ATOM      6  N   UNL     1      -3.624  -5.989  -3.939  0.00  0.00    -0.106 NA
ATOM      7  S   UNL     1      -1.394  -5.102  -2.522  0.00  0.00    -0.075 S 
ENDROOT
BRANCH   4   8
ATOM      8  C   UNL     1      -4.941  -6.339  -1.376  0.00  0.00    +0.083 C 
ATOM      9  C   UNL     1      -5.901  -5.153  -1.259  0.00  0.00    +0.023 C 
ATOM     10  C   UNL     1      -7.332  -5.669  -1.098  0.00  0.00    +0.002 C 
ATOM     11  C   UNL     1      -7.426  -6.527   0.165  0.00  0.00    +0.000 C 
ATOM     12  C   UNL     1      -6.467  -7.714   0.048  0.00  0.00    +0.002 C 
ATOM     13  C   UNL     1      -5.035  -7.198  -0.113  0.00  0.00    +0.023 C 
ENDBRANCH   4   8
BRANCH   6  14
ATOM     14  S   UNL     1      -4.928  -7.009  -3.986  0.00  0.00    +0.101 S 
ATOM     15  O   UNL     1      -4.529  -8.208  -3.336  0.00  0.00    -0.146 OA
ATOM     16  O   UNL     1      -6.052  -6.251  -3.562  0.00  0.00    -0.146 OA
BRANCH  14  17
ATOM     17  C   UNL     1      -5.207  -7.421  -5.676  0.00  0.00    +0.113 A 
ATOM     18  C   UNL     1      -6.044  -6.638  -6.449  0.00  0.00    +0.032 A 
ATOM     19  C   UNL     1      -6.264  -6.960  -7.775  0.00  0.00    +0.040 A 
ATOM     20  C   UNL     1      -5.644  -8.067  -8.329  0.00  0.00    +0.124 A 
ATOM     21  C   UNL     1      -4.806  -8.851  -7.555  0.00  0.00    +0.040 A 
ATOM     22  C   UNL     1      -4.584  -8.524  -6.230  0.00  0.00    +0.032 A 
ATOM     23  F   UNL     1      -5.858  -8.383  -9.625  0.00  0.00    -0.205 F 
ENDBRANCH  14  17
ENDBRANCH   6  14
BRANCH   1  24
ATOM     24  C   UNL     1      -1.295  -3.599  -0.176  0.00  0.00    +0.120 C 
BRANCH  24  26
ATOM     25  N   UNL     1       0.509  -1.913  -0.034  0.00  0.00    -0.285 N 
ATOM     26  C   UNL     1       0.125  -3.151  -0.405  0.00  0.00    +0.219 C 
ATOM     27  O   UNL     1       0.923  -3.903  -0.923  0.00  0.00    -0.275 OA
ATOM     28  H   UNL     1      -0.110  -1.335   0.440  0.00  0.00    +0.155 HD
BRANCH  25  34
ATOM     29  C   UNL     1       2.432  -1.879  -1.495  0.00  0.00    +0.026 A 
ATOM     30  C   UNL     1       3.705  -1.433  -1.788  0.00  0.00    +0.040 A 
ATOM     31  C   UNL     1       4.353  -0.569  -0.921  0.00  0.00    +0.124 A 
ATOM     32  C   UNL     1       3.725  -0.151   0.241  0.00  0.00    +0.040 A 
ATOM     33  C   UNL     1       2.451  -0.596   0.537  0.00  0.00    +0.026 A 
ATOM     34  C   UNL     1       1.800  -1.462  -0.332  0.00  0.00    +0.034 A 
ATOM     35  F   UNL     1       5.599  -0.133  -1.208  0.00  0.00    -0.205 F 
ENDBRANCH  25  34
ENDBRANCH  24  26
ENDBRANCH   1  24
TORSDOF 6
