REMARK  Name = ZINC01884720
REMARK  7 active torsions:
REMARK  status: ('A' for Active; 'I' for Inactive)
REMARK    1  A    between atoms: C_3  and  S_33
REMARK    2  A    between atoms: C_6  and  N_7
REMARK    3  A    between atoms: C_8  and  C_10
REMARK    4  A    between atoms: C_10  and  S_11
REMARK    5  A    between atoms: S_11  and  C_12
REMARK    6  A    between atoms: N_25  and  C_26
REMARK    7  A    between atoms: S_33  and  N_36
REMARK                            x       y       z     vdW  Elec       q    Type
REMARK                         _______ _______ _______ _____ _____    ______ ____
ROOT
ATOM      1  C   UNL     1      -0.465  -5.362   0.234  0.00  0.00    +0.178 A 
ATOM      2  N   UNL     1      -1.396  -4.453   0.489  0.00  0.00    -0.215 NA
ATOM      3  C   UNL     1      -1.037  -3.177   0.417  0.00  0.00    +0.117 A 
ATOM      4  C   UNL     1       0.267  -2.741   0.088  0.00  0.00    +0.076 A 
ATOM      5  C   UNL     1       0.471  -1.302   0.058  0.00  0.00    -0.023 A 
ATOM      6  C   UNL     1      -0.601  -0.530   0.347  0.00  0.00    -0.004 A 
ATOM      7  S   UNL     1      -1.923  -1.671   0.669  0.00  0.00    -0.073 S 
ATOM      8  C   UNL     1      -0.659   0.966   0.386  0.00  0.00    +0.043 C 
ATOM      9  C   UNL     1       0.778   1.507   0.409  0.00  0.00    +0.005 C 
ATOM     10  C   UNL     1       1.588   0.794  -0.677  0.00  0.00    +0.005 C 
ATOM     11  C   UNL     1       1.816  -0.665  -0.280  0.00  0.00    +0.037 C 
ATOM     12  C   UNL     1       1.247  -3.750  -0.181  0.00  0.00    +0.268 A 
ATOM     13  O   UNL     1       2.398  -3.473  -0.473  0.00  0.00    -0.267 OA
ATOM     14  N   UNL     1       0.817  -5.031  -0.091  0.00  0.00    -0.255 N 
ENDROOT
BRANCH  14  15
ATOM     15  C   UNL     1       1.732  -6.063  -0.343  0.00  0.00    +0.052 A 
ATOM     16  C   UNL     1       2.109  -6.923   0.680  0.00  0.00    +0.028 A 
ATOM     17  C   UNL     1       3.006  -7.942   0.428  0.00  0.00    +0.022 A 
ATOM     18  C   UNL     1       3.537  -8.100  -0.840  0.00  0.00    +0.041 A 
ATOM     19  C   UNL     1       3.166  -7.241  -1.860  0.00  0.00    +0.022 A 
ATOM     20  C   UNL     1       2.266  -6.224  -1.614  0.00  0.00    +0.028 A 
ATOM     21 CL   UNL     1       4.670  -9.378  -1.152  0.00  0.00    -0.084 Cl
ENDBRANCH  14  15
BRANCH   1  22
ATOM     22  S   UNL     1      -0.902  -7.067   0.319  0.00  0.00    -0.078 S 
BRANCH  22  23
ATOM     23  C   UNL     1      -2.649  -6.921   0.772  0.00  0.00    +0.173 C 
BRANCH  23  25
ATOM     24  N   UNL     1      -4.548  -8.436   1.237  0.00  0.00    -0.285 N 
ATOM     25  C   UNL     1      -3.250  -8.297   0.904  0.00  0.00    +0.227 C 
ATOM     26  O   UNL     1      -2.565  -9.279   0.712  0.00  0.00    -0.275 OA
ATOM     27  H   UNL     1      -5.116  -7.653   1.312  0.00  0.00    +0.155 HD
BRANCH  24  33
ATOM     28  C   UNL     1      -6.390  -9.994   1.121  0.00  0.00    +0.025 A 
ATOM     29  C   UNL     1      -6.908 -11.254   1.351  0.00  0.00    +0.030 A 
ATOM     30  C   UNL     1      -6.124 -12.227   1.942  0.00  0.00    +0.105 A 
ATOM     31  C   UNL     1      -4.818 -11.945   2.300  0.00  0.00    +0.030 A 
ATOM     32  C   UNL     1      -4.293 -10.689   2.068  0.00  0.00    +0.025 A 
ATOM     33  C   UNL     1      -5.078  -9.709   1.474  0.00  0.00    +0.034 A 
BRANCH  30  34
ATOM     34  S   UNL     1      -6.790 -13.831   2.241  0.00  0.00    +0.056 S 
ATOM     35  O   UNL     1      -7.858 -14.005   1.319  0.00  0.00    -0.153 OA
ATOM     36  O   UNL     1      -5.687 -14.723   2.306  0.00  0.00    -0.153 OA
BRANCH  34  37
ATOM     37  N   UNL     1      -7.468 -13.806   3.752  0.00  0.00    -0.204 NA
ATOM     38  H   UNL     1      -8.229 -14.374   3.951  0.00  0.00    +0.144 HD
ATOM     39  H   UNL     1      -7.105 -13.223   4.437  0.00  0.00    +0.144 HD
ENDBRANCH  34  37
ENDBRANCH  30  34
ENDBRANCH  24  33
ENDBRANCH  23  25
ENDBRANCH  22  23
ENDBRANCH   1  22
TORSDOF 7
