REMARK  Name = ZINC00718442
REMARK  7 active torsions:
REMARK  status: ('A' for Active; 'I' for Inactive)
REMARK    1  A    between atoms: C_1  and  O_2
REMARK    2  A    between atoms: O_2  and  C_3
REMARK    3  A    between atoms: C_3  and  C_5
REMARK    4  A    between atoms: C_5  and  N_6
REMARK    5  A    between atoms: C_17  and  C_28
REMARK    6  A    between atoms: C_23  and  N_27
REMARK    7  A    between atoms: C_24  and  C_25
REMARK                            x       y       z     vdW  Elec       q    Type
REMARK                         _______ _______ _______ _____ _____    ______ ____
ROOT
ATOM      1  N   UNL     1      -2.289  -2.296  -0.817  0.00  0.00    -0.259 N 
ATOM      2  C   UNL     1      -2.746  -2.885   0.348  0.00  0.00    +0.042 A 
ATOM      3  C   UNL     1      -2.116  -3.003   1.588  0.00  0.00    +0.024 A 
ATOM      4  C   UNL     1      -2.814  -3.650   2.596  0.00  0.00    +0.002 A 
ATOM      5  C   UNL     1      -4.080  -4.161   2.395  0.00  0.00    +0.000 A 
ATOM      6  C   UNL     1      -4.719  -4.050   1.165  0.00  0.00    +0.007 A 
ATOM      7  C   UNL     1      -4.031  -3.408   0.158  0.00  0.00    -0.001 A 
ATOM      8  C   UNL     1      -4.397  -3.110  -1.261  0.00  0.00    +0.145 C 
ATOM      9  C   UNL     1      -3.196  -2.373  -1.813  0.00  0.00    +0.241 C 
ATOM     10  O   UNL     1      -3.073  -1.935  -2.938  0.00  0.00    -0.274 OA
ATOM     11  C   UNL     1      -5.621  -2.243  -1.341  0.00  0.00    +0.066 A 
ATOM     12  C   UNL     1      -5.795  -0.907  -0.970  0.00  0.00    +0.101 A 
ATOM     13  N   UNL     1      -7.045  -0.573  -1.224  0.00  0.00    -0.171 NA
ATOM     14  N   UNL     1      -7.700  -1.690  -1.765  0.00  0.00    -0.246 N 
ATOM     15  H   UNL     1      -8.628  -1.728  -2.045  0.00  0.00    +0.192 HD
ATOM     16  C   UNL     1      -6.812  -2.703  -1.829  0.00  0.00    +0.224 A 
ATOM     17  O   UNL     1      -6.976  -3.973  -2.276  0.00  0.00    -0.423 OA
ATOM     18  C   UNL     1      -5.871  -4.718  -2.484  0.00  0.00    +0.201 C 
ATOM     19  C   UNL     1      -4.639  -4.374  -2.039  0.00  0.00    +0.110 C 
ENDROOT
BRANCH  12  20
ATOM     20  C   UNL     1      -4.755  -0.020  -0.390  0.00  0.00    +0.004 A 
ATOM     21  C   UNL     1      -3.981  -0.458   0.682  0.00  0.00    +0.011 A 
ATOM     22  C   UNL     1      -3.016   0.370   1.218  0.00  0.00    +0.022 A 
ATOM     23  C   UNL     1      -2.815   1.634   0.693  0.00  0.00    +0.059 A 
ATOM     24  C   UNL     1      -3.582   2.075  -0.374  0.00  0.00    +0.060 A 
ATOM     25  C   UNL     1      -4.547   1.251  -0.920  0.00  0.00    +0.031 A 
ATOM     26 CL   UNL     1      -3.325   3.663  -1.028  0.00  0.00    -0.082 Cl
ATOM     27 CL   UNL     1      -1.600   2.671   1.371  0.00  0.00    -0.082 Cl
ENDBRANCH  12  20
BRANCH  18  28
ATOM     28  N   UNL     1      -6.002  -5.890  -3.185  0.00  0.00    -0.328 N 
ATOM     29  H   UNL     1      -6.873  -6.163  -3.516  0.00  0.00    +0.145 HD
ATOM     30  H   UNL     1      -5.225  -6.447  -3.350  0.00  0.00    +0.145 HD
ENDBRANCH  18  28
BRANCH  19  31
ATOM     31  C   UNL     1      -3.534  -5.240  -2.319  0.00  0.00    +0.102 C 
ATOM     32  N   UNL     1      -2.657  -5.927  -2.541  0.00  0.00    -0.191 NA
ENDBRANCH  19  31
BRANCH   1  33
ATOM     33  C   UNL     1      -0.977  -1.658  -0.952  0.00  0.00    +0.234 C 
BRANCH  33  34
ATOM     34  C   UNL     1      -1.158  -0.216  -1.350  0.00  0.00    +0.325 C 
ATOM     35  O   UNL     1      -2.260   0.205  -1.612  0.00  0.00    -0.249 OA
BRANCH  34  37
ATOM     36  C   UNL     1      -0.351   1.978  -1.703  0.00  0.00    +0.280 C 
ATOM     37  O   UNL     1      -0.095   0.602  -1.412  0.00  0.00    -0.467 OA
ENDBRANCH  34  37
ENDBRANCH  33  34
ENDBRANCH   1  33
TORSDOF 6
