REMARK  Name = ZINC13268977
REMARK  5 active torsions:
REMARK  status: ('A' for Active; 'I' for Inactive)
REMARK    1  A    between atoms: C_3  and  N_18
REMARK    2  A    between atoms: C_4  and  C_16
REMARK    3  A    between atoms: C_6  and  S_7
REMARK    4  A    between atoms: S_7  and  N_10
REMARK    5  A    between atoms: C_26  and  N_30
REMARK                            x       y       z     vdW  Elec       q    Type
REMARK                         _______ _______ _______ _____ _____    ______ ____
ROOT
ATOM      1  C   UNL     1      -2.743  -1.102   2.607  0.00  0.00    +0.030 A 
ATOM      2  C   UNL     1      -3.327  -0.401   3.643  0.00  0.00    +0.026 A 
ATOM      3  C   UNL     1      -2.976   0.923   3.872  0.00  0.00    +0.044 A 
ATOM      4  C   UNL     1      -2.025   1.543   3.045  0.00  0.00    +0.086 A 
ATOM      5  C   UNL     1      -1.439   0.818   2.003  0.00  0.00    +0.045 A 
ATOM      6  C   UNL     1      -1.805  -0.493   1.789  0.00  0.00    +0.106 A 
ENDROOT
BRANCH   3   7
ATOM      7  N   UNL     1      -3.561   1.631   4.914  0.00  0.00    -0.324 N 
ATOM      8  C   UNL     1      -3.295   0.982   6.205  0.00  0.00    +0.110 C 
ATOM      9  C   UNL     1      -3.610   1.947   7.351  0.00  0.00    +0.055 C 
ATOM     10  C   UNL     1      -5.023   2.489   7.147  0.00  0.00    -0.022 A 
ATOM     11  C   UNL     1      -5.610   2.388   5.931  0.00  0.00    +0.013 A 
ATOM     12  S   UNL     1      -7.214   3.120   6.125  0.00  0.00    -0.072 S 
ATOM     13  C   UNL     1      -7.097   3.562   7.829  0.00  0.00    +0.114 A 
ATOM     14  C   UNL     1      -5.800   3.120   8.197  0.00  0.00    +0.051 A 
ATOM     15  C   UNL     1      -5.405   3.344   9.547  0.00  0.00    +0.128 A 
ATOM     16  N   UNL     1      -6.304   3.947  10.323  0.00  0.00    -0.220 NA
ATOM     17  C   UNL     1      -7.495   4.329   9.910  0.00  0.00    +0.224 A 
ATOM     18  N   UNL     1      -7.926   4.152   8.666  0.00  0.00    -0.228 NA
ATOM     19  C   UNL     1      -5.012   1.783   4.699  0.00  0.00    +0.147 C 
BRANCH  15  20
ATOM     20  N   UNL     1      -4.165   2.958  10.023  0.00  0.00    -0.343 N 
ATOM     21  H   UNL     1      -3.476   2.669   9.404  0.00  0.00    +0.144 HD
ATOM     22  H   UNL     1      -3.984   2.977  10.976  0.00  0.00    +0.144 HD
ENDBRANCH  15  20
ENDBRANCH   3   7
BRANCH   6  23
ATOM     23  S   UNL     1      -1.071  -1.403   0.470  0.00  0.00    +0.061 S 
ATOM     24  O   UNL     1      -1.174  -2.777   0.819  0.00  0.00    -0.153 OA
ATOM     25  O   UNL     1       0.175  -0.779   0.191  0.00  0.00    -0.153 OA
BRANCH  23  26
ATOM     26  N   UNL     1      -2.022  -1.181  -0.867  0.00  0.00    -0.172 NA
ATOM     27  C   UNL     1      -3.136  -2.095  -1.164  0.00  0.00    +0.137 C 
ATOM     28  C   UNL     1      -4.395  -1.250  -1.419  0.00  0.00    +0.177 C 
ATOM     29  O   UNL     1      -4.103  -0.262  -2.411  0.00  0.00    -0.377 OA
ATOM     30  C   UNL     1      -3.095   0.676  -2.024  0.00  0.00    +0.177 C 
ATOM     31  C   UNL     1      -1.774  -0.068  -1.796  0.00  0.00    +0.137 C 
ENDBRANCH  23  26
ENDBRANCH   6  23
BRANCH   4  32
ATOM     32  C   UNL     1      -1.644   2.947   3.276  0.00  0.00    +0.388 C 
ATOM     33  O   UNL     1      -2.152   3.573   4.185  0.00  0.00    -0.241 OA
ATOM     34  O   UNL     1      -0.731   3.537   2.479  0.00  0.00    -0.241 OA
ENDBRANCH   4  32
TORSDOF 5
