REMARK  Name = ZINC48074694
REMARK  10 active torsions:
REMARK  status: ('A' for Active; 'I' for Inactive)
REMARK    1  A    between atoms: C_1  and  C_2
REMARK    2  A    between atoms: C_2  and  C_4
REMARK    3  A    between atoms: C_2  and  C_21
REMARK    4  A    between atoms: C_4  and  N_5
REMARK    5  A    between atoms: N_8  and  C_9
REMARK    6  A    between atoms: C_12  and  N_15
REMARK    7  A    between atoms: C_16  and  C_18
REMARK    8  A    between atoms: C_18  and  O_19
REMARK    9  A    between atoms: O_19  and  C_20
REMARK   10  A    between atoms: C_21  and  N_22
REMARK                            x       y       z     vdW  Elec       q    Type
REMARK                         _______ _______ _______ _____ _____    ______ ____
ROOT
ATOM      1  N   UNL     1       1.932  -0.206   0.861  0.00  0.00    -0.299 N 
ATOM      2  C   UNL     1       2.834  -0.442   1.834  0.00  0.00    +0.304 C 
ATOM      3  O   UNL     1       2.469  -0.883   2.907  0.00  0.00    -0.253 OA
ATOM      4  N   UNL     1       4.140  -0.190   1.618  0.00  0.00    -0.269 N 
ATOM      5  H   UNL     1       2.223   0.145   0.005  0.00  0.00    +0.150 HD
ATOM      6  H   UNL     1       4.422   0.231   0.791  0.00  0.00    +0.156 HD
ENDROOT
BRANCH   4   7
ATOM      7  C   UNL     1       5.090  -0.535   2.588  0.00  0.00    +0.035 A 
ATOM      8  C   UNL     1       6.281   0.173   2.678  0.00  0.00    +0.025 A 
ATOM      9  C   UNL     1       7.217  -0.167   3.633  0.00  0.00    +0.025 A 
ATOM     10  C   UNL     1       6.968  -1.219   4.505  0.00  0.00    +0.034 A 
ATOM     11  C   UNL     1       5.777  -1.928   4.416  0.00  0.00    +0.025 A 
ATOM     12  C   UNL     1       4.838  -1.583   3.464  0.00  0.00    +0.025 A 
BRANCH  10  13
ATOM     13  N   UNL     1       7.918  -1.565   5.475  0.00  0.00    -0.284 N 
ATOM     14  C   UNL     1       8.669  -0.608   6.054  0.00  0.00    +0.243 C 
ATOM     15  O   UNL     1       8.460   0.561   5.806  0.00  0.00    -0.273 OA
ATOM     16  H   UNL     1       8.035  -2.494   5.729  0.00  0.00    +0.155 HD
BRANCH  14  17
ATOM     17  C   UNL     1       9.770  -0.990   7.010  0.00  0.00    +0.255 C 
BRANCH  17  18
ATOM     18  O   UNL     1      10.417   0.192   7.487  0.00  0.00    -0.374 OA
ATOM     19  C   UNL     1      11.483  -0.060   8.406  0.00  0.00    +0.194 C 
ENDBRANCH  17  18
ENDBRANCH  14  17
ENDBRANCH  10  13
ENDBRANCH   4   7
BRANCH   1  20
ATOM     20  C   UNL     1       0.512  -0.481   1.095  0.00  0.00    +0.107 C 
BRANCH  20  22
ATOM     21  C   UNL     1      -0.205   1.378  -0.412  0.00  0.00    +0.007 C 
ATOM     22  C   UNL     1      -0.290  -0.128  -0.159  0.00  0.00    -0.014 C 
BRANCH  22  23
ATOM     23  C   UNL     1      -1.752  -0.531   0.041  0.00  0.00    -0.074 C 
BRANCH  23  24
ATOM     24  N   UNL     1      -2.498  -0.298  -1.203  0.00  0.00    +0.380 N 
ATOM     25  C   UNL     1      -3.927  -0.538  -0.967  0.00  0.00    -0.079 C 
ATOM     26  C   UNL     1      -4.718  -0.219  -2.238  0.00  0.00    -0.019 C 
ATOM     27  C   UNL     1      -4.229  -1.119  -3.377  0.00  0.00    -0.004 C 
ATOM     28  C   UNL     1      -2.723  -0.914  -3.564  0.00  0.00    -0.019 C 
ATOM     29  C   UNL     1      -2.006  -1.208  -2.245  0.00  0.00    -0.079 C 
ATOM     30  H   UNL     1      -2.364   0.657  -1.501  0.00  0.00    -0.082 HD
ENDBRANCH  23  24
ENDBRANCH  22  23
ENDBRANCH  20  22
ENDBRANCH   1  20
TORSDOF 8
