REMARK  Name = ZINC28065322
REMARK  7 active torsions:
REMARK  status: ('A' for Active; 'I' for Inactive)
REMARK    1  A    between atoms: C_1  and  C_2
REMARK    2  A    between atoms: C_2  and  C_4
REMARK    3  A    between atoms: C_2  and  N_20
REMARK    4  A    between atoms: C_9  and  C_12
REMARK    5  A    between atoms: N_23  and  C_26
REMARK    6  A    between atoms: C_29  and  C_32
REMARK    7  A    between atoms: C_32  and  C_34
REMARK                            x       y       z     vdW  Elec       q    Type
REMARK                         _______ _______ _______ _____ _____    ______ ____
ROOT
ATOM      1  C   UNL     1       0.984  -0.158  -1.131  0.00  0.00    -0.004 C 
ATOM      2  C   UNL     1      -0.040  -0.034  -0.001  0.00  0.00    +0.017 C 
ENDROOT
BRANCH   2   3
ATOM      3  C   UNL     1       0.565  -0.542   1.283  0.00  0.00    +0.205 C 
ATOM      4  O   UNL     1       0.863   0.237   2.163  0.00  0.00    -0.277 OA
ATOM      5  N   UNL     1       0.773  -1.863   1.452  0.00  0.00    -0.266 N 
ATOM      6  C   UNL     1       1.331  -2.332   2.636  0.00  0.00    +0.165 A 
ATOM      7  N   UNL     1       1.612  -3.571   2.993  0.00  0.00    -0.225 NA
ATOM      8  C   UNL     1       2.148  -3.842   4.174  0.00  0.00    +0.080 A 
ATOM      9  C   UNL     1       2.415  -2.818   5.040  0.00  0.00    +0.076 A 
ATOM     10  S   UNL     1       1.865  -1.416   4.075  0.00  0.00    -0.060 S 
ATOM     11  H   UNL     1       0.503  -2.570   0.654  0.00  0.00    +0.157 HD
BRANCH   8  12
ATOM     12  C   UNL     1       2.455  -5.242   4.554  0.00  0.00    +0.004 A 
ATOM     13  C   UNL     1       2.180  -6.283   3.667  0.00  0.00    +0.013 A 
ATOM     14  C   UNL     1       2.467  -7.585   4.024  0.00  0.00    +0.042 A 
ATOM     15  C   UNL     1       3.026  -7.860   5.261  0.00  0.00    +0.158 A 
ATOM     16  C   UNL     1       3.301  -6.829   6.147  0.00  0.00    +0.159 A 
ATOM     17  C   UNL     1       3.023  -5.521   5.795  0.00  0.00    +0.051 A 
ATOM     18  F   UNL     1       3.846  -7.102   7.352  0.00  0.00    -0.202 F 
ATOM     19  F   UNL     1       3.304  -9.136   5.605  0.00  0.00    -0.202 F 
ENDBRANCH   8  12
ENDBRANCH   2   3
BRANCH   2  20
ATOM     20  N   UNL     1      -0.421   1.375   0.162  0.00  0.00    +0.389 N 
ATOM     21  C   UNL     1      -1.316   1.807  -0.920  0.00  0.00    -0.059 C 
ATOM     22  C   UNL     1      -1.753   3.253  -0.671  0.00  0.00    +0.086 C 
ATOM     23  N   UNL     1      -0.565   4.115  -0.598  0.00  0.00    -0.333 N 
ATOM     24  C   UNL     1       0.330   3.683   0.484  0.00  0.00    +0.086 C 
ATOM     25  C   UNL     1       0.766   2.237   0.235  0.00  0.00    -0.059 C 
ATOM     26  H   UNL     1      -0.968   1.468   1.113  0.00  0.00    -0.081 HD
BRANCH  23  27
ATOM     27  C   UNL     1      -0.926   5.447  -0.444  0.00  0.00    +0.030 A 
ATOM     28  C   UNL     1      -0.444   6.176   0.641  0.00  0.00    +0.024 A 
ATOM     29  C   UNL     1      -0.792   7.488   0.793  0.00  0.00    +0.013 A 
ATOM     30  C   UNL     1      -1.645   8.097  -0.137  0.00  0.00    +0.017 A 
ATOM     31  C   UNL     1      -2.131   7.358  -1.223  0.00  0.00    +0.013 A 
ATOM     32  C   UNL     1      -1.774   6.049  -1.371  0.00  0.00    +0.024 A 
BRANCH  30  33
ATOM     33  C   UNL     1      -2.026   9.505   0.026  0.00  0.00    +0.160 C 
ATOM     34  O   UNL     1      -2.840  10.003  -0.722  0.00  0.00    -0.292 OA
ATOM     35  C   UNL     1      -1.405  10.331   1.123  0.00  0.00    +0.091 C 
ENDBRANCH  30  33
ENDBRANCH  23  27
ENDBRANCH   2  20
TORSDOF 5
