REMARK  Name = ZINC42014589
REMARK  4 active torsions:
REMARK  status: ('A' for Active; 'I' for Inactive)
REMARK    1  A    between atoms: C_1  and  C_2
REMARK    2  A    between atoms: C_7  and  N_10
REMARK    3  A    between atoms: C_11  and  C_15
REMARK    4  A    between atoms: C_19  and  N_21
REMARK                            x       y       z     vdW  Elec       q    Type
REMARK                         _______ _______ _______ _____ _____    ______ ____
ROOT
ATOM      1  N   UNL     1      -0.793  -2.272   1.499  0.00  0.00    -0.222 N 
ATOM      2  C   UNL     1      -1.163  -3.413   2.130  0.00  0.00    +0.182 A 
ATOM      3  N   UNL     1      -2.239  -3.861   1.517  0.00  0.00    -0.108 NA
ATOM      4  N   UNL     1      -2.564  -3.081   0.550  0.00  0.00    -0.023 NA
ATOM      5  N   UNL     1      -1.741  -2.091   0.476  0.00  0.00    -0.043 NA
ENDROOT
BRANCH   1  11
ATOM      6  C   UNL     1      -1.308   1.960   0.952  0.00  0.00    +0.007 C 
ATOM      7  C   UNL     1      -0.818   0.525   0.745  0.00  0.00    -0.012 C 
ATOM      8  C   UNL     1       0.186   0.490  -0.408  0.00  0.00    +0.003 C 
ATOM      9  C   UNL     1       0.676  -0.945  -0.616  0.00  0.00    +0.002 C 
ATOM     10  C   UNL     1       1.351  -1.443   0.664  0.00  0.00    +0.027 C 
ATOM     11  C   UNL     1       0.346  -1.408   1.817  0.00  0.00    +0.111 C 
ATOM     12  C   UNL     1      -0.143   0.027   2.024  0.00  0.00    +0.030 C 
ENDBRANCH   1  11
BRANCH   2  13
ATOM     13  C   UNL     1      -0.486  -4.037   3.288  0.00  0.00    +0.022 A 
ATOM     14  C   UNL     1       0.895  -3.916   3.440  0.00  0.00    +0.013 A 
ATOM     15  C   UNL     1       1.525  -4.498   4.521  0.00  0.00    +0.018 A 
ATOM     16  C   UNL     1       0.791  -5.203   5.457  0.00  0.00    +0.039 A 
ATOM     17  C   UNL     1      -0.587  -5.330   5.315  0.00  0.00    +0.039 A 
ATOM     18  C   UNL     1      -1.228  -4.743   4.234  0.00  0.00    +0.035 A 
ATOM     19 BR   UNL     1       1.663  -5.998   6.935  0.00  0.00    -0.048 Br
BRANCH  17  20
ATOM     20  N   UNL     1      -1.325  -6.043   6.263  0.00  0.00    -0.357 N 
ATOM     21  H   UNL     1      -0.876  -6.450   7.021  0.00  0.00    +0.142 HD
ATOM     22  H   UNL     1      -2.286  -6.131   6.163  0.00  0.00    +0.142 HD
ENDBRANCH  17  20
ENDBRANCH   2  13
TORSDOF 3
