REMARK  Name = ZINC59590052
REMARK  4 active torsions:
REMARK  status: ('A' for Active; 'I' for Inactive)
REMARK    1  A    between atoms: C_5  and  O_25
REMARK    2  A    between atoms: C_6  and  C_7
REMARK    3  A    between atoms: C_13  and  S_20
REMARK    4  A    between atoms: S_20  and  N_23
REMARK                            x       y       z     vdW  Elec       q    Type
REMARK                         _______ _______ _______ _____ _____    ______ ____
ROOT
ATOM      1  C   UNL     1      -1.292  -0.776   0.011  0.00  0.00    +0.194 C 
ATOM      2  N   UNL     1      -1.131  -1.995   0.798  0.00  0.00    -0.322 N 
ATOM      3  C   UNL     1      -0.977  -1.998   2.182  0.00  0.00    +0.057 A 
ATOM      4  C   UNL     1      -0.386  -3.104   2.790  0.00  0.00    +0.047 A 
ATOM      5  C   UNL     1      -0.235  -3.144   4.162  0.00  0.00    +0.069 A 
ATOM      6  C   UNL     1      -0.671  -2.088   4.943  0.00  0.00    +0.125 A 
ATOM      7  C   UNL     1      -1.253  -0.985   4.345  0.00  0.00    +0.060 A 
ATOM      8  C   UNL     1      -1.398  -0.938   2.974  0.00  0.00    +0.128 A 
ATOM      9  S   UNL     1      -2.106   0.491   2.213  0.00  0.00    +0.062 S 
ATOM     10  O   UNL     1      -1.105   1.500   2.210  0.00  0.00    -0.153 OA
ATOM     11  O   UNL     1      -3.387   0.681   2.797  0.00  0.00    -0.153 OA
ATOM     12  N   UNL     1      -2.356   0.048   0.621  0.00  0.00    -0.166 NA
ATOM     13 CL   UNL     1       0.504  -4.525   4.910  0.00  0.00    -0.081 Cl
ATOM     14  H   UNL     1      -1.130  -2.847   0.334  0.00  0.00    +0.148 HD
ATOM     15  H   UNL     1      -3.149   0.312   0.129  0.00  0.00    +0.150 HD
ENDROOT
BRANCH   1  21
ATOM     16  C   UNL     1      -0.017   1.377   0.010  0.00  0.00    +0.030 A 
ATOM     17  C   UNL     1       1.171   2.087   0.002  0.00  0.00    +0.043 A 
ATOM     18  C   UNL     1       2.381   1.415  -0.013  0.00  0.00    +0.043 A 
ATOM     19  C   UNL     1       2.404   0.032  -0.021  0.00  0.00    +0.084 A 
ATOM     20  C   UNL     1       1.213  -0.680  -0.013  0.00  0.00    +0.141 A 
ATOM     21  C   UNL     1       0.002  -0.004   0.002  0.00  0.00    +0.033 A 
ATOM     22 CL   UNL     1       3.921  -0.811  -0.040  0.00  0.00    -0.080 Cl
ATOM     23 CL   UNL     1       1.145   3.822   0.011  0.00  0.00    -0.083 Cl
BRANCH  20  24
ATOM     24  O   UNL     1       1.233  -2.040  -0.021  0.00  0.00    -0.505 OA
ATOM     25  H   UNL     1       1.248  -2.438   0.860  0.00  0.00    +0.292 HD
ENDBRANCH  20  24
ENDBRANCH   1  21
BRANCH   6  26
ATOM     26  S   UNL     1      -0.485  -2.149   6.694  0.00  0.00    +0.057 S 
ATOM     27  O   UNL     1       0.861  -2.529   6.947  0.00  0.00    -0.153 OA
ATOM     28  O   UNL     1      -1.045  -0.946   7.204  0.00  0.00    -0.153 OA
BRANCH  26  29
ATOM     29  N   UNL     1      -1.438  -3.385   7.245  0.00  0.00    -0.203 NA
ATOM     30  H   UNL     1      -1.960  -3.912   6.619  0.00  0.00    +0.144 HD
ATOM     31  H   UNL     1      -1.475  -3.584   8.193  0.00  0.00    +0.144 HD
ENDBRANCH  26  29
ENDBRANCH   6  26
TORSDOF 4
