REMARK  Name = ZINC09563081
REMARK  5 active torsions:
REMARK  status: ('A' for Active; 'I' for Inactive)
REMARK    1  A    between atoms: C_1  and  C_2
REMARK    2  A    between atoms: C_5  and  N_9
REMARK    3  A    between atoms: C_7  and  C_8
REMARK    4  A    between atoms: N_16  and  N_19
REMARK    5  A    between atoms: C_20  and  C_22
REMARK                            x       y       z     vdW  Elec       q    Type
REMARK                         _______ _______ _______ _____ _____    ______ ____
ROOT
ATOM      1  N   UNL     1       3.585   2.124  -0.021  0.00  0.00    -0.214 N 
ATOM      2  C   UNL     1       4.737   1.754   0.602  0.00  0.00    +0.170 A 
ATOM      3  C   UNL     1       5.681   2.756   0.327  0.00  0.00    +0.105 A 
ATOM      4  C   UNL     1       5.042   3.726  -0.468  0.00  0.00    +0.150 A 
ATOM      5  N   UNL     1       3.809   3.346  -0.668  0.00  0.00    -0.172 NA
ATOM      6  C   UNL     1       7.026   2.606   0.881  0.00  0.00    +0.282 A 
ATOM      7  O   UNL     1       7.889   3.444   0.683  0.00  0.00    -0.265 OA
ATOM      8  N   UNL     1       7.273   1.509   1.635  0.00  0.00    -0.212 N 
ATOM      9  C   UNL     1       6.298   0.590   1.845  0.00  0.00    +0.224 A 
ATOM     10  N   UNL     1       5.097   0.705   1.357  0.00  0.00    -0.216 NA
ENDROOT
BRANCH   1  15
ATOM     11  C   UNL     1      -1.294  -0.774   0.010  0.00  0.00    +0.044 C 
ATOM     12  C   UNL     1       0.002  -0.004   0.002  0.00  0.00    -0.047 A 
ATOM     13  C   UNL     1       1.207  -0.682  -0.013  0.00  0.00    +0.006 A 
ATOM     14  C   UNL     1       2.396   0.020  -0.021  0.00  0.00    +0.028 A 
ATOM     15  C   UNL     1       2.381   1.409  -0.013  0.00  0.00    +0.068 A 
ATOM     16  C   UNL     1       1.169   2.087   0.002  0.00  0.00    +0.031 A 
ATOM     17  C   UNL     1      -0.017   1.378   0.010  0.00  0.00    -0.046 A 
ATOM     18  C   UNL     1      -1.332   2.113   0.020  0.00  0.00    +0.044 C 
ENDBRANCH   1  15
BRANCH   8  19
ATOM     19  N   UNL     1       8.544   1.318   2.193  0.00  0.00    -0.215 N 
ATOM     20  C   UNL     1       9.385   0.411   1.658  0.00  0.00    +0.264 C 
ATOM     21  O   UNL     1       9.041  -0.241   0.691  0.00  0.00    -0.268 OA
ATOM     22  H   UNL     1       8.819   1.838   2.964  0.00  0.00    +0.176 HD
BRANCH  20  23
ATOM     23  C   UNL     1      10.726   0.209   2.246  0.00  0.00    +0.058 A 
ATOM     24  C   UNL     1      11.124   0.956   3.356  0.00  0.00    +0.029 A 
ATOM     25  C   UNL     1      12.377   0.762   3.901  0.00  0.00    +0.019 A 
ATOM     26  C   UNL     1      13.239  -0.171   3.349  0.00  0.00    +0.017 A 
ATOM     27  C   UNL     1      12.851  -0.915   2.250  0.00  0.00    +0.022 A 
ATOM     28  C   UNL     1      11.598  -0.734   1.697  0.00  0.00    +0.053 A 
ATOM     29 CL   UNL     1      11.110  -1.674   0.321  0.00  0.00    -0.083 Cl
ATOM     30 BR   UNL     1      12.918   1.773   5.405  0.00  0.00    -0.050 Br
ENDBRANCH  20  23
ENDBRANCH   8  19
TORSDOF 3
