REMARK  Name = ZINC13299599
REMARK  7 active torsions:
REMARK  status: ('A' for Active; 'I' for Inactive)
REMARK    1  A    between atoms: C_3  and  O_21
REMARK    2  A    between atoms: C_6  and  C_7
REMARK    3  A    between atoms: N_8  and  N_9
REMARK    4  A    between atoms: N_9  and  C_10
REMARK    5  A    between atoms: CA_12  and  C_18
REMARK    6  A    between atoms: O_21  and  C_22
REMARK    7  A    between atoms: C_22  and  C_23
REMARK                            x       y       z     vdW  Elec       q    Type
REMARK                         _______ _______ _______ _____ _____    ______ ____
ROOT
ATOM      1  C   UNL     1      -2.500   1.008   0.019  0.00  0.00    +0.138 C 
ATOM      2  N   UNL     1      -3.631   1.645   0.028  0.00  0.00    -0.190 NA
ENDROOT
BRANCH   1   8
ATOM      3  C   UNL     1      -0.013   1.076   0.008  0.00  0.00    +0.013 A 
ATOM      4  C   UNL     1       1.171   1.782   0.001  0.00  0.00    +0.046 A 
ATOM      5  C   UNL     1       1.153   3.171   0.008  0.00  0.00    +0.121 A 
ATOM      6  C   UNL     1      -0.056   3.854   0.022  0.00  0.00    +0.046 A 
ATOM      7  C   UNL     1      -1.244   3.156   0.030  0.00  0.00    +0.013 A 
ATOM      8  C   UNL     1      -1.232   1.759   0.017  0.00  0.00    -0.005 A 
BRANCH   5   9
ATOM      9  O   UNL     1       2.322   3.863   0.000  0.00  0.00    -0.483 OA
BRANCH   9  10
ATOM     10  C   UNL     1       2.232   5.289   0.008  0.00  0.00    +0.324 C 
BRANCH  10  11
ATOM     11  C   UNL     1       3.618   5.880  -0.002  0.00  0.00    +0.248 C 
ATOM     12  O   UNL     1       4.588   5.152  -0.015  0.00  0.00    -0.272 OA
ATOM     13  N   UNL     1       3.780   7.218   0.003  0.00  0.00    -0.327 N 
ATOM     14  H   UNL     1       3.005   7.801   0.014  0.00  0.00    +0.145 HD
ATOM     15  H   UNL     1       4.673   7.599  -0.003  0.00  0.00    +0.145 HD
ENDBRANCH  10  11
ENDBRANCH   9  10
ENDBRANCH   5   9
ENDBRANCH   1   8
BRANCH   2  16
ATOM     16  N   UNL     1      -4.837   0.931   0.030  0.00  0.00    -0.235 N 
ATOM     17  H   UNL     1      -4.827  -0.039   0.025  0.00  0.00    +0.174 HD
BRANCH  16  18
ATOM     18  C   UNL     1      -6.050   1.614   0.039  0.00  0.00    +0.090 A 
ATOM     19  C   UNL     1      -7.244   0.957  -0.269  0.00  0.00    +0.097 A 
ATOM     20  CA  UNL     1      -8.434   1.678  -0.247  0.00  0.00    +0.173 A 
ATOM     21  N   UNL     1      -8.438   2.971   0.062  0.00  0.00    -0.225 NA
ATOM     22  C   UNL     1      -7.330   3.618   0.357  0.00  0.00    +0.150 A 
ATOM     23  C   UNL     1      -6.105   2.969   0.362  0.00  0.00    +0.102 A 
ATOM     24 CL   UNL     1      -4.654   3.836   0.761  0.00  0.00    -0.078 Cl
ATOM     25 CL   UNL     1      -7.405   5.307   0.751  0.00  0.00    -0.060 Cl
ATOM     26 CL   UNL     1      -7.242  -0.731  -0.672  0.00  0.00    -0.079 Cl
BRANCH  20  27
ATOM     27  C   UNL     1      -9.707   0.998  -0.572  0.00  0.00    +0.406 C 
ATOM     28  O   UNL     1      -9.710  -0.183  -0.855  0.00  0.00    -0.239 OA
ATOM     29  OXT UNL     1     -10.864   1.689  -0.552  0.00  0.00    -0.239 OA
ENDBRANCH  20  27
ENDBRANCH  16  18
ENDBRANCH   2  16
TORSDOF 7
