REMARK  Name = ZINC32815203
REMARK  8 active torsions:
REMARK  status: ('A' for Active; 'I' for Inactive)
REMARK    1  A    between atoms: C_1  and  C_2
REMARK    2  A    between atoms: C_5  and  C_7
REMARK    3  A    between atoms: C_7  and  C_8
REMARK    4  A    between atoms: N_10  and  N_11
REMARK    5  A    between atoms: C_12  and  C_14
REMARK    6  A    between atoms: C_14  and  N_15
REMARK    7  A    between atoms: C_20  and  C_22
REMARK    8  A    between atoms: N_24  and  C_25
REMARK                            x       y       z     vdW  Elec       q    Type
REMARK                         _______ _______ _______ _____ _____    ______ ____
ROOT
ATOM      1  N   UNL     1       2.390   0.901   0.205  0.00  0.00    +0.393 N 
ATOM      2  C   UNL     1       3.795   1.292   0.379  0.00  0.00    -0.077 C 
ATOM      3  C   UNL     1       3.926   2.194   1.608  0.00  0.00    -0.019 C 
ATOM      4  C   UNL     1       3.050   3.436   1.419  0.00  0.00    -0.003 C 
ATOM      5  C   UNL     1       1.601   2.999   1.192  0.00  0.00    -0.006 C 
ATOM      6  C   UNL     1       1.537   2.074  -0.025  0.00  0.00    +0.020 C 
ATOM      7  H   UNL     1       2.057   0.422   1.137  0.00  0.00    -0.080 HD
ENDROOT
BRANCH   6   8
ATOM      8  C   UNL     1       0.114   1.625  -0.241  0.00  0.00    +0.204 C 
ATOM      9  O   UNL     1      -0.261   0.562   0.205  0.00  0.00    -0.277 OA
ATOM     10  N   UNL     1      -0.740   2.404  -0.935  0.00  0.00    -0.287 N 
ATOM     11  H   UNL     1      -0.379   3.327  -1.412  0.00  0.00    +0.155 HD
BRANCH  10  12
ATOM     12  C   UNL     1      -2.086   2.037  -1.049  0.00  0.00    +0.035 A 
ATOM     13  C   UNL     1      -2.716   1.372  -0.006  0.00  0.00    +0.025 A 
ATOM     14  C   UNL     1      -4.044   1.011  -0.120  0.00  0.00    +0.023 A 
ATOM     15  C   UNL     1      -4.748   1.311  -1.273  0.00  0.00    +0.059 A 
ATOM     16  C   UNL     1      -4.122   1.974  -2.316  0.00  0.00    +0.061 A 
ATOM     17  C   UNL     1      -2.794   2.343  -2.203  0.00  0.00    +0.044 A 
ATOM     18 CL   UNL     1      -5.007   2.349  -3.761  0.00  0.00    -0.082 Cl
ATOM     19 CL   UNL     1      -6.417   0.855  -1.414  0.00  0.00    -0.082 Cl
ENDBRANCH  10  12
ENDBRANCH   6   8
BRANCH   1  20
ATOM     20  C   UNL     1       2.246  -0.076  -0.883  0.00  0.00    +0.021 C 
BRANCH  20  22
ATOM     21  N   UNL     1       2.814  -0.228  -3.286  0.00  0.00    -0.236 N 
ATOM     22  C   UNL     1       2.769   0.519  -2.165  0.00  0.00    +0.213 C 
ATOM     23  O   UNL     1       3.151   1.670  -2.188  0.00  0.00    -0.276 OA
ATOM     24  H   UNL     1       2.468  -1.272  -3.265  0.00  0.00    +0.173 HD
BRANCH  21  27
ATOM     25  C   UNL     1       3.345  -0.422  -5.598  0.00  0.00    +0.235 C 
ATOM     26  O   UNL     1       2.964  -1.573  -5.575  0.00  0.00    -0.274 OA
ATOM     27  N   UNL     1       3.300   0.325  -4.478  0.00  0.00    -0.234 N 
ATOM     28  H   UNL     1       3.646   1.369  -4.498  0.00  0.00    +0.173 HD
BRANCH  25  29
ATOM     29  C   UNL     1       3.868   0.173  -6.880  0.00  0.00    +0.160 C 
BRANCH  29  34
ATOM     30  C   UNL     1       1.819  -2.354 -10.681  0.00  0.00    +0.066 C 
ATOM     31  C   UNL     1       2.947  -2.069  -9.723  0.00  0.00    +0.046 A 
ATOM     32  C   UNL     1       4.100  -2.784  -9.773  0.00  0.00    +0.070 A 
ATOM     33  S   UNL     1       5.019  -2.019  -8.445  0.00  0.00    -0.080 S 
ATOM     34  C   UNL     1       3.812  -0.862  -7.974  0.00  0.00    +0.087 A 
ATOM     35  N   UNL     1       2.835  -1.125  -8.812  0.00  0.00    -0.249 NA
ENDBRANCH  29  34
ENDBRANCH  25  29
ENDBRANCH  21  27
ENDBRANCH  20  22
ENDBRANCH   1  20
TORSDOF 7
