REMARK  Name = ZINC14923407
REMARK  11 active torsions:
REMARK  status: ('A' for Active; 'I' for Inactive)
REMARK    1  A    between atoms: C_1  and  C_2
REMARK    2  A    between atoms: C_2  and  C_4
REMARK    3  A    between atoms: C_2  and  N_56
REMARK    4  A    between atoms: N_6  and  C_7
REMARK    5  A    between atoms: C_8  and  C_15
REMARK    6  A    between atoms: C_18  and  N_56
REMARK    7  A    between atoms: C_19  and  C_20
REMARK    8  A    between atoms: C_19  and  N_56
REMARK    9  A    between atoms: N_22  and  C_23
REMARK   10  A    between atoms: C_28  and  O_29
REMARK   11  A    between atoms: O_29  and  C_30
REMARK                            x       y       z     vdW  Elec       q    Type
REMARK                         _______ _______ _______ _____ _____    ______ ____
ROOT
ATOM      1  C   UNL     1       5.416   8.055  -1.443  0.00  0.00    -0.004 C 
ATOM      2  C   UNL     1       4.565   8.243  -0.185  0.00  0.00    +0.017 C 
ENDROOT
BRANCH   2   3
ATOM      3  C   UNL     1       4.209   9.699  -0.032  0.00  0.00    +0.204 C 
ATOM      4  O   UNL     1       3.045  10.041  -0.022  0.00  0.00    -0.277 OA
ATOM      5  N   UNL     1       5.184  10.621   0.095  0.00  0.00    -0.281 N 
ATOM      6  H   UNL     1       6.114  10.347   0.086  0.00  0.00    +0.155 HD
BRANCH   5   7
ATOM      7  C   UNL     1       4.856  11.961   0.236  0.00  0.00    +0.084 A 
ATOM      8  C   UNL     1       5.707  13.043   0.382  0.00  0.00    +0.068 A 
ATOM      9  C   UNL     1       5.101  14.368   0.510  0.00  0.00    -0.023 A 
ATOM     10  C   UNL     1       3.756  14.387   0.479  0.00  0.00    -0.004 A 
ATOM     11  S   UNL     1       3.285  12.686   0.279  0.00  0.00    -0.077 S 
ATOM     12  C   UNL     1       3.207  15.781   0.618  0.00  0.00    +0.043 C 
ATOM     13  C   UNL     1       4.407  16.704   0.309  0.00  0.00    +0.010 C 
ATOM     14  C   UNL     1       5.601  15.803   0.683  0.00  0.00    +0.037 C 
BRANCH   8  15
ATOM     15  C   UNL     1       7.162  12.869   0.405  0.00  0.00    +0.244 C 
ATOM     16  O   UNL     1       7.797  12.914  -0.632  0.00  0.00    -0.270 OA
ATOM     17  N   UNL     1       7.797  12.657   1.575  0.00  0.00    -0.325 N 
ATOM     18  H   UNL     1       7.291  12.621   2.402  0.00  0.00    +0.145 HD
ATOM     19  H   UNL     1       8.760  12.541   1.590  0.00  0.00    +0.145 HD
ENDBRANCH   8  15
ENDBRANCH   5   7
ENDBRANCH   2   3
BRANCH   2  21
ATOM     20  C   UNL     1       2.620   7.766  -1.547  0.00  0.00    -0.094 C 
ATOM     21  N   UNL     1       3.318   7.455  -0.281  0.00  0.00    +0.391 N 
ATOM     22  H   UNL     1       2.706   7.701   0.506  0.00  0.00    -0.080 HD
BRANCH  21  23
ATOM     23  C   UNL     1       3.626   6.011  -0.216  0.00  0.00    +0.020 C 
BRANCH  23  24
ATOM     24  C   UNL     1       2.335   5.243  -0.094  0.00  0.00    +0.201 C 
ATOM     25  O   UNL     1       1.277   5.835  -0.081  0.00  0.00    -0.278 OA
ATOM     26  N   UNL     1       2.357   3.899   0.000  0.00  0.00    -0.284 N 
ATOM     27  H   UNL     1       3.205   3.430   0.054  0.00  0.00    +0.155 HD
BRANCH  26  28
ATOM     28  C   UNL     1       1.156   3.178   0.020  0.00  0.00    +0.077 A 
ATOM     29  C   UNL     1       0.035   3.712   0.638  0.00  0.00    +0.047 A 
ATOM     30  C   UNL     1      -1.150   2.999   0.655  0.00  0.00    +0.043 A 
ATOM     31  C   UNL     1      -1.222   1.756   0.052  0.00  0.00    +0.024 A 
ATOM     32  C   UNL     1      -0.107   1.216  -0.560  0.00  0.00    +0.049 A 
ATOM     33  C   UNL     1       1.084   1.924  -0.582  0.00  0.00    +0.141 A 
ATOM     34 CL   UNL     1      -2.553   3.668   1.429  0.00  0.00    -0.083 Cl
BRANCH  33  35
ATOM     35  O   UNL     1       2.180   1.396  -1.190  0.00  0.00    -0.493 OA
ATOM     36  C   UNL     1       2.033   0.106  -1.786  0.00  0.00    +0.277 C 
ENDBRANCH  33  35
ENDBRANCH  26  28
ENDBRANCH  23  24
ENDBRANCH  21  23
ENDBRANCH   2  21
TORSDOF 8
