REMARK  Name = ZINC00925142
REMARK  6 active torsions:
REMARK  status: ('A' for Active; 'I' for Inactive)
REMARK    1  A    between atoms: C_1  and  C_2
REMARK    2  A    between atoms: C_9  and  C_13
REMARK    3  A    between atoms: C_16  and  C_32
REMARK    4  A    between atoms: N_18  and  C_26
REMARK    5  A    between atoms: C_21  and  N_25
REMARK    6  A    between atoms: C_22  and  C_23
REMARK                            x       y       z     vdW  Elec       q    Type
REMARK                         _______ _______ _______ _____ _____    ______ ____
ROOT
ATOM      1  C   UNL     1       2.558   1.966  -0.010  0.00  0.00    +0.104 C 
ATOM      2  C   UNL     1       1.096   2.332   0.004  0.00  0.00    +0.050 A 
ATOM      3  C   UNL     1      -0.018   1.503   0.010  0.00  0.00    +0.068 A 
ATOM      4  N   UNL     1      -1.092   2.257   0.019  0.00  0.00    -0.168 NA
ATOM      5  N   UNL     1      -0.690   3.602   0.027  0.00  0.00    -0.200 N 
ATOM      6  C   UNL     1       0.660   3.628   0.014  0.00  0.00    +0.230 A 
ATOM      7  O   UNL     1       1.508   4.686   0.009  0.00  0.00    -0.423 OA
ATOM      8  C   UNL     1       2.803   4.447  -0.283  0.00  0.00    +0.200 C 
ATOM      9  C   UNL     1       3.352   3.212  -0.311  0.00  0.00    +0.098 C 
ATOM     10  C   UNL     1       0.002  -0.004   0.002  0.00  0.00    +0.068 C 
ENDROOT
BRANCH   1  19
ATOM     11  C   UNL     1       3.379   2.611   7.337  0.00  0.00    +0.044 C 
ATOM     12  C   UNL     1       3.493   1.819   6.059  0.00  0.00    -0.050 A 
ATOM     13  C   UNL     1       3.992   0.518   6.099  0.00  0.00    +0.005 A 
ATOM     14  C   UNL     1       4.108  -0.225   4.965  0.00  0.00    +0.028 A 
ATOM     15  C   UNL     1       3.720   0.324   3.729  0.00  0.00    +0.073 A 
ATOM     16  C   UNL     1       3.214   1.647   3.692  0.00  0.00    +0.001 A 
ATOM     17  C   UNL     1       3.108   2.383   4.882  0.00  0.00    +0.013 A 
ATOM     18  C   UNL     1       2.832   2.197   2.453  0.00  0.00    +0.017 A 
ATOM     19  C   UNL     1       2.958   1.421   1.337  0.00  0.00    +0.003 A 
ATOM     20  C   UNL     1       3.463   0.125   1.443  0.00  0.00    +0.134 A 
ATOM     21  N   UNL     1       3.823  -0.382   2.599  0.00  0.00    -0.235 NA
ATOM     22 CL   UNL     1       3.621  -0.841   0.010  0.00  0.00    -0.062 Cl
ENDBRANCH   1  19
BRANCH   5  23
ATOM     23  C   UNL     1      -1.538   4.718   0.042  0.00  0.00    +0.069 A 
ATOM     24  C   UNL     1      -1.171   5.862   0.738  0.00  0.00    +0.028 A 
ATOM     25  C   UNL     1      -2.006   6.962   0.746  0.00  0.00    +0.002 A 
ATOM     26  C   UNL     1      -3.212   6.921   0.071  0.00  0.00    +0.000 A 
ATOM     27  C   UNL     1      -3.583   5.782  -0.620  0.00  0.00    +0.002 A 
ATOM     28  C   UNL     1      -2.749   4.681  -0.636  0.00  0.00    +0.028 A 
ENDBRANCH   5  23
BRANCH   8  29
ATOM     29  N   UNL     1       3.610   5.520  -0.568  0.00  0.00    -0.328 N 
ATOM     30  H   UNL     1       3.245   6.418  -0.556  0.00  0.00    +0.145 HD
ATOM     31  H   UNL     1       4.546   5.379  -0.782  0.00  0.00    +0.145 HD
ENDBRANCH   8  29
BRANCH   9  32
ATOM     32  C   UNL     1       4.740   3.082  -0.640  0.00  0.00    +0.101 C 
ATOM     33  N   UNL     1       5.841   2.979  -0.901  0.00  0.00    -0.191 NA
ENDBRANCH   9  32
TORSDOF 4
