REMARK  Name = ZINC00694177
REMARK  10 active torsions:
REMARK  status: ('A' for Active; 'I' for Inactive)
REMARK    1  A    between atoms: C_1  and  C_2
REMARK    2  A    between atoms: C_3  and  C_33
REMARK    3  A    between atoms: C_4  and  N_32
REMARK    4  A    between atoms: C_9  and  C_10
REMARK    5  A    between atoms: C_13  and  O_16
REMARK    6  A    between atoms: O_16  and  C_17
REMARK    7  A    between atoms: C_17  and  C_18
REMARK    8  A    between atoms: C_22  and  C_24
REMARK    9  A    between atoms: C_27  and  C_31
REMARK   10  A    between atoms: C_28  and  C_29
REMARK                            x       y       z     vdW  Elec       q    Type
REMARK                         _______ _______ _______ _____ _____    ______ ____
ROOT
ATOM      1  C   UNL     1      -9.085   7.128   1.727  0.00  0.00    +0.046 C 
ATOM      2  C   UNL     1      -9.541   6.309   2.907  0.00  0.00    -0.020 A 
ATOM      3  C   UNL     1     -10.799   6.519   3.484  0.00  0.00    +0.095 A 
ATOM      4  C   UNL     1     -11.186   5.732   4.586  0.00  0.00    +0.135 A 
ATOM      5  N   UNL     1     -10.387   4.800   5.071  0.00  0.00    -0.230 NA
ATOM      6  C   UNL     1      -9.181   4.573   4.554  0.00  0.00    +0.092 A 
ATOM      7  C   UNL     1      -8.725   5.326   3.452  0.00  0.00    +0.013 A 
ATOM      8  C   UNL     1      -7.372   4.834   3.121  0.00  0.00    -0.011 C 
ATOM      9  C   UNL     1      -6.563   5.297   2.100  0.00  0.00    +0.016 C 
ATOM     10  C   UNL     1      -7.052   3.809   4.038  0.00  0.00    -0.023 C 
ATOM     11  C   UNL     1      -8.108   3.628   4.907  0.00  0.00    +0.081 C 
ATOM     12  C   UNL     1      -5.759   3.034   4.065  0.00  0.00    +0.046 C 
ENDROOT
BRANCH   9  13
ATOM     13  C   UNL     1      -5.152   4.912   2.054  0.00  0.00    -0.024 A 
ATOM     14  C   UNL     1      -4.364   4.984   3.212  0.00  0.00    +0.011 A 
ATOM     15  C   UNL     1      -3.048   4.623   3.162  0.00  0.00    +0.046 A 
ATOM     16  C   UNL     1      -2.488   4.185   1.966  0.00  0.00    +0.121 A 
ATOM     17  C   UNL     1      -3.264   4.117   0.812  0.00  0.00    +0.046 A 
ATOM     18  C   UNL     1      -4.582   4.470   0.850  0.00  0.00    +0.011 A 
BRANCH  16  19
ATOM     19  O   UNL     1      -1.180   3.828   1.923  0.00  0.00    -0.487 OA
BRANCH  19  20
ATOM     20  C   UNL     1      -0.669   3.388   0.663  0.00  0.00    +0.264 C 
BRANCH  20  21
ATOM     21  C   UNL     1       0.789   3.037   0.807  0.00  0.00    -0.010 A 
ATOM     22  C   UNL     1       1.159   1.747   1.147  0.00  0.00    +0.007 A 
ATOM     23  C   UNL     1       2.495   1.415   1.277  0.00  0.00    +0.001 A 
ATOM     24  C   UNL     1       3.470   2.369   1.067  0.00  0.00    +0.015 A 
ATOM     25  C   UNL     1       3.104   3.672   0.723  0.00  0.00    +0.064 A 
ATOM     26  C   UNL     1       1.753   4.000   0.595  0.00  0.00    +0.022 A 
BRANCH  25  27
ATOM     27  C   UNL     1       4.142   4.698   0.497  0.00  0.00    +0.387 C 
ATOM     28  O   UNL     1       3.821   5.831   0.199  0.00  0.00    -0.241 OA
ATOM     29  O   UNL     1       5.445   4.378   0.623  0.00  0.00    -0.241 OA
ENDBRANCH  25  27
ENDBRANCH  20  21
ENDBRANCH  19  20
ENDBRANCH  16  19
ENDBRANCH   9  13
BRANCH   4  30
ATOM     30  N   UNL     1     -12.429   5.932   5.164  0.00  0.00    -0.342 N 
ATOM     31  H   UNL     1     -12.740   5.322   6.025  0.00  0.00    +0.144 HD
ATOM     32  H   UNL     1     -13.104   6.701   4.762  0.00  0.00    +0.144 HD
ENDBRANCH   4  30
BRANCH  11  33
ATOM     33  C   UNL     1      -8.154   2.677   5.977  0.00  0.00    +0.102 C 
ATOM     34  N   UNL     1      -8.191   1.923   6.825  0.00  0.00    -0.191 NA
ENDBRANCH  11  33
BRANCH   3  35
ATOM     35  C   UNL     1     -11.679   7.519   2.961  0.00  0.00    +0.103 C 
ATOM     36  N   UNL     1     -12.378   8.313   2.546  0.00  0.00    -0.191 NA
ENDBRANCH   3  35
TORSDOF 8
