REMARK  Name = ZINC65799424
REMARK  4 active torsions:
REMARK  status: ('A' for Active; 'I' for Inactive)
REMARK    1  A    between atoms: C_1  and  C_2
REMARK    2  A    between atoms: C_6  and  C_8
REMARK    3  A    between atoms: C_12  and  N_15
REMARK    4  A    between atoms: N_18  and  C_19
REMARK                            x       y       z     vdW  Elec       q    Type
REMARK                         _______ _______ _______ _____ _____    ______ ____
ROOT
ATOM      1  C   UNL     1       0.026   1.505  -0.006  0.00  0.00    +0.039 C 
ATOM      2  C   UNL     1       0.038  -0.025  -0.007  0.00  0.00    +0.133 C 
ATOM      3  C   UNL     1      -1.403  -0.548   0.004  0.00  0.00    +0.137 C 
ATOM      4  N   UNL     1      -1.367  -2.007   0.192  0.00  0.00    -0.312 N 
ATOM      5  C   UNL     1      -0.563  -2.541   1.303  0.00  0.00    +0.137 C 
ATOM      6  C   UNL     1       0.837  -1.921   1.229  0.00  0.00    +0.133 C 
ATOM      7  O   UNL     1       0.719  -0.498   1.157  0.00  0.00    -0.371 OA
ATOM      8  C   UNL     1       1.634  -2.306   2.477  0.00  0.00    +0.039 C 
ATOM      9  C   UNL     1      -2.072  -2.857  -0.656  0.00  0.00    +0.099 A 
ATOM     10  C   UNL     1      -2.910  -2.319  -1.627  0.00  0.00    +0.043 A 
ATOM     11  C   UNL     1      -3.605  -3.172  -2.464  0.00  0.00    +0.028 A 
ATOM     12  C   UNL     1      -3.437  -4.546  -2.300  0.00  0.00    +0.051 A 
ATOM     13  C   UNL     1      -2.585  -5.010  -1.311  0.00  0.00    +0.107 A 
ATOM     14  N   UNL     1      -1.932  -4.167  -0.532  0.00  0.00    -0.348 N 
ATOM     15  H   UNL     1      -1.339  -4.517   0.150  0.00  0.00    +0.167 HD
ENDROOT
BRANCH  12  16
ATOM     16  N   UNL     1      -4.123  -5.448  -3.127  0.00  0.00    -0.268 N 
ATOM     17  C   UNL     1      -4.361  -5.135  -4.415  0.00  0.00    +0.308 C 
ATOM     18  O   UNL     1      -3.894  -4.117  -4.889  0.00  0.00    -0.252 OA
ATOM     19  N   UNL     1      -5.117  -5.949  -5.179  0.00  0.00    -0.267 N 
ATOM     20  H   UNL     1      -4.426  -6.298  -2.770  0.00  0.00    +0.156 HD
ATOM     21  H   UNL     1      -5.436  -6.792  -4.820  0.00  0.00    +0.156 HD
BRANCH  19  22
ATOM     22  C   UNL     1      -5.441  -5.578  -6.489  0.00  0.00    +0.072 A 
ATOM     23  C   UNL     1      -4.537  -4.857  -7.263  0.00  0.00    +0.028 A 
ATOM     24  C   UNL     1      -4.902  -4.513  -8.555  0.00  0.00    +0.022 A 
ATOM     25  C   UNL     1      -6.143  -4.894  -9.030  0.00  0.00    +0.112 A 
ATOM     26  N   UNL     1      -6.979  -5.577  -8.271  0.00  0.00    -0.242 NA
ATOM     27  C   UNL     1      -6.668  -5.930  -7.039  0.00  0.00    +0.150 A 
ATOM     28 CL   UNL     1      -7.806  -6.835  -6.091  0.00  0.00    -0.060 Cl
ENDBRANCH  19  22
ENDBRANCH  12  16
TORSDOF 2
