REMARK  Name = ZINC12024675
REMARK  5 active torsions:
REMARK  status: ('A' for Active; 'I' for Inactive)
REMARK    1  A    between atoms: C_1  and  C_2
REMARK    2  A    between atoms: C_5  and  N_9
REMARK    3  A    between atoms: C_10  and  C_12
REMARK    4  A    between atoms: C_15  and  N_19
REMARK    5  A    between atoms: C_22  and  C_28
REMARK                            x       y       z     vdW  Elec       q    Type
REMARK                         _______ _______ _______ _____ _____    ______ ____
ROOT
ATOM      1  C   UNL     1       1.663  -4.746  -0.717  0.00  0.00    +0.055 A 
ATOM      2  C   UNL     1       2.765  -3.905  -0.533  0.00  0.00    +0.016 A 
ATOM      3  C   UNL     1       2.583  -2.544  -0.450  0.00  0.00    +0.026 A 
ATOM      4  C   UNL     1       1.304  -2.003  -0.536  0.00  0.00    +0.061 A 
ATOM      5  C   UNL     1       0.204  -2.835  -0.719  0.00  0.00    +0.046 A 
ATOM      6  C   UNL     1       0.378  -4.200  -0.809  0.00  0.00    +0.055 A 
ATOM      7 CL   UNL     1      -0.994  -5.238  -1.036  0.00  0.00    -0.083 Cl
ENDROOT
BRANCH   4   8
ATOM      8  N   UNL     1       1.124  -0.623  -0.445  0.00  0.00    -0.143 N 
ATOM      9  C   UNL     1       0.004   0.003  -0.052  0.00  0.00    +0.243 C 
ATOM     10  O   UNL     1      -0.969  -0.630   0.299  0.00  0.00    -0.273 OA
ATOM     11  C   UNL     1      -0.015   1.501  -0.054  0.00  0.00    +0.097 C 
ATOM     12  C   UNL     1       1.449   2.017  -0.067  0.00  0.00    +0.201 C 
ATOM     13  S   UNL     1       2.267   0.545  -0.807  0.00  0.00    +0.053 S 
ATOM     14  O   UNL     1       3.429   0.187  -0.072  0.00  0.00    -0.155 OA
ATOM     15  O   UNL     1       2.288   0.635  -2.225  0.00  0.00    -0.155 OA
ATOM     16  C   UNL     1      -0.729   2.009   1.200  0.00  0.00    +0.019 C 
ENDBRANCH   4   8
BRANCH   1  18
ATOM     17  N   UNL     1       3.092  -6.730  -0.723  0.00  0.00    -0.281 N 
ATOM     18  C   UNL     1       1.854  -6.205  -0.812  0.00  0.00    +0.250 C 
ATOM     19  O   UNL     1       0.894  -6.935  -0.971  0.00  0.00    -0.270 OA
ATOM     20  H   UNL     1       3.864  -6.145  -0.662  0.00  0.00    +0.155 HD
BRANCH  17  25
ATOM     21  C   UNL     1       3.794 -12.360  -0.707  0.00  0.00    +0.044 C 
ATOM     22  C   UNL     1       3.607 -10.864  -0.710  0.00  0.00    -0.049 A 
ATOM     23  C   UNL     1       2.598 -10.297  -1.466  0.00  0.00    +0.005 A 
ATOM     24  C   UNL     1       2.424  -8.927  -1.472  0.00  0.00    +0.025 A 
ATOM     25  C   UNL     1       3.265  -8.118  -0.718  0.00  0.00    +0.048 A 
ATOM     26  C   UNL     1       4.282  -8.691   0.036  0.00  0.00    +0.039 A 
ATOM     27  C   UNL     1       4.447 -10.063   0.041  0.00  0.00    +0.020 A 
ATOM     28 BR   UNL     1       5.434  -7.595   1.059  0.00  0.00    -0.048 Br
ENDBRANCH  17  25
ENDBRANCH   1  18
TORSDOF 3
