REMARK  Name = ZINC13447072
REMARK  10 active torsions:
REMARK  status: ('A' for Active; 'I' for Inactive)
REMARK    1  A    between atoms: C_2  and  C_3
REMARK    2  A    between atoms: C_3  and  N_4
REMARK    3  A    between atoms: C_5  and  C_24
REMARK    4  A    between atoms: C_8  and  S_9
REMARK    5  A    between atoms: S_9  and  C_10
REMARK    6  A    between atoms: C_10  and  C_11
REMARK    7  A    between atoms: N_13  and  C_14
REMARK    8  A    between atoms: C_16  and  C_22
REMARK    9  A    between atoms: C_18  and  C_20
REMARK   10  A    between atoms: C_28  and  N_30
REMARK                            x       y       z     vdW  Elec       q    Type
REMARK                         _______ _______ _______ _____ _____    ______ ____
ROOT
ATOM      1  S   UNL     1      -0.733   9.671   1.164  0.00  0.00    -0.077 S 
ENDROOT
BRANCH   1   6
ATOM      2  N   UNL     1      -1.001   6.896   0.937  0.00  0.00    -0.298 N 
ATOM      3  C   UNL     1      -0.215   5.857   0.495  0.00  0.00    +0.165 A 
ATOM      4  N   UNL     1       0.920   6.377   0.090  0.00  0.00    -0.128 NA
ATOM      5  N   UNL     1       0.900   7.652   0.250  0.00  0.00    -0.122 NA
ATOM      6  C   UNL     1      -0.249   8.024   0.769  0.00  0.00    +0.193 A 
BRANCH   3   7
ATOM      7  C   UNL     1      -0.582   4.425   0.475  0.00  0.00    +0.021 A 
ATOM      8  C   UNL     1      -1.626   3.957   1.276  0.00  0.00    +0.012 A 
ATOM      9  C   UNL     1      -1.966   2.621   1.249  0.00  0.00    +0.003 A 
ATOM     10  C   UNL     1      -1.268   1.742   0.439  0.00  0.00    +0.033 A 
ATOM     11  C   UNL     1      -0.233   2.199  -0.357  0.00  0.00    +0.127 A 
ATOM     12  C   UNL     1       0.114   3.534  -0.343  0.00  0.00    +0.044 A 
BRANCH  11  13
ATOM     13  N   UNL     1       0.504   1.253  -1.224  0.00  0.00    +0.056 N 
ATOM     14  O   UNL     1       0.199   0.074  -1.237  0.00  0.00    -0.126 OA
ATOM     15  O   UNL     1       1.416   1.654  -1.925  0.00  0.00    -0.126 OA
ENDBRANCH  11  13
ENDBRANCH   3   7
BRANCH   2  16
ATOM     16  C   UNL     1      -2.360   6.811   1.478  0.00  0.00    +0.152 C 
BRANCH  16  18
ATOM     17  C   UNL     1      -2.940   7.510   3.744  0.00  0.00    +0.005 C 
ATOM     18  C   UNL     1      -2.295   6.666   2.977  0.00  0.00    -0.013 C 
ENDBRANCH  16  18
ENDBRANCH   2  16
ENDBRANCH   1   6
BRANCH   1  19
ATOM     19  C   UNL     1       0.756  10.566   0.657  0.00  0.00    +0.173 C 
BRANCH  19  20
ATOM     20  C   UNL     1       0.567  12.040   0.911  0.00  0.00    +0.227 C 
ATOM     21  O   UNL     1      -0.472  12.445   1.387  0.00  0.00    -0.275 OA
ATOM     22  N   UNL     1       1.553  12.908   0.608  0.00  0.00    -0.285 N 
ATOM     23  H   UNL     1       2.356  12.594   0.164  0.00  0.00    +0.155 HD
BRANCH  22  24
ATOM     24  C   UNL     1       1.417  14.262   0.934  0.00  0.00    +0.035 A 
ATOM     25  C   UNL     1       0.173  14.871   0.858  0.00  0.00    +0.038 A 
ATOM     26  C   UNL     1       0.034  16.221   1.188  0.00  0.00    +0.066 A 
ATOM     27  C   UNL     1       1.148  16.959   1.583  0.00  0.00    +0.030 A 
ATOM     28  C   UNL     1       2.397  16.345   1.653  0.00  0.00    +0.066 A 
ATOM     29  C   UNL     1       2.529  14.994   1.327  0.00  0.00    +0.038 A 
BRANCH  28  30
ATOM     30  C   UNL     1       3.581  17.123   2.072  0.00  0.00    +0.387 C 
ATOM     31  O   UNL     1       4.670  16.587   2.134  0.00  0.00    -0.241 OA
ATOM     32  O   UNL     1       3.454  18.427   2.387  0.00  0.00    -0.241 OA
ENDBRANCH  28  30
BRANCH  26  33
ATOM     33  C   UNL     1      -1.293  16.867   1.112  0.00  0.00    +0.387 C 
ATOM     34  O   UNL     1      -2.263  16.223   0.767  0.00  0.00    -0.241 OA
ATOM     35  O   UNL     1      -1.426  18.171   1.425  0.00  0.00    -0.241 OA
ENDBRANCH  26  33
ENDBRANCH  22  24
ENDBRANCH  19  20
ENDBRANCH   1  19
TORSDOF 10
