REMARK  Name = ZINC36661102
REMARK  12 active torsions:
REMARK  status: ('A' for Active; 'I' for Inactive)
REMARK    1  A    between atoms: C_1  and  C_2
REMARK    2  A    between atoms: C_2  and  N_3
REMARK    3  A    between atoms: N_6  and  C_9
REMARK    4  A    between atoms: C_12  and  N_16
REMARK    5  A    between atoms: C_14  and  C_15
REMARK    6  A    between atoms: C_17  and  C_19
REMARK    7  A    between atoms: C_20  and  C_33
REMARK    8  A    between atoms: C_22  and  C_32
REMARK    9  A    between atoms: C_24  and  C_28
REMARK   10  A    between atoms: C_28  and  C_29
REMARK   11  A    between atoms: C_28  and  C_30
REMARK   12  A    between atoms: C_28  and  C_31
REMARK                            x       y       z     vdW  Elec       q    Type
REMARK                         _______ _______ _______ _____ _____    ______ ____
ROOT
ATOM      1  N   UNL     1       6.821  -5.630  -4.380  0.00  0.00    -0.281 N 
ATOM      2  C   UNL     1       7.578  -5.449  -5.480  0.00  0.00    +0.255 C 
ATOM      3  O   UNL     1       7.319  -4.548  -6.255  0.00  0.00    -0.269 OA
ATOM      4  H   UNL     1       7.071  -6.299  -3.723  0.00  0.00    +0.155 HD
ENDROOT
BRANCH   2   5
ATOM      5  C   UNL     1       8.717  -6.340  -5.742  0.00  0.00    +0.080 A 
ATOM      6  C   UNL     1       9.591  -6.312  -6.784  0.00  0.00    -0.020 A 
ATOM      7  C   UNL     1      10.623  -7.261  -6.855  0.00  0.00    +0.032 A 
ATOM      8  C   UNL     1      11.633  -7.417  -7.837  0.00  0.00    +0.050 A 
ATOM      9  N   UNL     1      12.513  -8.386  -7.708  0.00  0.00    -0.236 NA
ATOM     10  C   UNL     1      12.494  -9.230  -6.690  0.00  0.00    +0.136 A 
ATOM     11  N   UNL     1      11.582  -9.141  -5.742  0.00  0.00    -0.224 NA
ATOM     12  C   UNL     1      10.664  -8.201  -5.792  0.00  0.00    +0.113 A 
ATOM     13  S   UNL     1       9.297  -7.718  -4.769  0.00  0.00    -0.064 S 
ATOM     14  C   UNL     1      11.698  -6.482  -9.017  0.00  0.00    +0.066 C 
ATOM     15  C   UNL     1       9.451  -5.266  -7.859  0.00  0.00    +0.046 C 
BRANCH  10  16
ATOM     16  C   UNL     1      13.537 -10.315  -6.612  0.00  0.00    +0.022 C 
ATOM     17  C   UNL     1      14.928  -9.683  -6.555  0.00  0.00    +0.019 C 
ATOM     18  C   UNL     1      13.306 -11.155  -5.354  0.00  0.00    +0.019 C 
ATOM     19  C   UNL     1      13.434 -11.211  -7.849  0.00  0.00    +0.019 C 
ENDBRANCH  10  16
ENDBRANCH   2   5
BRANCH   1  23
ATOM     20  C   UNL     1       3.403  -3.313  -3.798  0.00  0.00    +0.033 A 
ATOM     21  C   UNL     1       4.144  -3.745  -2.705  0.00  0.00    +0.025 A 
ATOM     22  C   UNL     1       5.275  -4.512  -2.897  0.00  0.00    +0.025 A 
ATOM     23  C   UNL     1       5.673  -4.852  -4.184  0.00  0.00    +0.034 A 
ATOM     24  C   UNL     1       4.932  -4.421  -5.277  0.00  0.00    +0.028 A 
ATOM     25  C   UNL     1       3.797  -3.658  -5.084  0.00  0.00    -0.028 A 
ATOM     26  C   UNL     1       2.990  -3.195  -6.269  0.00  0.00    +0.046 C 
BRANCH  20  30
ATOM     27  N   UNL     1       0.242  -1.109  -2.292  0.00  0.00    +0.382 N 
ATOM     28  C   UNL     1       1.610  -0.575  -2.307  0.00  0.00    -0.060 C 
ATOM     29  C   UNL     1       2.336  -1.067  -3.563  0.00  0.00    +0.086 C 
ATOM     30  N   UNL     1       2.256  -2.536  -3.602  0.00  0.00    -0.333 N 
ATOM     31  C   UNL     1       0.937  -3.164  -3.430  0.00  0.00    +0.086 C 
ATOM     32  C   UNL     1       0.278  -2.572  -2.179  0.00  0.00    -0.060 C 
ATOM     33  H   UNL     1      -0.227  -0.850  -3.147  0.00  0.00    -0.082 HD
BRANCH  27  35
ATOM     34  C   UNL     1      -0.633   0.964  -1.324  0.00  0.00    -0.017 C 
ATOM     35  C   UNL     1      -0.487  -0.549  -1.146  0.00  0.00    -0.082 C 
ENDBRANCH  27  35
ENDBRANCH  20  30
ENDBRANCH   1  23
TORSDOF 5
