REMARK  Name = ZINC37227450
REMARK  5 active torsions:
REMARK  status: ('A' for Active; 'I' for Inactive)
REMARK    1  A    between atoms: C_1  and  C_2
REMARK    2  A    between atoms: C_2  and  C_4
REMARK    3  A    between atoms: C_2  and  C_15
REMARK    4  A    between atoms: C_4  and  N_5
REMARK    5  A    between atoms: N_5  and  C_6
REMARK                            x       y       z     vdW  Elec       q    Type
REMARK                         _______ _______ _______ _____ _____    ______ ____
ROOT
ATOM      1  N   UNL     1      -2.105  -0.148  -1.230  0.00  0.00    -0.341 N 
ATOM      2  H   UNL     1      -1.949   0.797  -1.081  0.00  0.00    +0.146 HD
ENDROOT
BRANCH   1   3
ATOM      3  C   UNL     1      -3.398  -0.609  -1.498  0.00  0.00    +0.055 A 
ATOM      4  C   UNL     1      -4.205  -1.060  -0.461  0.00  0.00    +0.041 A 
ATOM      5  C   UNL     1      -5.483  -1.514  -0.729  0.00  0.00    +0.032 A 
ATOM      6  C   UNL     1      -5.958  -1.521  -2.028  0.00  0.00    +0.020 A 
ATOM      7  C   UNL     1      -5.157  -1.072  -3.063  0.00  0.00    +0.032 A 
ATOM      8  C   UNL     1      -3.881  -0.611  -2.801  0.00  0.00    +0.041 A 
ATOM      9 BR   UNL     1      -2.789   0.008  -4.216  0.00  0.00    -0.048 Br
ATOM     10 BR   UNL     1      -7.706  -2.144  -2.390  0.00  0.00    -0.050 Br
ATOM     11 BR   UNL     1      -3.556  -1.053   1.315  0.00  0.00    -0.048 Br
ENDBRANCH   1   3
BRANCH   1  12
ATOM     12  C   UNL     1      -0.988  -1.094  -1.176  0.00  0.00    +0.114 C 
BRANCH  12  14
ATOM     13  C   UNL     1       0.171   0.216   0.609  0.00  0.00    +0.019 C 
ATOM     14  C   UNL     1       0.296  -0.345  -0.809  0.00  0.00    +0.089 C 
BRANCH  14  15
ATOM     15  C   UNL     1       1.465  -1.293  -0.873  0.00  0.00    +0.215 C 
ATOM     16  O   UNL     1       1.290  -2.453  -1.181  0.00  0.00    -0.276 OA
ATOM     17  N   UNL     1       2.707  -0.852  -0.587  0.00  0.00    -0.329 N 
ATOM     18  H   UNL     1       2.847   0.075  -0.340  0.00  0.00    +0.145 HD
ATOM     19  H   UNL     1       3.459  -1.462  -0.628  0.00  0.00    +0.145 HD
ENDBRANCH  14  15
ENDBRANCH  12  14
ENDBRANCH   1  12
TORSDOF 4
