REMARK  Name = ZINC39592260
REMARK  9 active torsions:
REMARK  status: ('A' for Active; 'I' for Inactive)
REMARK    1  A    between atoms: C_1  and  C_2
REMARK    2  A    between atoms: C_5  and  C_8
REMARK    3  A    between atoms: C_10  and  C_14
REMARK    4  A    between atoms: C_18  and  S_22
REMARK    5  A    between atoms: N_20  and  N_21
REMARK    6  A    between atoms: S_22  and  C_23
REMARK    7  A    between atoms: C_23  and  C_24
REMARK    8  A    between atoms: N_26  and  C_27
REMARK    9  A    between atoms: C_31  and  C_33
REMARK                            x       y       z     vdW  Elec       q    Type
REMARK                         _______ _______ _______ _____ _____    ______ ____
ROOT
ATOM      1  C   UNL     1       1.332  -7.196   0.971  0.00  0.00    +0.185 C 
ATOM      2  N   UNL     1       2.539  -6.536   0.409  0.00  0.00    -0.234 NA
ATOM      3  N   UNL     1       3.558  -7.589   0.392  0.00  0.00    -0.228 NA
ATOM      4  C   UNL     1       2.841  -8.880   0.369  0.00  0.00    +0.214 C 
ATOM      5  N   UNL     1       1.392  -8.560   0.383  0.00  0.00    -0.197 NA
ATOM      6  H   UNL     1       2.362  -6.190  -0.522  0.00  0.00    +0.143 HD
ATOM      7  H   UNL     1       4.161  -7.496  -0.412  0.00  0.00    +0.143 HD
ENDROOT
BRANCH   1  10
ATOM      8  C   UNL     1       0.018  -4.280  -0.024  0.00  0.00    +0.091 C 
ATOM      9  C   UNL     1       0.031  -5.055   1.077  0.00  0.00    +0.034 C 
ATOM     10  C   UNL     1       0.061  -6.470   0.526  0.00  0.00    +0.187 C 
ATOM     11  N   UNL     1       0.060  -6.262  -0.932  0.00  0.00    -0.176 NA
ATOM     12  N   UNL     1       0.030  -5.048  -1.145  0.00  0.00    -0.154 NA
BRANCH   8  17
ATOM     13  C   UNL     1      -0.102   1.478   0.013  0.00  0.00    +0.044 C 
ATOM     14  C   UNL     1      -0.071  -0.029   0.003  0.00  0.00    -0.050 A 
ATOM     15  C   UNL     1      -0.059  -0.710  -1.200  0.00  0.00    +0.004 A 
ATOM     16  C   UNL     1      -0.030  -2.089  -1.215  0.00  0.00    +0.010 A 
ATOM     17  C   UNL     1      -0.013  -2.796  -0.015  0.00  0.00    +0.002 A 
ATOM     18  C   UNL     1      -0.025  -2.105   1.195  0.00  0.00    +0.010 A 
ATOM     19  C   UNL     1      -0.048  -0.725   1.198  0.00  0.00    +0.004 A 
ENDBRANCH   8  17
ENDBRANCH   1  10
BRANCH   5  20
ATOM     20  N   UNL     1       0.653  -9.511   1.196  0.00  0.00    -0.264 NA
ATOM     21  H   UNL     1       0.694 -10.437   0.797  0.00  0.00    +0.137 HD
ATOM     22  H   UNL     1       0.989  -9.512   2.147  0.00  0.00    +0.137 HD
ENDBRANCH   5  20
BRANCH   4  23
ATOM     23  S   UNL     1       3.264  -9.800  -1.136  0.00  0.00    -0.115 S 
BRANCH  23  24
ATOM     24  C   UNL     1       2.774  -8.688  -2.483  0.00  0.00    +0.168 C 
BRANCH  24  25
ATOM     25  C   UNL     1       3.075  -9.340  -3.808  0.00  0.00    +0.227 C 
ATOM     26  O   UNL     1       3.572 -10.445  -3.840  0.00  0.00    -0.275 OA
ATOM     27  N   UNL     1       2.793  -8.694  -4.956  0.00  0.00    -0.285 N 
ATOM     28  H   UNL     1       2.335  -7.839  -4.932  0.00  0.00    +0.155 HD
BRANCH  27  29
ATOM     29  C   UNL     1       3.161  -9.256  -6.184  0.00  0.00    +0.034 A 
ATOM     30  C   UNL     1       3.571  -8.438  -7.229  0.00  0.00    +0.024 A 
ATOM     31  C   UNL     1       3.934  -8.996  -8.439  0.00  0.00    +0.017 A 
ATOM     32  C   UNL     1       3.889 -10.368  -8.611  0.00  0.00    +0.021 A 
ATOM     33  C   UNL     1       3.481 -11.185  -7.572  0.00  0.00    -0.035 A 
ATOM     34  C   UNL     1       3.122 -10.633  -6.358  0.00  0.00    +0.027 A 
ATOM     35  C   UNL     1       3.433 -12.679  -7.763  0.00  0.00    +0.045 C 
ATOM     36 BR   UNL     1       4.385 -11.128 -10.270  0.00  0.00    -0.050 Br
ENDBRANCH  27  29
ENDBRANCH  24  25
ENDBRANCH  23  24
ENDBRANCH   4  23
TORSDOF 7
