REMARK  Name = ZINC24584411
REMARK  7 active torsions:
REMARK  status: ('A' for Active; 'I' for Inactive)
REMARK    1  A    between atoms: C_1  and  C_2
REMARK    2  A    between atoms: C_4  and  C_15
REMARK    3  A    between atoms: C_5  and  C_14
REMARK    4  A    between atoms: N_6  and  C_7
REMARK    5  A    between atoms: N_17  and  N_18
REMARK    6  A    between atoms: C_19  and  C_21
REMARK    7  A    between atoms: C_22  and  C_32
REMARK                            x       y       z     vdW  Elec       q    Type
REMARK                         _______ _______ _______ _____ _____    ______ ____
ROOT
ATOM      1  C   UNL     1       4.387  -1.749  -0.040  0.00  0.00    +0.262 C 
ATOM      2  O   UNL     1       3.482  -2.561  -0.035  0.00  0.00    -0.269 OA
ATOM      3  N   UNL     1       4.110  -0.431  -0.032  0.00  0.00    -0.230 N 
ATOM      4  H   UNL     1       4.929   0.304  -0.036  0.00  0.00    +0.173 HD
ENDROOT
BRANCH   1   8
ATOM      5  C   UNL     1       9.489  -1.797  -0.081  0.00  0.00    +0.064 C 
ATOM      6  C   UNL     1       8.039  -2.207  -0.071  0.00  0.00    +0.022 A 
ATOM      7  C   UNL     1       6.989  -1.367  -0.059  0.00  0.00    +0.036 A 
ATOM      8  C   UNL     1       5.787  -2.207  -0.053  0.00  0.00    +0.059 A 
ATOM      9  C   UNL     1       6.227  -3.502  -0.056  0.00  0.00    +0.033 A 
ATOM     10  N   UNL     1       7.576  -3.492  -0.073  0.00  0.00    -0.317 N 
ATOM     11  C   UNL     1       5.355  -4.731  -0.046  0.00  0.00    +0.064 C 
BRANCH  10  12
ATOM     12  C   UNL     1       8.386  -4.637  -0.085  0.00  0.00    +0.047 A 
ATOM     13  C   UNL     1       8.361  -5.495  -1.175  0.00  0.00    +0.029 A 
ATOM     14  C   UNL     1       9.164  -6.619  -1.188  0.00  0.00    +0.040 A 
ATOM     15  C   UNL     1       9.986  -6.895  -0.108  0.00  0.00    +0.124 A 
ATOM     16  C   UNL     1      10.009  -6.043   0.983  0.00  0.00    +0.040 A 
ATOM     17  C   UNL     1       9.211  -4.915   0.997  0.00  0.00    +0.029 A 
ATOM     18  F   UNL     1      10.767  -7.997  -0.120  0.00  0.00    -0.205 F 
ENDBRANCH  10  12
ENDBRANCH   1   8
BRANCH   3  19
ATOM     19  N   UNL     1       2.778   0.005  -0.020  0.00  0.00    -0.229 N 
ATOM     20  C   UNL     1       2.501   1.324  -0.012  0.00  0.00    +0.277 C 
ATOM     21  O   UNL     1       3.407   2.136  -0.016  0.00  0.00    -0.267 OA
ATOM     22  H   UNL     1       1.959  -0.729  -0.016  0.00  0.00    +0.173 HD
BRANCH  20  23
ATOM     23  C   UNL     1       1.105   1.781   0.001  0.00  0.00    +0.107 A 
ATOM     24  C   UNL     1       0.691   3.083   0.010  0.00  0.00    -0.010 A 
ATOM     25  C   UNL     1      -0.709   3.059   0.021  0.00  0.00    +0.042 A 
ATOM     26  C   UNL     1      -1.109   1.722   0.016  0.00  0.00    +0.027 A 
ATOM     27  N   UNL     1      -0.011   0.966   0.007  0.00  0.00    -0.354 N 
ATOM     28  H   UNL     1       0.106  -0.128   0.005  0.00  0.00    +0.166 HD
ATOM     29  C   UNL     1      -2.556   1.301   0.039  0.00  0.00    +0.054 C 
ATOM     30  C   UNL     1      -3.413   2.460   0.558  0.00  0.00    +0.014 C 
ATOM     31  C   UNL     1      -3.127   3.740  -0.232  0.00  0.00    +0.080 C 
ATOM     32  C   UNL     1      -1.688   4.157   0.030  0.00  0.00    +0.165 C 
ATOM     33  O   UNL     1      -1.370   5.310   0.230  0.00  0.00    -0.292 OA
ATOM     34  C   UNL     1       1.570   4.308   0.008  0.00  0.00    +0.047 C 
ENDBRANCH  20  23
ENDBRANCH   3  19
TORSDOF 4
