REMARK  Name = ZINC14917630
REMARK  8 active torsions:
REMARK  status: ('A' for Active; 'I' for Inactive)
REMARK    1  A    between atoms: C_1  and  C_2
REMARK    2  A    between atoms: C_7  and  N_8
REMARK    3  A    between atoms: C_9  and  C_11
REMARK    4  A    between atoms: C_11  and  C_13
REMARK    5  A    between atoms: C_11  and  N_14
REMARK    6  A    between atoms: N_17  and  S_20
REMARK    7  A    between atoms: S_20  and  C_23
REMARK    8  A    between atoms: C_27  and  C_29
REMARK                            x       y       z     vdW  Elec       q    Type
REMARK                         _______ _______ _______ _____ _____    ______ ____
ROOT
ATOM      1  N   UNL     1      -0.121  -0.900   5.998  0.00  0.00    +0.389 N 
ATOM      2  C   UNL     1       1.089  -1.723   5.886  0.00  0.00    -0.060 C 
ATOM      3  C   UNL     1       1.082  -2.793   6.983  0.00  0.00    +0.091 C 
ATOM      4  N   UNL     1       0.920  -2.126   8.284  0.00  0.00    -0.180 NA
ATOM      5  C   UNL     1      -0.176  -1.156   8.434  0.00  0.00    +0.091 C 
ATOM      6  C   UNL     1      -0.109  -0.163   7.269  0.00  0.00    -0.060 C 
ATOM      7  H   UNL     1      -0.934  -1.496   5.964  0.00  0.00    -0.081 HD
ENDROOT
BRANCH   4   8
ATOM      8  S   UNL     1       1.942  -2.458   9.544  0.00  0.00    +0.061 S 
ATOM      9  O   UNL     1       1.236  -2.135  10.735  0.00  0.00    -0.153 OA
ATOM     10  O   UNL     1       2.477  -3.751   9.303  0.00  0.00    -0.153 OA
BRANCH   8  11
ATOM     11  C   UNL     1       3.288  -1.326   9.435  0.00  0.00    +0.106 A 
ATOM     12  C   UNL     1       4.411  -1.657   8.699  0.00  0.00    +0.028 A 
ATOM     13  C   UNL     1       5.467  -0.770   8.613  0.00  0.00    +0.002 A 
ATOM     14  C   UNL     1       5.401   0.449   9.263  0.00  0.00    +0.012 A 
ATOM     15  C   UNL     1       4.278   0.780   9.998  0.00  0.00    +0.057 A 
ATOM     16  C   UNL     1       3.220  -0.106  10.080  0.00  0.00    +0.041 A 
BRANCH  15  17
ATOM     17  C   UNL     1       4.206   2.108  10.707  0.00  0.00    +0.417 C 
ATOM     18  F   UNL     1       5.384   2.825  10.474  0.00  0.00    -0.166 F 
ATOM     19  F   UNL     1       3.114   2.836  10.223  0.00  0.00    -0.166 F 
ATOM     20  F   UNL     1       4.053   1.895  12.081  0.00  0.00    -0.166 F 
ENDBRANCH  15  17
ENDBRANCH   8  11
ENDBRANCH   4   8
BRANCH   1  21
ATOM     21  C   UNL     1      -0.168   0.054   4.882  0.00  0.00    +0.017 C 
ATOM     22  C   UNL     1      -1.362   0.993   5.064  0.00  0.00    -0.004 C 
BRANCH  21  24
ATOM     23  N   UNL     1      -0.111  -0.065   2.412  0.00  0.00    -0.287 N 
ATOM     24  C   UNL     1      -0.313  -0.699   3.584  0.00  0.00    +0.203 C 
ATOM     25  O   UNL     1      -0.612  -1.874   3.595  0.00  0.00    -0.277 OA
ATOM     26  H   UNL     1       0.202   0.853   2.404  0.00  0.00    +0.155 HD
BRANCH  23  33
ATOM     27  C   UNL     1      -1.110   1.446   0.218  0.00  0.00    +0.045 C 
ATOM     28  C   UNL     1      -0.841  -0.032   0.110  0.00  0.00    -0.029 A 
ATOM     29  C   UNL     1      -1.074  -0.692  -1.081  0.00  0.00    +0.006 A 
ATOM     30  C   UNL     1      -0.827  -2.048  -1.182  0.00  0.00    +0.020 A 
ATOM     31  C   UNL     1      -0.346  -2.750  -0.090  0.00  0.00    +0.043 A 
ATOM     32  C   UNL     1      -0.111  -2.096   1.104  0.00  0.00    +0.043 A 
ATOM     33  C   UNL     1      -0.353  -0.732   1.206  0.00  0.00    +0.038 A 
ATOM     34 CL   UNL     1      -0.038  -4.454  -0.221  0.00  0.00    -0.083 Cl
ENDBRANCH  23  33
ENDBRANCH  21  24
ENDBRANCH   1  21
TORSDOF 6
