REMARK  Name = ZINC38553601
REMARK  5 active torsions:
REMARK  status: ('A' for Active; 'I' for Inactive)
REMARK    1  A    between atoms: C_1  and  N_2
REMARK    2  A    between atoms: N_7  and  C_10
REMARK    3  A    between atoms: N_11  and  C_14
REMARK    4  A    between atoms: C_14  and  C_15
REMARK    5  A    between atoms: C_26  and  C_29
REMARK                            x       y       z     vdW  Elec       q    Type
REMARK                         _______ _______ _______ _____ _____    ______ ____
ROOT
ATOM      1  C   UNL     1      -2.962  -4.486   1.166  0.00  0.00    +0.235 C 
ATOM      2  O   UNL     1      -2.837  -3.705   2.086  0.00  0.00    -0.274 OA
ATOM      3  N   UNL     1      -3.358  -5.752   1.406  0.00  0.00    -0.297 N 
ATOM      4  C   UNL     1      -3.508  -6.711   0.302  0.00  0.00    +0.127 C 
ATOM      5  C   UNL     1      -2.652  -7.946   0.607  0.00  0.00    +0.126 C 
ATOM      6  N   UNL     1      -2.942  -8.392   1.977  0.00  0.00    -0.307 N 
ATOM      7  C   UNL     1      -2.792  -7.434   3.081  0.00  0.00    +0.126 C 
ATOM      8  C   UNL     1      -3.643  -6.200   2.776  0.00  0.00    +0.127 C 
ATOM      9  C   UNL     1      -3.346  -9.682   2.221  0.00  0.00    +0.151 C 
ATOM     10  N   UNL     1      -3.790 -10.448   1.246  0.00  0.00    -0.258 N 
ATOM     11  N   UNL     1      -4.189 -11.644   1.383  0.00  0.00    -0.176 NA
ATOM     12  C   UNL     1      -4.572 -12.261   2.446  0.00  0.00    +0.079 C 
ATOM     13  C   UNL     1      -4.638 -11.581   3.795  0.00  0.00    +0.134 C 
ATOM     14  S   UNL     1      -3.277 -10.363   3.854  0.00  0.00    -0.085 S 
ATOM     15  H   UNL     1      -3.814 -10.068   0.354  0.00  0.00    +0.191 HD
ENDROOT
BRANCH  12  16
ATOM     16  C   UNL     1      -4.960 -13.677   2.345  0.00  0.00    -0.001 A 
ATOM     17  C   UNL     1      -5.386 -14.371   3.482  0.00  0.00    +0.011 A 
ATOM     18  C   UNL     1      -5.749 -15.697   3.380  0.00  0.00    +0.020 A 
ATOM     19  C   UNL     1      -5.692 -16.342   2.155  0.00  0.00    +0.041 A 
ATOM     20  C   UNL     1      -5.271 -15.661   1.025  0.00  0.00    +0.020 A 
ATOM     21  C   UNL     1      -4.910 -14.333   1.111  0.00  0.00    +0.011 A 
ATOM     22 CL   UNL     1      -6.149 -18.012   2.036  0.00  0.00    -0.084 Cl
ENDBRANCH  12  16
BRANCH   1  23
ATOM     23  C   UNL     1      -2.674  -4.042  -0.244  0.00  0.00    +0.219 C 
BRANCH  23  34
ATOM     24  C   UNL     1       0.005   1.448  -0.019  0.00  0.00    +0.155 C 
ATOM     25  N   UNL     1       0.070  -0.013   0.070  0.00  0.00    -0.280 N 
ATOM     26  C   UNL     1      -1.077  -0.768  -0.110  0.00  0.00    +0.168 A 
ATOM     27  C   UNL     1      -0.989  -2.152  -0.021  0.00  0.00    +0.152 A 
ATOM     28  C   UNL     1       0.263  -2.746   0.249  0.00  0.00    +0.282 A 
ATOM     29  O   UNL     1       0.366  -3.956   0.331  0.00  0.00    -0.265 OA
ATOM     30  N   UNL     1       1.345  -1.956   0.414  0.00  0.00    -0.262 N 
ATOM     31  C   UNL     1       1.246  -0.619   0.320  0.00  0.00    +0.333 A 
ATOM     32  O   UNL     1       2.243   0.061   0.469  0.00  0.00    -0.246 OA
ATOM     33  C   UNL     1       2.647  -2.566   0.694  0.00  0.00    +0.157 C 
ATOM     34  N   UNL     1      -2.264  -2.635  -0.239  0.00  0.00    -0.316 N 
ATOM     35  C   UNL     1      -3.059  -1.567  -0.446  0.00  0.00    +0.202 A 
ATOM     36  N   UNL     1      -2.352  -0.469  -0.368  0.00  0.00    -0.218 NA
ENDBRANCH  23  34
ENDBRANCH   1  23
TORSDOF 3
