REMARK  Name = ZINC63138928
REMARK  6 active torsions:
REMARK  status: ('A' for Active; 'I' for Inactive)
REMARK    1  A    between atoms: C_1  and  C_2
REMARK    2  A    between atoms: C_2  and  C_3
REMARK    3  A    between atoms: C_2  and  C_4
REMARK    4  A    between atoms: C_7  and  C_10
REMARK    5  A    between atoms: N_29  and  C_32
REMARK    6  A    between atoms: C_32  and  C_33
REMARK                            x       y       z     vdW  Elec       q    Type
REMARK                         _______ _______ _______ _____ _____    ______ ____
ROOT
ATOM      1  C   UNL     1      -5.419  -2.005   0.043  0.00  0.00    +0.133 C 
ATOM      2  C   UNL     1      -5.414  -3.442   0.563  0.00  0.00    +0.131 C 
ATOM      3  C   UNL     1      -6.784  -4.018   0.212  0.00  0.00    -0.034 C 
ATOM      4  C   UNL     1      -7.366  -4.346   1.357  0.00  0.00    -0.001 A 
ATOM      5  C   UNL     1      -8.669  -4.963   1.653  0.00  0.00    +0.010 A 
ATOM      6  C   UNL     1      -8.956  -5.159   2.966  0.00  0.00    +0.001 A 
ATOM      7  C   UNL     1      -8.088  -4.806   4.004  0.00  0.00    +0.002 A 
ATOM      8  C   UNL     1      -6.870  -4.236   3.825  0.00  0.00    +0.026 A 
ATOM      9  C   UNL     1      -6.455  -3.981   2.485  0.00  0.00    +0.043 A 
ATOM     10  N   UNL     1      -5.334  -3.458   2.030  0.00  0.00    -0.375 N 
ATOM     11  C   UNL     1      -7.252  -4.101  -1.215  0.00  0.00    +0.065 C 
ATOM     12  C   UNL     1      -6.864  -2.846  -1.954  0.00  0.00    +0.167 C 
ATOM     13  N   UNL     1      -5.967  -1.916  -1.302  0.00  0.00    -0.279 N 
ATOM     14  C   UNL     1      -5.644  -0.800  -2.035  0.00  0.00    +0.234 C 
ATOM     15  O   UNL     1      -4.851   0.021  -1.625  0.00  0.00    -0.274 OA
ATOM     16  C   UNL     1      -6.325  -0.643  -3.378  0.00  0.00    +0.204 C 
ATOM     17  N   UNL     1      -7.754  -0.971  -3.219  0.00  0.00    -0.284 N 
ATOM     18  C   UNL     1      -8.049  -2.101  -2.513  0.00  0.00    +0.237 C 
ATOM     19  O   UNL     1      -9.189  -2.483  -2.350  0.00  0.00    -0.274 OA
ATOM     20  H   UNL     1      -4.588  -3.135   2.559  0.00  0.00    +0.160 HD
ENDROOT
BRANCH   1  24
ATOM     21  C   UNL     1      -1.412  -0.526   0.013  0.00  0.00    -0.045 A 
ATOM     22  C   UNL     1      -2.259  -0.204   1.056  0.00  0.00    +0.004 A 
ATOM     23  C   UNL     1      -3.556  -0.683   1.066  0.00  0.00    +0.006 A 
ATOM     24  C   UNL     1      -4.006  -1.482   0.032  0.00  0.00    -0.025 A 
ATOM     25  C   UNL     1      -3.159  -1.803  -1.012  0.00  0.00    +0.006 A 
ATOM     26  C   UNL     1      -1.863  -1.321  -1.024  0.00  0.00    +0.004 A 
BRANCH  21  28
ATOM     27  C   UNL     1      -0.019   1.526   0.010  0.00  0.00    +0.012 C 
ATOM     28  C   UNL     1       0.002  -0.004   0.002  0.00  0.00    +0.013 C 
ATOM     29  C   UNL     1       0.742  -0.511   1.242  0.00  0.00    +0.012 C 
ENDBRANCH  21  28
ENDBRANCH   1  24
BRANCH  17  30
ATOM     30  C   UNL     1      -8.806  -0.125  -3.788  0.00  0.00    +0.182 C 
BRANCH  30  31
ATOM     31  C   UNL     1      -9.126  -0.592  -5.185  0.00  0.00    +0.122 A 
ATOM     32  C   UNL     1     -10.056  -1.507  -5.514  0.00  0.00    +0.046 A 
ATOM     33  C   UNL     1     -10.019  -1.639  -6.921  0.00  0.00    +0.041 A 
ATOM     34  C   UNL     1      -9.069  -0.798  -7.367  0.00  0.00    +0.195 A 
ATOM     35  O   UNL     1      -8.535  -0.162  -6.312  0.00  0.00    -0.466 OA
ENDBRANCH  30  31
ENDBRANCH  17  30
TORSDOF 4
