REMARK  Name = ZINC13184421
REMARK  7 active torsions:
REMARK  status: ('A' for Active; 'I' for Inactive)
REMARK    1  A    between atoms: C_4  and  C_25
REMARK    2  A    between atoms: C_6  and  S_7
REMARK    3  A    between atoms: S_7  and  N_10
REMARK    4  A    between atoms: N_10  and  C_11
REMARK    5  A    between atoms: C_11  and  C_12
REMARK    6  A    between atoms: C_12  and  N_13
REMARK    7  A    between atoms: C_17  and  C_20
REMARK                            x       y       z     vdW  Elec       q    Type
REMARK                         _______ _______ _______ _____ _____    ______ ____
ROOT
ATOM      1  N   UNL     1      -1.950  -1.144  -1.568  0.00  0.00    -0.188 NA
ATOM      2  H   UNL     1      -2.756  -0.733  -1.916  0.00  0.00    +0.148 HD
ENDROOT
BRANCH   1   3
ATOM      3  S   UNL     1      -1.514  -0.903   0.012  0.00  0.00    +0.058 S 
ATOM      4  O   UNL     1      -1.223  -2.184   0.553  0.00  0.00    -0.153 OA
ATOM      5  O   UNL     1      -2.493  -0.041   0.576  0.00  0.00    -0.153 OA
BRANCH   3  11
ATOM      6  C   UNL     1      -0.017   1.380   0.010  0.00  0.00    +0.031 A 
ATOM      7  C   UNL     1       1.166   2.095   0.002  0.00  0.00    +0.041 A 
ATOM      8  C   UNL     1       2.379   1.431  -0.013  0.00  0.00    +0.138 A 
ATOM      9  C   UNL     1       2.404   0.031  -0.021  0.00  0.00    +0.100 A 
ATOM     10  C   UNL     1       1.202  -0.682  -0.013  0.00  0.00    +0.046 A 
ATOM     11  C   UNL     1       0.002  -0.004   0.002  0.00  0.00    +0.106 A 
ATOM     12  F   UNL     1       3.535   2.130  -0.022  0.00  0.00    -0.205 F 
BRANCH   9  13
ATOM     13  C   UNL     1       3.691  -0.686  -0.038  0.00  0.00    +0.389 C 
ATOM     14  O   UNL     1       3.710  -1.909  -0.045  0.00  0.00    -0.240 OA
ATOM     15  O   UNL     1       4.741  -0.059  -0.046  0.00  0.00    -0.240 OA
ENDBRANCH   9  13
ENDBRANCH   3  11
ENDBRANCH   1   3
BRANCH   1  16
ATOM     16  C   UNL     1      -1.117  -1.978  -2.438  0.00  0.00    +0.124 C 
BRANCH  16  17
ATOM     17  C   UNL     1      -1.905  -2.345  -3.697  0.00  0.00    +0.120 C 
BRANCH  17  18
ATOM     18  N   UNL     1      -1.073  -3.179  -4.568  0.00  0.00    -0.327 N 
ATOM     19  C   UNL     1      -1.577  -3.640  -5.779  0.00  0.00    +0.137 A 
ATOM     20  C   UNL     1      -0.783  -4.436  -6.600  0.00  0.00    +0.081 A 
ATOM     21  C   UNL     1      -1.298  -4.888  -7.802  0.00  0.00    +0.037 A 
ATOM     22  C   UNL     1      -2.595  -4.526  -8.145  0.00  0.00    +0.074 A 
ATOM     23  C   UNL     1      -3.326  -3.733  -7.283  0.00  0.00    +0.125 A 
ATOM     24  N   UNL     1      -2.810  -3.321  -6.140  0.00  0.00    -0.238 NA
ATOM     25 CL   UNL     1       0.832  -4.857  -6.121  0.00  0.00    -0.080 Cl
ATOM     26  H   UNL     1      -0.170  -3.410  -4.300  0.00  0.00    +0.148 HD
BRANCH  22  27
ATOM     27  C   UNL     1      -3.197  -4.994  -9.444  0.00  0.00    +0.419 C 
ATOM     28  F   UNL     1      -3.844  -6.218  -9.244  0.00  0.00    -0.166 F 
ATOM     29  F   UNL     1      -4.122  -4.047  -9.898  0.00  0.00    -0.166 F 
ATOM     30  F   UNL     1      -2.185  -5.151 -10.397  0.00  0.00    -0.166 F 
ENDBRANCH  22  27
ENDBRANCH  17  18
ENDBRANCH  16  17
ENDBRANCH   1  16
TORSDOF 7
