REMARK  Name = ZINC64430527
REMARK  6 active torsions:
REMARK  status: ('A' for Active; 'I' for Inactive)
REMARK    1  A    between atoms: C_3  and  C_27
REMARK    2  A    between atoms: C_5  and  N_7
REMARK    3  A    between atoms: C_8  and  C_10
REMARK    4  A    between atoms: C_10  and  O_11
REMARK    5  A    between atoms: O_11  and  N_12
REMARK    6  A    between atoms: C_13  and  C_14
REMARK                            x       y       z     vdW  Elec       q    Type
REMARK                         _______ _______ _______ _____ _____    ______ ____
ROOT
ATOM      1  N   UNL     1      -1.527  -6.492   0.856  0.00  0.00    -0.069 NA
ATOM      2  C   UNL     1      -2.644  -6.965   0.389  0.00  0.00    +0.163 C 
ATOM      3  N   UNL     1      -2.712  -8.278  -0.045  0.00  0.00    -0.340 N 
ATOM      4  H   UNL     1      -1.926  -8.845  -0.001  0.00  0.00    +0.144 HD
ATOM      5  H   UNL     1      -3.545  -8.632  -0.394  0.00  0.00    +0.144 HD
ENDROOT
BRANCH   2   6
ATOM      6  C   UNL     1      -3.845  -6.099   0.320  0.00  0.00    +0.022 A 
ATOM      7  C   UNL     1      -3.723  -4.707   0.244  0.00  0.00    +0.029 A 
ATOM      8  C   UNL     1      -4.863  -3.935   0.182  0.00  0.00    +0.085 A 
ATOM      9  N   UNL     1      -6.061  -4.489   0.193  0.00  0.00    -0.350 N 
ATOM     10  C   UNL     1      -6.224  -5.801   0.264  0.00  0.00    +0.099 A 
ATOM     11  C   UNL     1      -5.126  -6.651   0.325  0.00  0.00    +0.053 A 
ATOM     12  N   UNL     1      -7.508  -6.335   0.273  0.00  0.00    -0.317 N 
ATOM     13  C   UNL     1      -8.678  -5.472   0.060  0.00  0.00    +0.106 C 
ATOM     14  C   UNL     1      -9.519  -6.054  -1.081  0.00  0.00    +0.019 C 
ATOM     15  C   UNL     1      -9.861  -7.512  -0.765  0.00  0.00    +0.003 C 
ATOM     16  C   UNL     1      -8.571  -8.327  -0.650  0.00  0.00    +0.019 C 
ATOM     17  C   UNL     1      -7.720  -7.772   0.490  0.00  0.00    +0.106 C 
ATOM     18  H   UNL     1      -6.844  -3.919   0.149  0.00  0.00    +0.166 HD
ENDBRANCH   2   6
BRANCH   1  19
ATOM     19  O   UNL     1      -1.492  -5.199   1.431  0.00  0.00    -0.383 OA
BRANCH  19  20
ATOM     20  C   UNL     1      -0.201  -4.807   1.903  0.00  0.00    +0.358 C 
BRANCH  20  22
ATOM     21  N   UNL     1       0.825  -2.844   3.003  0.00  0.00    -0.283 N 
ATOM     22  C   UNL     1      -0.280  -3.423   2.492  0.00  0.00    +0.258 C 
ATOM     23  O   UNL     1      -1.338  -2.829   2.507  0.00  0.00    -0.272 OA
ATOM     24  H   UNL     1       1.685  -3.285   2.923  0.00  0.00    +0.155 HD
BRANCH  21  29
ATOM     25  C   UNL     1       1.692   0.528   4.200  0.00  0.00    +0.003 A 
ATOM     26  C   UNL     1       0.564   0.856   4.923  0.00  0.00    +0.019 A 
ATOM     27  C   UNL     1      -0.495  -0.050   5.014  0.00  0.00    +0.054 A 
ATOM     28  C   UNL     1      -0.407  -1.286   4.372  0.00  0.00    +0.042 A 
ATOM     29  C   UNL     1       0.731  -1.605   3.648  0.00  0.00    +0.035 A 
ATOM     30  C   UNL     1       1.779  -0.697   3.564  0.00  0.00    +0.023 A 
BRANCH  27  31
ATOM     31  C   UNL     1      -1.667   0.288   5.764  0.00  0.00    +0.099 C 
ATOM     32  N   UNL     1      -2.597   0.556   6.359  0.00  0.00    -0.191 NA
ENDBRANCH  27  31
ENDBRANCH  21  29
ENDBRANCH  20  22
ENDBRANCH  19  20
ENDBRANCH   1  19
TORSDOF 6
