REMARK  Name = ZINC06679064
REMARK  5 active torsions:
REMARK  status: ('A' for Active; 'I' for Inactive)
REMARK    1  A    between atoms: C_1  and  C_2
REMARK    2  A    between atoms: C_5  and  N_8
REMARK    3  A    between atoms: C_11  and  C_13
REMARK    4  A    between atoms: C_14  and  C_23
REMARK    5  A    between atoms: C_17  and  C_22
REMARK                            x       y       z     vdW  Elec       q    Type
REMARK                         _______ _______ _______ _____ _____    ______ ____
ROOT
ATOM      1  N   UNL     1      -0.306  -4.154   0.006  0.00  0.00    -0.218 N 
ATOM      2  C   UNL     1       0.662  -4.898   0.643  0.00  0.00    +0.133 A 
ATOM      3  C   UNL     1       0.472  -6.186   0.282  0.00  0.00    +0.033 A 
ATOM      4  C   UNL     1      -0.635  -6.230  -0.591  0.00  0.00    +0.067 A 
ATOM      5  N   UNL     1      -1.096  -5.022  -0.748  0.00  0.00    -0.170 NA
ATOM      6  C   UNL     1      -1.196  -7.472  -1.234  0.00  0.00    +0.068 C 
ATOM      7  C   UNL     1       1.227  -7.419   0.669  0.00  0.00    +0.112 C 
ATOM      8  S   UNL     1       2.982  -7.130   0.909  0.00  0.00    -0.135 S 
ATOM      9  C   UNL     1       3.119  -6.090   2.370  0.00  0.00    +0.130 C 
ATOM     10  C   UNL     1       2.610  -4.720   2.151  0.00  0.00    +0.231 C 
ATOM     11  O   UNL     1       3.252  -3.845   2.693  0.00  0.00    -0.274 OA
ATOM     12  N   UNL     1       1.584  -4.304   1.471  0.00  0.00    -0.269 N 
ATOM     13  C   UNL     1       4.591  -6.007   2.779  0.00  0.00    +0.029 C 
ATOM     14  H   UNL     1       1.433  -3.351   1.572  0.00  0.00    +0.156 HD
ENDROOT
BRANCH   7  15
ATOM     15  C   UNL     1       1.053  -8.452  -0.414  0.00  0.00    -0.026 A 
ATOM     16  C   UNL     1       1.652  -8.266  -1.647  0.00  0.00    +0.009 A 
ATOM     17  C   UNL     1       1.496  -9.211  -2.644  0.00  0.00    +0.050 A 
ATOM     18  C   UNL     1       0.738 -10.347  -2.410  0.00  0.00    +0.166 A 
ATOM     19  C   UNL     1       0.135 -10.534  -1.168  0.00  0.00    +0.167 A 
ATOM     20  C   UNL     1       0.300  -9.585  -0.172  0.00  0.00    +0.054 A 
ATOM     21  O   UNL     1      -0.549 -11.715  -1.189  0.00  0.00    -0.453 OA
ATOM     22  C   UNL     1      -0.696 -12.050  -2.581  0.00  0.00    +0.466 C 
ATOM     23  O   UNL     1       0.432 -11.412  -3.208  0.00  0.00    -0.453 OA
ENDBRANCH   7  15
BRANCH   1  28
ATOM     24  C   UNL     1      -0.979   1.468   0.394  0.00  0.00    +0.044 C 
ATOM     25  C   UNL     1      -0.800  -0.025   0.291  0.00  0.00    -0.050 A 
ATOM     26  C   UNL     1       0.466  -0.559   0.141  0.00  0.00    +0.005 A 
ATOM     27  C   UNL     1       0.633  -1.927   0.046  0.00  0.00    +0.028 A 
ATOM     28  C   UNL     1      -0.472  -2.765   0.102  0.00  0.00    +0.067 A 
ATOM     29  C   UNL     1      -1.742  -2.226   0.253  0.00  0.00    +0.028 A 
ATOM     30  C   UNL     1      -1.903  -0.857   0.352  0.00  0.00    +0.005 A 
ENDBRANCH   1  28
TORSDOF 2
