REMARK  Name = ZINC06546517
REMARK  13 active torsions:
REMARK  status: ('A' for Active; 'I' for Inactive)
REMARK    1  A    between atoms: C_1  and  C_2
REMARK    2  A    between atoms: C_2  and  O_3
REMARK    3  A    between atoms: O_3  and  C_4
REMARK    4  A    between atoms: C_4  and  C_6
REMARK    5  A    between atoms: C_6  and  N_7
REMARK    6  A    between atoms: C_8  and  C_10
REMARK    7  A    between atoms: C_10  and  N_11
REMARK    8  A    between atoms: N_11  and  C_12
REMARK    9  A    between atoms: C_15  and  C_19
REMARK   10  A    between atoms: C_17  and  C_18
REMARK   11  A    between atoms: C_20  and  C_22
REMARK   12  A    between atoms: C_23  and  N_30
REMARK   13  A    between atoms: C_24  and  C_27
REMARK                            x       y       z     vdW  Elec       q    Type
REMARK                         _______ _______ _______ _____ _____    ______ ____
ROOT
ATOM      1  N   UNL     1       2.402   1.107  -0.015  0.00  0.00    -0.258 N 
ATOM      2  C   UNL     1       2.980   0.785  -1.189  0.00  0.00    +0.261 C 
ATOM      3  O   UNL     1       4.043   0.193  -1.203  0.00  0.00    -0.269 OA
ENDROOT
BRANCH   1   4
ATOM      4  C   UNL     1       1.180   1.787   0.000  0.00  0.00    +0.040 A 
ATOM      5  C   UNL     1      -0.013   1.076   0.008  0.00  0.00    +0.024 A 
ATOM      6  C   UNL     1      -1.217   1.751   0.017  0.00  0.00    +0.005 A 
ATOM      7  C   UNL     1      -1.237   3.134   0.029  0.00  0.00    -0.050 A 
ATOM      8  C   UNL     1      -0.051   3.845   0.022  0.00  0.00    +0.008 A 
ATOM      9  C   UNL     1       1.157   3.176   0.008  0.00  0.00    -0.029 A 
ATOM     10  C   UNL     1       2.449   3.952  -0.000  0.00  0.00    +0.045 C 
ATOM     11  C   UNL     1      -2.553   3.867   0.045  0.00  0.00    +0.044 C 
ENDBRANCH   1   4
BRANCH   2  12
ATOM     12  C   UNL     1       2.328   1.148  -2.449  0.00  0.00    +0.116 A 
ATOM     13  C   UNL     1       2.746   0.916  -3.761  0.00  0.00    +0.076 A 
ATOM     14  C   UNL     1       1.848   1.415  -4.704  0.00  0.00    +0.155 A 
ATOM     15  N   UNL     1       0.756   2.022  -4.295  0.00  0.00    -0.203 NA
ATOM     16  S   UNL     1       0.786   1.998  -2.719  0.00  0.00    +0.019 S 
BRANCH  14  17
ATOM     17  C   UNL     1       2.120   1.264  -6.145  0.00  0.00    +0.262 C 
ATOM     18  O   UNL     1       3.132   0.701  -6.517  0.00  0.00    -0.269 OA
ATOM     19  N   UNL     1       1.248   1.749  -7.050  0.00  0.00    -0.324 N 
ATOM     20  H   UNL     1       0.440   2.198  -6.754  0.00  0.00    +0.145 HD
ATOM     21  H   UNL     1       1.427   1.649  -7.998  0.00  0.00    +0.145 HD
ENDBRANCH  14  17
BRANCH  13  22
ATOM     22  N   UNL     1       3.925   0.259  -4.090  0.00  0.00    -0.355 N 
ATOM     23  H   UNL     1       4.510  -0.067  -3.389  0.00  0.00    +0.142 HD
ATOM     24  H   UNL     1       4.162   0.127  -5.021  0.00  0.00    +0.142 HD
ENDBRANCH  13  22
ENDBRANCH   2  12
BRANCH   1  25
ATOM     25  C   UNL     1       3.054   0.744   1.246  0.00  0.00    +0.209 C 
BRANCH  25  27
ATOM     26  N   UNL     1       3.056  -1.165   2.818  0.00  0.00    -0.304 N 
ATOM     27  C   UNL     1       2.586  -0.622   1.678  0.00  0.00    +0.231 C 
ATOM     28  O   UNL     1       1.787  -1.232   1.000  0.00  0.00    -0.274 OA
ATOM     29  H   UNL     1       3.696  -0.678   3.361  0.00  0.00    +0.149 HD
BRANCH  26  30
ATOM     30  C   UNL     1       2.602  -2.493   3.238  0.00  0.00    +0.225 C 
BRANCH  30  31
ATOM     31  C   UNL     1       3.272  -2.867   4.535  0.00  0.00    +0.324 C 
ATOM     32  O   UNL     1       4.050  -2.102   5.055  0.00  0.00    -0.249 OA
BRANCH  31  33
ATOM     33  O   UNL     1       3.006  -4.049   5.113  0.00  0.00    -0.464 OA
BRANCH  33  35
ATOM     34  C   UNL     1       3.260  -5.722   6.864  0.00  0.00    +0.048 C 
ATOM     35  C   UNL     1       3.688  -4.342   6.360  0.00  0.00    +0.229 C 
ENDBRANCH  33  35
ENDBRANCH  31  33
ENDBRANCH  30  31
ENDBRANCH  26  30
ENDBRANCH  25  27
ENDBRANCH   1  25
TORSDOF 10
