REMARK  Name = ZINC09705017
REMARK  1 active torsions:
REMARK  status: ('A' for Active; 'I' for Inactive)
REMARK    1  A    between atoms: C_6  and  N_7
REMARK                            x       y       z     vdW  Elec       q    Type
REMARK                         _______ _______ _______ _____ _____    ______ ____
ROOT
ATOM      1  N   UNL     1      -1.202  -0.723   0.010  0.00  0.00    -0.209 N 
ATOM      2  C   UNL     1      -1.258  -2.081   0.009  0.00  0.00    +0.232 C 
ATOM      3  O   UNL     1      -0.340  -2.848   0.204  0.00  0.00    -0.274 OA
ATOM      4  C   UNL     1      -2.681  -2.437  -0.283  0.00  0.00    +0.109 C 
ATOM      5  C   UNL     1      -3.415  -1.212   0.343  0.00  0.00    +0.152 C 
ATOM      6  C   UNL     1      -2.423  -0.128   0.026  0.00  0.00    +0.240 C 
ATOM      7  O   UNL     1      -2.665   1.042  -0.177  0.00  0.00    -0.274 OA
ATOM      8  S   UNL     1      -5.007  -1.098  -0.513  0.00  0.00    -0.093 S 
ATOM      9  C   UNL     1      -5.563  -2.790  -0.373  0.00  0.00    +0.088 A 
ATOM     10  C   UNL     1      -4.713  -3.775  -0.007  0.00  0.00    +0.032 A 
ATOM     11  S   UNL     1      -5.741  -5.220  -0.013  0.00  0.00    -0.030 S 
ATOM     12  C   UNL     1      -7.184  -4.495  -0.483  0.00  0.00    +0.289 A 
ATOM     13  O   UNL     1      -8.271  -5.018  -0.658  0.00  0.00    -0.260 OA
ATOM     14  N   UNL     1      -6.850  -3.197  -0.620  0.00  0.00    -0.311 N 
ATOM     15  H   UNL     1      -7.520  -2.550  -0.892  0.00  0.00    +0.170 HD
ATOM     16  C   UNL     1      -3.271  -3.684   0.321  0.00  0.00    +0.017 C 
ATOM     17  C   UNL     1      -2.551  -4.939  -0.209  0.00  0.00    +0.013 C 
ATOM     18  C   UNL     1      -1.514  -5.274   0.892  0.00  0.00    +0.001 C 
ATOM     19  C   UNL     1      -2.282  -4.947   2.197  0.00  0.00    +0.001 C 
ATOM     20  C   UNL     1      -3.100  -3.686   1.849  0.00  0.00    +0.013 C 
ENDROOT
BRANCH   1  26
ATOM     21  C   UNL     1      -0.017   1.384   0.010  0.00  0.00    +0.025 A 
ATOM     22  C   UNL     1       1.171   2.090   0.002  0.00  0.00    +0.017 A 
ATOM     23  C   UNL     1       2.378   1.414  -0.013  0.00  0.00    +0.018 A 
ATOM     24  C   UNL     1       2.399   0.031  -0.022  0.00  0.00    +0.017 A 
ATOM     25  C   UNL     1       1.215  -0.679  -0.014  0.00  0.00    +0.025 A 
ATOM     26  C   UNL     1       0.002  -0.004   0.002  0.00  0.00    +0.044 A 
ATOM     27 BR   UNL     1       4.002   2.384  -0.024  0.00  0.00    -0.050 Br
ENDBRANCH   1  26
TORSDOF 1
