REMARK  Name = ZINC03770066
REMARK  11 active torsions:
REMARK  status: ('A' for Active; 'I' for Inactive)
REMARK    1  A    between atoms: C_1  and  C_2
REMARK    2  A    between atoms: C_5  and  N_9
REMARK    3  A    between atoms: C_6  and  C_8
REMARK    4  A    between atoms: C_10  and  C_12
REMARK    5  A    between atoms: C_17  and  C_20
REMARK    6  A    between atoms: C_20  and  C_21
REMARK    7  A    between atoms: C_21  and  O_23
REMARK    8  A    between atoms: O_23  and  C_24
REMARK    9  A    between atoms: C_25  and  N_38
REMARK   10  A    between atoms: C_26  and  C_36
REMARK   11  A    between atoms: C_27  and  C_29
REMARK                            x       y       z     vdW  Elec       q    Type
REMARK                         _______ _______ _______ _____ _____    ______ ____
ROOT
ATOM      1  C   UNL     1      -2.402   1.055   0.131  0.00  0.00    +0.055 C 
ATOM      2  C   UNL     1      -3.561   1.763   0.134  0.00  0.00    +0.086 C 
ATOM      3  N   UNL     1      -4.819   1.199   0.244  0.00  0.00    -0.220 N 
ATOM      4  C   UNL     1      -5.902   2.005   0.235  0.00  0.00    +0.239 C 
ATOM      5  O   UNL     1      -7.023   1.554   0.329  0.00  0.00    -0.274 OA
ATOM      6  C   UNL     1      -5.663   3.492   0.103  0.00  0.00    +0.150 C 
ATOM      7  S   UNL     1      -3.832   3.521   0.005  0.00  0.00    -0.096 S 
ATOM      8  C   UNL     1      -4.928  -0.194   0.362  0.00  0.00    +0.110 C 
ATOM      9  C   UNL     1      -3.871  -1.034   0.375  0.00  0.00    +0.077 C 
ATOM     10  C   UNL     1      -2.477  -0.454   0.251  0.00  0.00    +0.100 C 
ENDROOT
BRANCH  10  11
ATOM     11  C   UNL     1      -1.817  -1.057  -0.963  0.00  0.00    -0.034 A 
ATOM     12  C   UNL     1      -2.310  -0.783  -2.225  0.00  0.00    +0.007 A 
ATOM     13  C   UNL     1      -1.703  -1.331  -3.338  0.00  0.00    +0.038 A 
ATOM     14  C   UNL     1      -0.607  -2.164  -3.189  0.00  0.00    +0.123 A 
ATOM     15  C   UNL     1      -0.117  -2.441  -1.924  0.00  0.00    +0.038 A 
ATOM     16  C   UNL     1      -0.722  -1.887  -0.812  0.00  0.00    +0.007 A 
ATOM     17  F   UNL     1      -0.015  -2.704  -4.277  0.00  0.00    -0.205 F 
ENDBRANCH  10  11
BRANCH   1  19
ATOM     18  N   UNL     1      -0.022   0.988   0.014  0.00  0.00    -0.281 N 
ATOM     19  C   UNL     1      -1.163   1.706   0.014  0.00  0.00    +0.248 C 
ATOM     20  O   UNL     1      -1.119   2.920  -0.086  0.00  0.00    -0.270 OA
ATOM     21  H   UNL     1      -0.059   0.019   0.033  0.00  0.00    +0.155 HD
BRANCH  18  26
ATOM     22  C   UNL     1       4.994   3.633  -0.126  0.00  0.00    +0.044 C 
ATOM     23  C   UNL     1       3.661   2.930  -0.089  0.00  0.00    -0.050 A 
ATOM     24  C   UNL     1       2.579   3.466  -0.763  0.00  0.00    +0.005 A 
ATOM     25  C   UNL     1       1.358   2.822  -0.736  0.00  0.00    +0.024 A 
ATOM     26  C   UNL     1       1.214   1.640  -0.021  0.00  0.00    +0.037 A 
ATOM     27  C   UNL     1       2.303   1.104   0.655  0.00  0.00    -0.029 A 
ATOM     28  C   UNL     1       3.523   1.751   0.619  0.00  0.00    +0.008 A 
ATOM     29  C   UNL     1       2.153  -0.181   1.428  0.00  0.00    +0.045 C 
ENDBRANCH  18  26
ENDBRANCH   1  19
BRANCH   8  30
ATOM     30  N   UNL     1      -6.185  -0.737   0.470  0.00  0.00    -0.345 N 
ATOM     31  H   UNL     1      -6.930  -0.334  -0.004  0.00  0.00    +0.144 HD
ATOM     32  H   UNL     1      -6.329  -1.523   1.019  0.00  0.00    +0.144 HD
ENDBRANCH   8  30
BRANCH   9  33
ATOM     33  C   UNL     1      -4.064  -2.447   0.499  0.00  0.00    +0.099 C 
ATOM     34  N   UNL     1      -4.218  -3.569   0.597  0.00  0.00    -0.191 NA
ENDBRANCH   9  33
BRANCH   6  35
ATOM     35  C   UNL     1      -6.167   4.246   1.335  0.00  0.00    +0.144 C 
BRANCH  35  36
ATOM     36  C   UNL     1      -6.022   5.729   1.111  0.00  0.00    +0.308 C 
ATOM     37  O   UNL     1      -5.563   6.141   0.072  0.00  0.00    -0.251 OA
BRANCH  36  38
ATOM     38  O   UNL     1      -6.403   6.593   2.065  0.00  0.00    -0.468 OA
ATOM     39  C   UNL     1      -6.234   8.006   1.780  0.00  0.00    +0.280 C 
ENDBRANCH  36  38
ENDBRANCH  35  36
ENDBRANCH   6  35
TORSDOF 8
