REMARK  Name = ZINC36867535
REMARK  6 active torsions:
REMARK  status: ('A' for Active; 'I' for Inactive)
REMARK    1  A    between atoms: C_1  and  O_2
REMARK    2  A    between atoms: O_2  and  C_3
REMARK    3  A    between atoms: C_8  and  C_9
REMARK    4  A    between atoms: C_9  and  O_10
REMARK    5  A    between atoms: O_10  and  C_11
REMARK    6  A    between atoms: C_15  and  C_17
REMARK                            x       y       z     vdW  Elec       q    Type
REMARK                         _______ _______ _______ _____ _____    ______ ____
ROOT
ATOM      1  C   UNL     1       0.051  -2.828   0.005  0.00  0.00    +0.268 C 
ENDROOT
BRANCH   1   7
ATOM      2  C   UNL     1       0.626  -0.619   1.042  0.00  0.00    +0.127 A 
ATOM      3  C   UNL     1       1.202   0.139   2.051  0.00  0.00    +0.047 A 
ATOM      4  C   UNL     1       1.836  -0.487   3.107  0.00  0.00    +0.023 A 
ATOM      5  C   UNL     1       1.896  -1.869   3.158  0.00  0.00    +0.042 A 
ATOM      6  C   UNL     1       1.323  -2.626   2.152  0.00  0.00    +0.030 A 
ATOM      7  C   UNL     1       0.682  -2.003   1.097  0.00  0.00    +0.033 A 
ATOM      8 CL   UNL     1       2.694  -2.654   4.485  0.00  0.00    -0.084 Cl
BRANCH   2  10
ATOM      9  C   UNL     1      -0.017   1.425   0.010  0.00  0.00    +0.277 C 
ATOM     10  O   UNL     1       0.002  -0.004   0.002  0.00  0.00    -0.495 OA
ENDBRANCH   2  10
ENDBRANCH   1   7
BRANCH   1  11
ATOM     11  O   UNL     1       0.240  -4.216   0.287  0.00  0.00    -0.487 OA
BRANCH  11  12
ATOM     12  C   UNL     1      -0.272  -5.103  -0.606  0.00  0.00    +0.121 A 
ATOM     13  C   UNL     1      -0.939  -4.646  -1.734  0.00  0.00    +0.045 A 
ATOM     14  C   UNL     1      -1.459  -5.548  -2.641  0.00  0.00    +0.004 A 
ATOM     15  C   UNL     1      -1.315  -6.907  -2.425  0.00  0.00    +0.005 A 
ATOM     16  C   UNL     1      -0.652  -7.365  -1.302  0.00  0.00    -0.029 A 
ATOM     17  C   UNL     1      -0.125  -6.466  -0.395  0.00  0.00    +0.050 A 
BRANCH  16  18
ATOM     18  C   UNL     1      -0.497  -8.846  -1.071  0.00  0.00    +0.143 C 
ATOM     19 CL   UNL     1       1.031  -9.418  -1.838  0.00  0.00    -0.120 Cl
ENDBRANCH  16  18
ENDBRANCH  11  12
ENDBRANCH   1  11
TORSDOF 5
