REMARK  Name = ZINC06315561
REMARK  5 active torsions:
REMARK  status: ('A' for Active; 'I' for Inactive)
REMARK    1  A    between atoms: C_1  and  C_2
REMARK    2  A    between atoms: C_4  and  C_21
REMARK    3  A    between atoms: N_8  and  N_9
REMARK    4  A    between atoms: N_9  and  S_10
REMARK    5  A    between atoms: S_10  and  C_13
REMARK                            x       y       z     vdW  Elec       q    Type
REMARK                         _______ _______ _______ _____ _____    ______ ____
ROOT
ATOM      1  N   UNL     1       3.378   1.390  -1.461  0.00  0.00    -0.108 NA
ATOM      2  H   UNL     1       3.475   0.745  -2.179  0.00  0.00    +0.172 HD
ENDROOT
BRANCH   1  10
ATOM      3  C   UNL     1       8.050   1.347  -3.109  0.00  0.00    +0.066 C 
ATOM      4  C   UNL     1       7.043   2.436  -2.842  0.00  0.00    +0.044 A 
ATOM      5  C   UNL     1       7.370   3.764  -3.068  0.00  0.00    +0.046 A 
ATOM      6  C   UNL     1       6.414   4.734  -2.810  0.00  0.00    +0.044 A 
ATOM      7  N   UNL     1       5.226   4.366  -2.360  0.00  0.00    -0.219 NA
ATOM      8  C   UNL     1       4.945   3.087  -2.155  0.00  0.00    +0.231 A 
ATOM      9  N   UNL     1       5.838   2.136  -2.386  0.00  0.00    -0.219 NA
ATOM     10  N   UNL     1       3.692   2.738  -1.684  0.00  0.00    -0.230 N 
ATOM     11  C   UNL     1       6.724   6.190  -3.041  0.00  0.00    +0.066 C 
ATOM     12  H   UNL     1       3.031   3.425  -1.507  0.00  0.00    +0.171 HD
ENDBRANCH   1  10
BRANCH   1  13
ATOM     13  S   UNL     1       2.841   0.900   0.026  0.00  0.00    +0.075 S 
ATOM     14  O   UNL     1       2.732  -0.516  -0.028  0.00  0.00    -0.152 OA
ATOM     15  O   UNL     1       1.741   1.737   0.357  0.00  0.00    -0.152 OA
BRANCH  13  16
ATOM     16  C   UNL     1       4.117   1.263   1.186  0.00  0.00    +0.125 A 
ATOM     17  C   UNL     1       3.896   2.187   2.190  0.00  0.00    +0.031 A 
ATOM     18  C   UNL     1       4.898   2.476   3.097  0.00  0.00    +0.017 A 
ATOM     19  C   UNL     1       6.120   1.833   3.007  0.00  0.00    +0.019 A 
ATOM     20  C   UNL     1       6.341   0.908   2.003  0.00  0.00    +0.037 A 
ATOM     21  C   UNL     1       5.340   0.623   1.092  0.00  0.00    +0.068 A 
ATOM     22 CL   UNL     1       5.617  -0.538  -0.169  0.00  0.00    -0.081 Cl
ATOM     23 BR   UNL     1       7.489   2.223   4.252  0.00  0.00    -0.050 Br
ENDBRANCH  13  16
ENDBRANCH   1  13
TORSDOF 3
