REMARK  Name = ZINC12660771
REMARK  3 active torsions:
REMARK  status: ('A' for Active; 'I' for Inactive)
REMARK    1  A    between atoms: C_4  and  C_7
REMARK    2  A    between atoms: C_7  and  C_9
REMARK    3  A    between atoms: N_27  and  C_30
REMARK                            x       y       z     vdW  Elec       q    Type
REMARK                         _______ _______ _______ _____ _____    ______ ____
ROOT
ATOM      1  C   UNL     1       4.456  -2.196   1.632  0.00  0.00    +0.141 C 
ATOM      2  C   UNL     1       5.531  -1.106   1.520  0.00  0.00    +0.116 C 
ATOM      3  C   UNL     1       4.815   0.067   0.782  0.00  0.00    +0.113 C 
ATOM      4  C   UNL     1       3.717  -0.632  -0.029  0.00  0.00    +0.100 C 
ATOM      5  C   UNL     1       2.336  -2.708   0.249  0.00  0.00    +0.054 C 
ATOM      6  C   UNL     1       1.215  -2.030  -0.069  0.00  0.00    +0.022 C 
ATOM      7  C   UNL     1       1.218  -0.555  -0.011  0.00  0.00    -0.019 A 
ATOM      8  C   UNL     1       2.429   0.149   0.001  0.00  0.00    -0.021 A 
ATOM      9  C   UNL     1       2.431   1.524   0.043  0.00  0.00    +0.006 A 
ATOM     10  C   UNL     1       1.232   2.216   0.076  0.00  0.00    +0.000 A 
ATOM     11  C   UNL     1       0.030   1.530   0.067  0.00  0.00    +0.001 A 
ATOM     12  C   UNL     1       0.015   0.151   0.024  0.00  0.00    +0.008 A 
ATOM     13  C   UNL     1       5.890   0.546  -0.181  0.00  0.00    +0.232 C 
ATOM     14  O   UNL     1       5.936   1.637  -0.708  0.00  0.00    -0.274 OA
ATOM     15  N   UNL     1       6.778  -0.446  -0.349  0.00  0.00    -0.210 N 
ATOM     16  C   UNL     1       6.602  -1.487   0.481  0.00  0.00    +0.232 C 
ATOM     17  O   UNL     1       7.187  -2.547   0.425  0.00  0.00    -0.274 OA
ATOM     18  N   UNL     1       3.690  -2.018   0.351  0.00  0.00    -0.384 NA
ATOM     19  H   UNL     1       4.258  -2.493  -0.360  0.00  0.00    +0.127 HD
ENDROOT
BRANCH  15  20
ATOM     20  C   UNL     1       7.802  -0.399  -1.307  0.00  0.00    +0.048 A 
ATOM     21  C   UNL     1       7.489  -0.429  -2.659  0.00  0.00    +0.028 A 
ATOM     22  C   UNL     1       8.496  -0.383  -3.604  0.00  0.00    +0.051 A 
ATOM     23  C   UNL     1       9.821  -0.306  -3.205  0.00  0.00    +0.166 A 
ATOM     24  C   UNL     1      10.138  -0.275  -1.849  0.00  0.00    +0.168 A 
ATOM     25  C   UNL     1       9.127  -0.316  -0.903  0.00  0.00    +0.073 A 
ATOM     26  O   UNL     1      11.495  -0.198  -1.720  0.00  0.00    -0.453 OA
ATOM     27  C   UNL     1      11.980   0.229  -3.006  0.00  0.00    +0.466 C 
ATOM     28  O   UNL     1      10.980  -0.248  -3.925  0.00  0.00    -0.453 OA
ENDBRANCH  15  20
BRANCH   1  29
ATOM     29  C   UNL     1       5.076  -3.549   1.399  0.00  0.00    +0.183 C 
ATOM     30  O   UNL     1       4.969  -4.087   0.317  0.00  0.00    -0.290 OA
BRANCH  29  34
ATOM     31  C   UNL     1       7.192  -5.481   4.527  0.00  0.00    +0.000 A 
ATOM     32  C   UNL     1       7.072  -6.097   3.294  0.00  0.00    +0.001 A 
ATOM     33  C   UNL     1       6.386  -5.476   2.272  0.00  0.00    +0.011 A 
ATOM     34  C   UNL     1       5.810  -4.219   2.484  0.00  0.00    +0.019 A 
ATOM     35  C   UNL     1       5.939  -3.600   3.732  0.00  0.00    +0.011 A 
ATOM     36  C   UNL     1       6.624  -4.237   4.745  0.00  0.00    +0.001 A 
ENDBRANCH  29  34
ENDBRANCH   1  29
TORSDOF 3
