REMARK  Name = ZINC17216775
REMARK  11 active torsions:
REMARK  status: ('A' for Active; 'I' for Inactive)
REMARK    1  A    between atoms: C_1  and  C_2
REMARK    2  A    between atoms: C_6  and  C_38
REMARK    3  A    between atoms: C_7  and  N_8
REMARK    4  A    between atoms: C_9  and  C_11
REMARK    5  A    between atoms: C_11  and  C_14
REMARK    6  A    between atoms: N_12  and  O_13
REMARK    7  A    between atoms: C_14  and  C_15
REMARK    8  A    between atoms: C_15  and  C_17
REMARK    9  A    between atoms: C_17  and  C_18
REMARK   10  A    between atoms: C_18  and  C_20
REMARK   11  A    between atoms: C_18  and  C_26
REMARK                            x       y       z     vdW  Elec       q    Type
REMARK                         _______ _______ _______ _____ _____    ______ ____
ROOT
ATOM      1  C   UNL     1      -0.974   0.953   8.886  0.00  0.00    +0.088 C 
ENDROOT
BRANCH   1   2
ATOM      2  C   UNL     1      -0.756   1.295   7.435  0.00  0.00    +0.140 C 
ATOM      3  O   UNL     1      -1.054   2.389   7.020  0.00  0.00    -0.297 OA
BRANCH   2   4
ATOM      4  C   UNL     1      -0.164   0.271   6.500  0.00  0.00    +0.138 C 
BRANCH   4   5
ATOM      5  C   UNL     1      -0.051   0.860   5.117  0.00  0.00    +0.149 C 
ATOM      6  N   UNL     1      -0.438   2.073   4.897  0.00  0.00    -0.086 NA
BRANCH   5   8
ATOM      7  N   UNL     1       0.758   0.623   2.821  0.00  0.00    -0.280 N 
ATOM      8  C   UNL     1       0.503   0.051   4.015  0.00  0.00    +0.266 C 
ATOM      9  O   UNL     1       0.728  -1.132   4.182  0.00  0.00    -0.268 OA
ATOM     10  H   UNL     1       0.645   1.579   2.708  0.00  0.00    +0.155 HD
BRANCH   7  17
ATOM     11  C   UNL     1       2.973   1.539   1.287  0.00  0.00    +0.045 C 
ATOM     12  C   UNL     1       2.263   0.247   0.971  0.00  0.00    -0.029 A 
ATOM     13  C   UNL     1       2.687  -0.534  -0.086  0.00  0.00    +0.005 A 
ATOM     14  C   UNL     1       2.037  -1.719  -0.376  0.00  0.00    +0.001 A 
ATOM     15  C   UNL     1       0.961  -2.127   0.390  0.00  0.00    +0.005 A 
ATOM     16  C   UNL     1       0.532  -1.351   1.449  0.00  0.00    -0.029 A 
ATOM     17  C   UNL     1       1.186  -0.162   1.747  0.00  0.00    +0.040 A 
ATOM     18  C   UNL     1      -0.641  -1.796   2.284  0.00  0.00    +0.045 C 
ENDBRANCH   7  17
ENDBRANCH   5   8
BRANCH   6  19
ATOM     19  O   UNL     1      -0.496   2.569   3.572  0.00  0.00    -0.409 OA
ATOM     20  H   UNL     1      -0.797   3.486   3.508  0.00  0.00    +0.328 HD
ENDBRANCH   6  19
ENDBRANCH   4   5
ENDBRANCH   2   4
ENDBRANCH   1   2
BRANCH   1  21
ATOM     21  C   UNL     1      -1.581   2.158   9.608  0.00  0.00    +0.067 C 
BRANCH  21  22
ATOM     22  C   UNL     1      -1.551   1.920  11.096  0.00  0.00    +0.092 A 
ATOM     23  C   UNL     1      -1.535   3.012  11.989  0.00  0.00    +0.200 A 
ATOM     24  O   UNL     1      -1.547   4.163  11.585  0.00  0.00    -0.287 OA
ATOM     25  C   UNL     1      -1.505   2.705  13.434  0.00  0.00    +0.065 A 
ATOM     26  C   UNL     1      -1.489   3.719  14.390  0.00  0.00    +0.015 A 
ATOM     27  C   UNL     1      -1.461   3.391  15.728  0.00  0.00    +0.001 A 
ATOM     28  C   UNL     1      -1.450   2.061  16.122  0.00  0.00    +0.004 A 
ATOM     29  C   UNL     1      -1.466   1.050  15.185  0.00  0.00    +0.047 A 
ATOM     30  C   UNL     1      -1.494   1.360  13.831  0.00  0.00    +0.143 A 
ATOM     31  O   UNL     1      -1.511   0.386  12.897  0.00  0.00    -0.422 OA
ATOM     32  C   UNL     1      -1.543   0.653  11.585  0.00  0.00    +0.345 A 
ATOM     33  O   UNL     1      -1.564  -0.379  10.714  0.00  0.00    -0.245 OA
ENDBRANCH  21  22
BRANCH  21  34
ATOM     34  C   UNL     1      -3.007   2.347   9.159  0.00  0.00    -0.039 A 
ATOM     35  C   UNL     1      -3.943   1.356   9.393  0.00  0.00    +0.004 A 
ATOM     36  C   UNL     1      -5.251   1.530   8.981  0.00  0.00    +0.000 A 
ATOM     37  C   UNL     1      -5.624   2.693   8.335  0.00  0.00    +0.000 A 
ATOM     38  C   UNL     1      -4.688   3.684   8.101  0.00  0.00    +0.000 A 
ATOM     39  C   UNL     1      -3.381   3.513   8.517  0.00  0.00    +0.004 A 
ENDBRANCH  21  34
ENDBRANCH   1  21
TORSDOF 9
