REMARK  Name = ZINC19645117
REMARK  10 active torsions:
REMARK  status: ('A' for Active; 'I' for Inactive)
REMARK    1  A    between atoms: C_1  and  C_2
REMARK    2  A    between atoms: C_2  and  C_3
REMARK    3  A    between atoms: C_4  and  C_33
REMARK    4  A    between atoms: C_6  and  N_17
REMARK    5  A    between atoms: C_7  and  C_8
REMARK    6  A    between atoms: N_10  and  C_11
REMARK    7  A    between atoms: C_18  and  C_20
REMARK    8  A    between atoms: C_23  and  C_32
REMARK    9  A    between atoms: C_24  and  C_31
REMARK   10  A    between atoms: C_26  and  C_28
REMARK                            x       y       z     vdW  Elec       q    Type
REMARK                         _______ _______ _______ _____ _____    ______ ____
ROOT
ATOM      1  C   UNL     1      -1.463   9.002   1.400  0.00  0.00    -0.024 A 
ATOM      2  C   UNL     1      -1.537  10.311   1.097  0.00  0.00    -0.008 A 
ATOM      3  S   UNL     1      -2.632  10.346  -0.307  0.00  0.00    -0.078 S 
ATOM      4  C   UNL     1      -2.957   8.652  -0.462  0.00  0.00    +0.084 A 
ATOM      5  C   UNL     1      -2.222   8.092   0.576  0.00  0.00    +0.069 A 
ATOM      6  C   UNL     1      -0.857  11.469   1.781  0.00  0.00    +0.052 C 
ENDROOT
BRANCH   5   7
ATOM      7  C   UNL     1      -2.212   6.646   0.819  0.00  0.00    +0.247 C 
ATOM      8  O   UNL     1      -3.034   6.149   1.566  0.00  0.00    -0.270 OA
ATOM      9  N   UNL     1      -1.294   5.867   0.214  0.00  0.00    -0.308 N 
ATOM     10  H   UNL     1      -0.551   6.316  -0.462  0.00  0.00    +0.149 HD
BRANCH   9  11
ATOM     11  C   UNL     1      -1.284   4.422   0.456  0.00  0.00    +0.073 C 
ATOM     12  C   UNL     1      -0.635   3.710  -0.732  0.00  0.00    +0.022 C 
ATOM     13  C   UNL     1      -0.625   2.201  -0.479  0.00  0.00    +0.002 C 
ATOM     14  C   UNL     1       0.172   1.902   0.792  0.00  0.00    +0.000 C 
ATOM     15  C   UNL     1      -0.476   2.615   1.980  0.00  0.00    +0.002 C 
ATOM     16  C   UNL     1      -0.486   4.123   1.727  0.00  0.00    +0.022 C 
ENDBRANCH   9  11
ENDBRANCH   5   7
BRANCH   4  17
ATOM     17  N   UNL     1      -3.759   8.010  -1.394  0.00  0.00    -0.279 N 
ATOM     18  C   UNL     1      -4.402   8.727  -2.337  0.00  0.00    +0.222 C 
ATOM     19  O   UNL     1      -4.279   9.933  -2.370  0.00  0.00    -0.275 OA
ATOM     20  H   UNL     1      -3.870   6.917  -1.363  0.00  0.00    +0.155 HD
BRANCH  18  21
ATOM     21  C   UNL     1      -5.273   8.030  -3.350  0.00  0.00    +0.093 C 
ATOM     22  C   UNL     1      -4.432   7.036  -4.154  0.00  0.00    +0.044 C 
ATOM     23  C   UNL     1      -5.214   6.531  -5.331  0.00  0.00    -0.073 C 
ATOM     24  C   UNL     1      -6.275   7.107  -5.798  0.00  0.00    -0.073 C 
ATOM     25  C   UNL     1      -6.878   8.354  -5.220  0.00  0.00    +0.046 C 
ATOM     26  C   UNL     1      -5.863   9.062  -4.319  0.00  0.00    +0.118 C 
ATOM     27  C   UNL     1      -6.948   6.486  -6.995  0.00  0.00    +0.039 C 
ATOM     28  C   UNL     1      -4.733   5.276  -6.013  0.00  0.00    +0.039 C 
BRANCH  26  29
ATOM     29  C   UNL     1      -6.551  10.153  -3.540  0.00  0.00    +0.360 C 
ATOM     30  O   UNL     1      -6.570  10.114  -2.333  0.00  0.00    -0.246 OA
ATOM     31  O   UNL     1      -7.144  11.168  -4.188  0.00  0.00    -0.246 OA
ENDBRANCH  26  29
ENDBRANCH  18  21
ENDBRANCH   4  17
BRANCH   1  33
ATOM     32  C   UNL     1       0.790   8.200   2.055  0.00  0.00    +0.009 C 
ATOM     33  C   UNL     1      -0.625   8.508   2.550  0.00  0.00    +0.033 C 
ENDBRANCH   1  33
TORSDOF 6
