REMARK  Name = ZINC40731340
REMARK  6 active torsions:
REMARK  status: ('A' for Active; 'I' for Inactive)
REMARK    1  A    between atoms: C_1  and  C_2
REMARK    2  A    between atoms: C_2  and  C_3
REMARK    3  A    between atoms: C_4  and  C_17
REMARK    4  A    between atoms: N_6  and  C_9
REMARK    5  A    between atoms: C_7  and  C_8
REMARK    6  A    between atoms: C_14  and  N_15
REMARK                            x       y       z     vdW  Elec       q    Type
REMARK                         _______ _______ _______ _____ _____    ______ ____
ROOT
ATOM      1  C   UNL     1      -4.452  -1.661  -1.437  0.00  0.00    +0.086 A 
ATOM      2  C   UNL     1      -4.224  -2.400  -2.588  0.00  0.00    +0.031 A 
ATOM      3  C   UNL     1      -5.283  -2.763  -3.398  0.00  0.00    +0.017 A 
ATOM      4  C   UNL     1      -6.573  -2.390  -3.065  0.00  0.00    +0.020 A 
ATOM      5  C   UNL     1      -6.810  -1.654  -1.919  0.00  0.00    +0.040 A 
ATOM      6  C   UNL     1      -5.753  -1.291  -1.097  0.00  0.00    +0.051 A 
ATOM      7 BR   UNL     1      -8.017  -2.890  -4.180  0.00  0.00    -0.050 Br
ENDROOT
BRANCH   1  11
ATOM      8  C   UNL     1      -1.450  -0.526   0.074  0.00  0.00    -0.004 A 
ATOM      9  C   UNL     1      -2.159  -0.988   1.188  0.00  0.00    +0.064 A 
ATOM     10  N   UNL     1      -3.314  -1.447   0.778  0.00  0.00    -0.171 NA
ATOM     11  N   UNL     1      -3.377  -1.292  -0.613  0.00  0.00    -0.235 N 
ATOM     12  C   UNL     1      -2.223  -0.719  -1.021  0.00  0.00    +0.045 A 
ATOM     13  C   UNL     1      -1.860  -0.362  -2.439  0.00  0.00    +0.066 C 
ATOM     14  C   UNL     1      -1.675  -0.962   2.615  0.00  0.00    +0.068 C 
BRANCH   8  16
ATOM     15  C   UNL     1      -0.189   1.600   0.275  0.00  0.00    +0.009 C 
ATOM     16  C   UNL     1      -0.073   0.086   0.090  0.00  0.00    +0.035 C 
ENDBRANCH   8  16
ENDBRANCH   1  11
BRANCH   6  17
ATOM     17  N   UNL     1      -5.990  -0.550   0.065  0.00  0.00    -0.356 N 
ATOM     18  H   UNL     1      -5.244  -0.215   0.587  0.00  0.00    +0.142 HD
ATOM     19  H   UNL     1      -6.900  -0.372   0.349  0.00  0.00    +0.142 HD
ENDBRANCH   6  17
TORSDOF 3
