REMARK  Name = ZINC66188604
REMARK  8 active torsions:
REMARK  status: ('A' for Active; 'I' for Inactive)
REMARK    1  A    between atoms: C_1  and  C_2
REMARK    2  A    between atoms: C_5  and  C_30
REMARK    3  A    between atoms: N_8  and  C_10
REMARK    4  A    between atoms: C_10  and  C_11
REMARK    5  A    between atoms: C_11  and  C_13
REMARK    6  A    between atoms: C_11  and  N_14
REMARK    7  A    between atoms: C_20  and  N_23
REMARK    8  A    between atoms: C_24  and  C_26
REMARK                            x       y       z     vdW  Elec       q    Type
REMARK                         _______ _______ _______ _____ _____    ______ ____
ROOT
ATOM      1  N   UNL     1       3.511  -2.495   0.951  0.00  0.00    -0.298 N 
ATOM      2  C   UNL     1       4.540  -1.852   0.365  0.00  0.00    +0.302 C 
ATOM      3  O   UNL     1       4.980  -0.831   0.859  0.00  0.00    -0.253 OA
ATOM      4  N   UNL     1       5.082  -2.339  -0.769  0.00  0.00    -0.286 N 
ATOM      5  C   UNL     1       4.489  -3.503  -1.441  0.00  0.00    +0.111 C 
ATOM      6  C   UNL     1       5.577  -4.562  -1.646  0.00  0.00    +0.041 C 
ATOM      7  C   UNL     1       6.757  -3.937  -2.394  0.00  0.00    +0.076 C 
ATOM      8  C   UNL     1       7.344  -2.794  -1.562  0.00  0.00    +0.041 C 
ATOM      9  C   UNL     1       6.272  -1.713  -1.359  0.00  0.00    +0.111 C 
ATOM     10  H   UNL     1       3.112  -3.267   0.519  0.00  0.00    +0.150 HD
ENDROOT
BRANCH   7  11
ATOM     11  N   UNL     1       7.786  -4.954  -2.621  0.00  0.00    -0.312 N 
ATOM     12  C   UNL     1       8.651  -4.822  -3.646  0.00  0.00    +0.216 C 
ATOM     13  O   UNL     1       8.577  -3.860  -4.381  0.00  0.00    -0.276 OA
ATOM     14  H   UNL     1       7.845  -5.724  -2.033  0.00  0.00    +0.149 HD
BRANCH  12  15
ATOM     15  C   UNL     1       9.709  -5.869  -3.879  0.00  0.00    +0.075 C 
ATOM     16  C   UNL     1      10.957  -5.690  -2.998  0.00  0.00    +0.013 C 
ATOM     17  C   UNL     1      11.787  -6.082  -4.232  0.00  0.00    +0.001 C 
ATOM     18  C   UNL     1      10.614  -5.572  -5.086  0.00  0.00    +0.013 C 
ENDBRANCH  12  15
ENDBRANCH   7  11
BRANCH   1  19
ATOM     19  C   UNL     1       2.995  -2.029   2.241  0.00  0.00    +0.055 C 
ATOM     20  C   UNL     1       3.827  -2.636   3.372  0.00  0.00    +0.026 C 
BRANCH  19  21
ATOM     21  C   UNL     1       1.535  -2.463   2.392  0.00  0.00    -0.057 C 
BRANCH  21  27
ATOM     22  C   UNL     1      -0.019   1.526   0.017  0.00  0.00    +0.005 C 
ATOM     23  C   UNL     1       0.002  -0.004   0.007  0.00  0.00    -0.031 C 
ATOM     24  C   UNL     1      -1.435  -0.535   0.021  0.00  0.00    +0.003 C 
ATOM     25  C   UNL     1      -1.402  -2.065   0.091  0.00  0.00    -0.031 C 
ATOM     26  C   UNL     1      -0.612  -2.497   1.328  0.00  0.00    -0.076 C 
ATOM     27  N   UNL     1       0.759  -1.981   1.242  0.00  0.00    +0.381 N 
ATOM     28  C   UNL     1       0.741  -0.513   1.247  0.00  0.00    -0.076 C 
ATOM     29  C   UNL     1      -0.729  -2.619  -1.166  0.00  0.00    +0.005 C 
ATOM     30  H   UNL     1       1.188  -2.307   0.389  0.00  0.00    -0.082 HD
ENDBRANCH  21  27
ENDBRANCH  19  21
ENDBRANCH   1  19
TORSDOF 5
