REMARK  Name = ZINC39930439
REMARK  5 active torsions:
REMARK  status: ('A' for Active; 'I' for Inactive)
REMARK    1  A    between atoms: C_1  and  C_2
REMARK    2  A    between atoms: C_7  and  C_20
REMARK    3  A    between atoms: N_9  and  C_10
REMARK    4  A    between atoms: C_14  and  C_16
REMARK    5  A    between atoms: C_25  and  C_28
REMARK                            x       y       z     vdW  Elec       q    Type
REMARK                         _______ _______ _______ _____ _____    ______ ____
ROOT
ATOM      1  C   UNL     1       0.335   0.595  -2.135  0.00  0.00    +0.030 C 
ATOM      2  C   UNL     1       0.352   0.531  -0.606  0.00  0.00    +0.103 C 
ATOM      3  C   UNL     1       0.481  -0.931  -0.159  0.00  0.00    +0.105 C 
ATOM      4  C   UNL     1       1.904  -1.365  -0.466  0.00  0.00    +0.190 C 
ATOM      5  O   UNL     1       2.151  -2.421  -1.012  0.00  0.00    -0.290 OA
ATOM      6  C   UNL     1       2.965  -0.429  -0.061  0.00  0.00    +0.186 C 
ATOM      7  N   UNL     1       2.648   0.841   0.103  0.00  0.00    -0.171 NA
ATOM      8  N   UNL     1       1.480   1.308  -0.103  0.00  0.00    -0.220 N 
ENDROOT
BRANCH   6   9
ATOM      9  C   UNL     1       4.344  -0.897   0.154  0.00  0.00    +0.270 C 
ATOM     10  O   UNL     1       5.114  -0.974  -0.784  0.00  0.00    -0.268 OA
ATOM     11  N   UNL     1       4.754  -1.240   1.392  0.00  0.00    -0.292 N 
ATOM     12  C   UNL     1       6.156  -1.603   1.660  0.00  0.00    +0.113 C 
ATOM     13  C   UNL     1       6.731  -0.579   2.642  0.00  0.00    +0.054 C 
ATOM     14  C   UNL     1       5.770  -0.336   3.768  0.00  0.00    -0.043 C 
ATOM     15  C   UNL     1       4.476  -0.631   3.721  0.00  0.00    -0.004 C 
ATOM     16  C   UNL     1       3.820  -1.260   2.527  0.00  0.00    +0.135 C 
BRANCH  14  17
ATOM     17  C   UNL     1       6.273   0.241   4.952  0.00  0.00    -0.016 C 
ATOM     18  C   UNL     1       7.555   0.729   5.169  0.00  0.00    +0.003 A 
ATOM     19  C   UNL     1       8.700   0.808   4.343  0.00  0.00    +0.010 A 
ATOM     20  C   UNL     1       9.844   1.348   4.830  0.00  0.00    +0.001 A 
ATOM     21  C   UNL     1       9.927   1.833   6.139  0.00  0.00    +0.002 A 
ATOM     22  C   UNL     1       8.872   1.791   6.987  0.00  0.00    +0.026 A 
ATOM     23  C   UNL     1       7.637   1.240   6.550  0.00  0.00    +0.043 A 
ATOM     24  N   UNL     1       6.486   1.085   7.167  0.00  0.00    -0.380 N 
ATOM     25  C   UNL     1       5.526   0.463   6.249  0.00  0.00    +0.149 C 
ATOM     26  H   UNL     1       6.299   1.347   8.082  0.00  0.00    +0.160 HD
ENDBRANCH  14  17
ENDBRANCH   6   9
BRANCH   8  27
ATOM     27  C   UNL     1       1.267   2.659   0.173  0.00  0.00    +0.052 A 
ATOM     28  C   UNL     1      -0.005   3.204   0.047  0.00  0.00    +0.025 A 
ATOM     29  C   UNL     1      -0.212   4.541   0.321  0.00  0.00    +0.002 A 
ATOM     30  C   UNL     1       0.845   5.338   0.721  0.00  0.00    +0.012 A 
ATOM     31  C   UNL     1       2.112   4.800   0.848  0.00  0.00    +0.057 A 
ATOM     32  C   UNL     1       2.326   3.462   0.581  0.00  0.00    +0.037 A 
BRANCH  31  33
ATOM     33  C   UNL     1       3.260   5.673   1.285  0.00  0.00    +0.417 C 
ATOM     34  F   UNL     1       2.800   6.976   1.500  0.00  0.00    -0.166 F 
ATOM     35  F   UNL     1       3.805   5.169   2.471  0.00  0.00    -0.166 F 
ATOM     36  F   UNL     1       4.243   5.684   0.288  0.00  0.00    -0.166 F 
ENDBRANCH  31  33
ENDBRANCH   8  27
TORSDOF 4
