REMARK  Name = ZINC03838502
REMARK  19 active torsions:
REMARK  status: ('A' for Active; 'I' for Inactive)
REMARK    1  A    between atoms: C_1  and  C_2
REMARK    2  A    between atoms: C_2  and  C_3
REMARK    3  A    between atoms: C_2  and  C_4
REMARK    4  A    between atoms: C_4  and  C_5
REMARK    5  A    between atoms: C_5  and  C_7
REMARK    6  A    between atoms: C_5  and  N_66
REMARK    7  A    between atoms: N_9  and  C_10
REMARK    8  A    between atoms: C_13  and  C_21
REMARK    9  A    between atoms: C_13  and  O_33
REMARK   10  A    between atoms: C_15  and  O_20
REMARK   11  A    between atoms: C_17  and  O_19
REMARK   12  A    between atoms: N_23  and  C_24
REMARK   13  A    between atoms: C_24  and  C_26
REMARK   14  A    between atoms: C_24  and  C_29
REMARK   15  A    between atoms: C_26  and  C_27
REMARK   16  A    between atoms: C_26  and  C_28
REMARK   17  A    between atoms: C_29  and  O_31
REMARK   18  A    between atoms: O_31  and  C_32
REMARK   19  A    between atoms: C_34  and  N_66
REMARK                            x       y       z     vdW  Elec       q    Type
REMARK                         _______ _______ _______ _____ _____    ______ ____
ROOT
ATOM      1  C   UNL     1       2.494   1.435   0.207  0.00  0.00    +0.107 C 
ATOM      2  C   UNL     1       3.481   2.567  -0.081  0.00  0.00    +0.069 C 
ATOM      3  C   UNL     1       4.905   2.008  -0.110  0.00  0.00    +0.146 C 
ATOM      4  C   UNL     1       5.232   1.378   1.246  0.00  0.00    +0.078 C 
ATOM      5  C   UNL     1       4.245   0.245   1.534  0.00  0.00    +0.148 C 
ATOM      6  C   UNL     1       2.821   0.805   1.562  0.00  0.00    +0.163 C 
ENDROOT
BRANCH   1   9
ATOM      7  C   UNL     1       0.084   1.164  -0.033  0.00  0.00    +0.199 C 
ATOM      8  O   UNL     1       0.271  -0.005  -0.296  0.00  0.00    -0.278 OA
ATOM      9  N   UNL     1       1.130   1.970   0.234  0.00  0.00    -0.311 N 
ATOM     10  H   UNL     1       0.981   2.905   0.444  0.00  0.00    +0.149 HD
BRANCH   7  11
ATOM     11  C   UNL     1      -1.318   1.716  -0.011  0.00  0.00    +0.016 C 
BRANCH  11  13
ATOM     12  C   UNL     1      -2.324  -0.442   0.427  0.00  0.00    -0.099 C 
ATOM     13  N   UNL     1      -2.260   0.697  -0.509  0.00  0.00    +0.385 N 
ATOM     14  H   UNL     1      -1.944   0.363  -1.427  0.00  0.00    -0.085 HD
ATOM     15  H   UNL     1      -3.194   1.113  -0.600  0.00  0.00    -0.085 HD
ENDBRANCH  11  13
BRANCH  11  16
ATOM     16  C   UNL     1      -1.690   2.106   1.421  0.00  0.00    -0.004 C 
BRANCH  16  18
ATOM     17  C   UNL     1      -3.524   2.969   2.882  0.00  0.00    +0.007 C 
ATOM     18  C   UNL     1      -3.095   2.712   1.436  0.00  0.00    -0.018 C 
ATOM     19  C   UNL     1      -3.089   4.033   0.663  0.00  0.00    +0.007 C 
ENDBRANCH  16  18
ENDBRANCH  11  16
ENDBRANCH   7  11
ENDBRANCH   1   9
BRANCH   3  20
ATOM     20  C   UNL     1       5.877   3.123  -0.394  0.00  0.00    +0.246 C 
ATOM     21  O   UNL     1       5.585   4.268  -0.117  0.00  0.00    -0.273 OA
ATOM     22  N   UNL     1       7.072   2.850  -0.955  0.00  0.00    -0.300 N 
ATOM     23  H   UNL     1       7.305   1.935  -1.176  0.00  0.00    +0.150 HD
BRANCH  22  24
ATOM     24  C   UNL     1       8.017   3.934  -1.230  0.00  0.00    +0.184 C 
BRANCH  24  25
ATOM     25  C   UNL     1       7.689   4.564  -2.586  0.00  0.00    +0.014 C 
ATOM     26  C   UNL     1       7.676   3.478  -3.663  0.00  0.00    +0.009 C 
ATOM     27  C   UNL     1       6.315   5.233  -2.518  0.00  0.00    +0.009 C 
ENDBRANCH  24  25
BRANCH  24  28
ATOM     28  C   UNL     1       9.419   3.383  -1.259  0.00  0.00    +0.328 C 
ATOM     29  O   UNL     1       9.610   2.205  -1.068  0.00  0.00    -0.249 OA
BRANCH  28  30
ATOM     30  O   UNL     1      10.457   4.201  -1.496  0.00  0.00    -0.467 OA
ATOM     31  C   UNL     1      11.780   3.601  -1.508  0.00  0.00    +0.280 C 
ENDBRANCH  28  30
ENDBRANCH  24  28
ENDBRANCH  22  24
ENDBRANCH   3  20
BRANCH   6  32
ATOM     32  O   UNL     1       1.899  -0.253   1.831  0.00  0.00    -0.387 OA
ATOM     33  H   UNL     1       2.047  -0.699   2.676  0.00  0.00    +0.210 HD
ENDBRANCH   6  32
BRANCH   5  34
ATOM     34  O   UNL     1       4.551  -0.343   2.799  0.00  0.00    -0.389 OA
ATOM     35  H   UNL     1       5.440  -0.719   2.853  0.00  0.00    +0.210 HD
ENDBRANCH   5  34
BRANCH   3  36
ATOM     36  O   UNL     1       5.006   1.016  -1.133  0.00  0.00    -0.379 OA
ATOM     37  H   UNL     1       5.884   0.617  -1.209  0.00  0.00    +0.211 HD
ENDBRANCH   3  36
TORSDOF 13
