REMARK  Name = ZINC35477210
REMARK  9 active torsions:
REMARK  status: ('A' for Active; 'I' for Inactive)
REMARK    1  A    between atoms: C_1  and  C_2
REMARK    2  A    between atoms: C_5  and  N_8
REMARK    3  A    between atoms: C_9  and  C_11
REMARK    4  A    between atoms: C_11  and  C_13
REMARK    5  A    between atoms: C_11  and  N_14
REMARK    6  A    between atoms: C_19  and  C_21
REMARK    7  A    between atoms: C_24  and  C_31
REMARK    8  A    between atoms: C_25  and  S_27
REMARK    9  A    between atoms: S_27  and  N_30
REMARK                            x       y       z     vdW  Elec       q    Type
REMARK                         _______ _______ _______ _____ _____    ______ ____
ROOT
ATOM      1  N   UNL     1       0.268  -7.270   2.440  0.00  0.00    -0.217 N 
ATOM      2  C   UNL     1       1.515  -7.550   2.860  0.00  0.00    +0.271 A 
ATOM      3  O   UNL     1       2.399  -7.779   2.051  0.00  0.00    -0.266 OA
ATOM      4  C   UNL     1       1.795  -7.576   4.248  0.00  0.00    +0.024 A 
ATOM      5  C   UNL     1       0.782  -7.311   5.106  0.00  0.00    -0.011 A 
ATOM      6  C   UNL     1      -0.500  -7.032   4.565  0.00  0.00    +0.095 A 
ATOM      7  N   UNL     1      -0.682  -7.023   3.267  0.00  0.00    -0.167 NA
ATOM      8  C   UNL     1       0.959  -7.291   6.599  0.00  0.00    +0.038 C 
ATOM      9  C   UNL     1       2.243  -8.019   6.995  0.00  0.00    +0.005 C 
ATOM     10  C   UNL     1       3.397  -7.462   6.152  0.00  0.00    +0.005 C 
ATOM     11  C   UNL     1       3.190  -7.901   4.702  0.00  0.00    +0.041 C 
ENDROOT
BRANCH   6  12
ATOM     12  C   UNL     1      -1.638  -6.746   5.472  0.00  0.00    +0.004 A 
ATOM     13  C   UNL     1      -1.461  -5.911   6.574  0.00  0.00    +0.010 A 
ATOM     14  C   UNL     1      -2.523  -5.648   7.415  0.00  0.00    +0.006 A 
ATOM     15  C   UNL     1      -3.762  -6.212   7.166  0.00  0.00    -0.024 A 
ATOM     16  C   UNL     1      -3.943  -7.041   6.074  0.00  0.00    +0.109 A 
ATOM     17  C   UNL     1      -2.889  -7.306   5.223  0.00  0.00    +0.039 A 
ATOM     18  C   UNL     1      -4.918  -5.921   8.088  0.00  0.00    +0.046 C 
BRANCH  16  19
ATOM     19  S   UNL     1      -5.524  -7.756   5.766  0.00  0.00    +0.056 S 
ATOM     20  O   UNL     1      -6.470  -6.699   5.846  0.00  0.00    -0.153 OA
ATOM     21  O   UNL     1      -5.384  -8.567   4.607  0.00  0.00    -0.153 OA
BRANCH  19  22
ATOM     22  N   UNL     1      -5.852  -8.781   7.024  0.00  0.00    -0.204 NA
ATOM     23  H   UNL     1      -5.210  -8.886   7.744  0.00  0.00    +0.144 HD
ATOM     24  H   UNL     1      -6.685  -9.277   7.041  0.00  0.00    +0.144 HD
ENDBRANCH  19  22
ENDBRANCH  16  19
ENDBRANCH   6  12
BRANCH   1  25
ATOM     25  C   UNL     1      -0.011  -7.240   1.002  0.00  0.00    +0.194 C 
ATOM     26  C   UNL     1      -1.085  -8.277   0.669  0.00  0.00    +0.043 C 
BRANCH  25  28
ATOM     27  N   UNL     1      -0.820  -5.606  -0.669  0.00  0.00    -0.284 N 
ATOM     28  C   UNL     1      -0.499  -5.869   0.613  0.00  0.00    +0.242 C 
ATOM     29  O   UNL     1      -0.605  -5.001   1.454  0.00  0.00    -0.273 OA
ATOM     30  H   UNL     1      -0.809  -6.318  -1.328  0.00  0.00    +0.155 HD
BRANCH  27  35
ATOM     31  C   UNL     1      -2.228  -0.333  -2.219  0.00  0.00    +0.044 C 
ATOM     32  C   UNL     1      -1.854  -1.734  -1.807  0.00  0.00    -0.050 A 
ATOM     33  C   UNL     1      -0.922  -1.933  -0.805  0.00  0.00    +0.005 A 
ATOM     34  C   UNL     1      -0.577  -3.215  -0.426  0.00  0.00    +0.023 A 
ATOM     35  C   UNL     1      -1.167  -4.305  -1.051  0.00  0.00    +0.033 A 
ATOM     36  C   UNL     1      -2.103  -4.102  -2.057  0.00  0.00    +0.023 A 
ATOM     37  C   UNL     1      -2.447  -2.817  -2.429  0.00  0.00    +0.005 A 
ENDBRANCH  27  35
ENDBRANCH  25  28
ENDBRANCH   1  25
TORSDOF 6
