REMARK  Name = ZINC06546858
REMARK  14 active torsions:
REMARK  status: ('A' for Active; 'I' for Inactive)
REMARK    1  A    between atoms: C_1  and  C_2
REMARK    2  A    between atoms: C_2  and  O_3
REMARK    3  A    between atoms: O_3  and  C_4
REMARK    4  A    between atoms: C_4  and  C_6
REMARK    5  A    between atoms: C_6  and  N_7
REMARK    6  A    between atoms: C_8  and  C_10
REMARK    7  A    between atoms: C_10  and  C_12
REMARK    8  A    between atoms: C_10  and  N_17
REMARK    9  A    between atoms: N_17  and  C_18
REMARK   10  A    between atoms: C_21  and  C_25
REMARK   11  A    between atoms: C_23  and  C_24
REMARK   12  A    between atoms: C_26  and  C_28
REMARK   13  A    between atoms: C_29  and  N_36
REMARK   14  A    between atoms: C_30  and  C_33
REMARK                            x       y       z     vdW  Elec       q    Type
REMARK                         _______ _______ _______ _____ _____    ______ ____
ROOT
ATOM      1  N   UNL     1       2.158   5.392   1.340  0.00  0.00    -0.250 N 
ATOM      2  C   UNL     1       2.088   5.927   2.575  0.00  0.00    +0.262 C 
ATOM      3  O   UNL     1       1.105   6.566   2.906  0.00  0.00    -0.269 OA
ENDROOT
BRANCH   1   4
ATOM      4  C   UNL     1       3.286   4.659   0.959  0.00  0.00    +0.041 A 
ATOM      5  C   UNL     1       4.350   5.294   0.332  0.00  0.00    +0.024 A 
ATOM      6  C   UNL     1       5.465   4.568  -0.038  0.00  0.00    +0.005 A 
ATOM      7  C   UNL     1       5.518   3.208   0.204  0.00  0.00    -0.050 A 
ATOM      8  C   UNL     1       4.458   2.571   0.823  0.00  0.00    +0.008 A 
ATOM      9  C   UNL     1       3.342   3.292   1.201  0.00  0.00    -0.029 A 
ATOM     10  C   UNL     1       2.188   2.597   1.876  0.00  0.00    +0.045 C 
ATOM     11  C   UNL     1       6.734   2.417  -0.207  0.00  0.00    +0.044 C 
ENDBRANCH   1   4
BRANCH   2  12
ATOM     12  C   UNL     1       3.192   5.742   3.517  0.00  0.00    +0.116 A 
ATOM     13  C   UNL     1       3.327   6.209   4.826  0.00  0.00    +0.076 A 
ATOM     14  C   UNL     1       4.533   5.821   5.410  0.00  0.00    +0.155 A 
ATOM     15  N   UNL     1       5.384   5.102   4.712  0.00  0.00    -0.203 NA
ATOM     16  S   UNL     1       4.728   4.866   3.298  0.00  0.00    +0.019 S 
BRANCH  14  17
ATOM     17  C   UNL     1       4.852   6.217   6.794  0.00  0.00    +0.262 C 
ATOM     18  O   UNL     1       4.061   6.883   7.433  0.00  0.00    -0.269 OA
ATOM     19  N   UNL     1       6.022   5.843   7.349  0.00  0.00    -0.324 N 
ATOM     20  H   UNL     1       6.653   5.312   6.839  0.00  0.00    +0.145 HD
ATOM     21  H   UNL     1       6.232   6.104   8.259  0.00  0.00    +0.145 HD
ENDBRANCH  14  17
BRANCH  13  22
ATOM     22  N   UNL     1       2.366   6.973   5.475  0.00  0.00    -0.355 N 
ATOM     23  H   UNL     1       1.545   7.210   5.017  0.00  0.00    +0.142 HD
ATOM     24  H   UNL     1       2.517   7.269   6.386  0.00  0.00    +0.142 HD
ENDBRANCH  13  22
ENDBRANCH   2  12
BRANCH   1  25
ATOM     25  C   UNL     1       1.052   5.577   0.397  0.00  0.00    +0.204 C 
BRANCH  25  26
ATOM     26  C   UNL     1       0.609   4.236  -0.128  0.00  0.00    +0.019 A 
ATOM     27  C   UNL     1      -0.610   3.649  -0.048  0.00  0.00    +0.013 A 
ATOM     28  C   UNL     1      -0.791   2.400  -0.613  0.00  0.00    +0.008 A 
ATOM     29  C   UNL     1       0.258   1.796  -1.221  0.00  0.00    +0.045 A 
ATOM     30  S   UNL     1       1.553   3.008  -1.016  0.00  0.00    -0.099 S 
ENDBRANCH  25  26
BRANCH  25  32
ATOM     31  N   UNL     1       0.656   6.745  -1.747  0.00  0.00    -0.303 N 
ATOM     32  C   UNL     1       1.511   6.439  -0.751  0.00  0.00    +0.239 C 
ATOM     33  O   UNL     1       2.649   6.857  -0.779  0.00  0.00    -0.273 OA
ATOM     34  H   UNL     1      -0.255   6.411  -1.725  0.00  0.00    +0.149 HD
BRANCH  31  35
ATOM     35  C   UNL     1       1.101   7.583  -2.863  0.00  0.00    +0.225 C 
BRANCH  35  36
ATOM     36  C   UNL     1      -0.036   7.774  -3.833  0.00  0.00    +0.324 C 
ATOM     37  O   UNL     1      -1.109   7.263  -3.615  0.00  0.00    -0.249 OA
BRANCH  36  38
ATOM     38  O   UNL     1       0.143   8.512  -4.940  0.00  0.00    -0.464 OA
BRANCH  38  40
ATOM     39  C   UNL     1      -0.604   9.522  -7.027  0.00  0.00    +0.048 C 
ATOM     40  C   UNL     1      -0.996   8.653  -5.830  0.00  0.00    +0.229 C 
ENDBRANCH  38  40
ENDBRANCH  36  38
ENDBRANCH  35  36
ENDBRANCH  31  35
ENDBRANCH  25  32
ENDBRANCH   1  25
TORSDOF 11
