REMARK  Name = ZINC20134896
REMARK  8 active torsions:
REMARK  status: ('A' for Active; 'I' for Inactive)
REMARK    1  A    between atoms: C_1  and  C_2
REMARK    2  A    between atoms: C_2  and  C_36
REMARK    3  A    between atoms: C_6  and  C_24
REMARK    4  A    between atoms: C_9  and  C_15
REMARK    5  A    between atoms: C_18  and  N_21
REMARK    6  A    between atoms: C_27  and  N_30
REMARK    7  A    between atoms: N_30  and  C_31
REMARK    8  A    between atoms: N_30  and  C_32
REMARK                            x       y       z     vdW  Elec       q    Type
REMARK                         _______ _______ _______ _____ _____    ______ ____
ROOT
ATOM      1  C   UNL     1      -5.341  10.072   0.095  0.00  0.00    +0.011 C 
ATOM      2  C   UNL     1      -5.841  10.115   1.540  0.00  0.00    -0.023 C 
ATOM      3  C   UNL     1      -6.905   9.036   1.750  0.00  0.00    +0.058 C 
ATOM      4  C   UNL     1      -6.305   7.673   1.492  0.00  0.00    +0.017 C 
ATOM      5  C   UNL     1      -5.003   7.430   1.757  0.00  0.00    +0.024 C 
ATOM      6  C   UNL     1      -4.372   6.071   1.546  0.00  0.00    +0.089 C 
ATOM      7  C   UNL     1      -5.281   5.215   0.710  0.00  0.00    +0.032 A 
ATOM      8  C   UNL     1      -5.018   4.013   0.049  0.00  0.00    +0.098 A 
ATOM      9  N   UNL     1      -6.125   3.631  -0.561  0.00  0.00    -0.172 NA
ATOM     10  N   UNL     1      -7.122   4.587  -0.308  0.00  0.00    -0.263 N 
ATOM     11  H   UNL     1      -8.130   4.454  -0.728  0.00  0.00    +0.190 HD
ATOM     12  C   UNL     1      -6.585   5.550   0.466  0.00  0.00    +0.123 A 
ATOM     13  N   UNL     1      -7.144   6.712   0.987  0.00  0.00    -0.303 N 
ATOM     14  C   UNL     1      -4.166   8.446   2.252  0.00  0.00    +0.162 C 
ATOM     15  O   UNL     1      -3.001   8.193   2.487  0.00  0.00    -0.292 OA
ATOM     16  C   UNL     1      -4.678   9.837   2.498  0.00  0.00    +0.086 C 
ATOM     17  C   UNL     1      -6.437  11.492   1.839  0.00  0.00    +0.011 C 
ATOM     18  H   UNL     1      -8.232   6.870   1.000  0.00  0.00    +0.153 HD
ENDROOT
BRANCH   8  19
ATOM     19  C   UNL     1      -3.722   3.288   0.038  0.00  0.00    +0.003 A 
ATOM     20  C   UNL     1      -3.700   1.895   0.030  0.00  0.00    +0.012 A 
ATOM     21  C   UNL     1      -2.493   1.226   0.021  0.00  0.00    +0.033 A 
ATOM     22  C   UNL     1      -1.306   1.936   0.019  0.00  0.00    +0.126 A 
ATOM     23  C   UNL     1      -1.322   3.320   0.032  0.00  0.00    +0.033 A 
ATOM     24  C   UNL     1      -2.524   3.998   0.037  0.00  0.00    +0.012 A 
BRANCH  22  25
ATOM     25  N   UNL     1      -0.014   1.214   0.009  0.00  0.00    +0.056 N 
ATOM     26  O   UNL     1       0.002  -0.004   0.002  0.00  0.00    -0.126 OA
ATOM     27  O   UNL     1       1.032   1.837   0.002  0.00  0.00    -0.126 OA
ENDBRANCH  22  25
ENDBRANCH   8  19
BRANCH   6  28
ATOM     28  C   UNL     1      -4.152   5.406   2.880  0.00  0.00    -0.035 A 
ATOM     29  C   UNL     1      -5.229   5.156   3.711  0.00  0.00    +0.006 A 
ATOM     30  C   UNL     1      -5.032   4.542   4.933  0.00  0.00    +0.023 A 
ATOM     31  C   UNL     1      -3.750   4.186   5.331  0.00  0.00    +0.029 A 
ATOM     32  C   UNL     1      -2.670   4.444   4.496  0.00  0.00    +0.023 A 
ATOM     33  C   UNL     1      -2.874   5.053   3.273  0.00  0.00    +0.006 A 
BRANCH  31  34
ATOM     34  N   UNL     1      -3.546   3.571   6.568  0.00  0.00    -0.336 N 
ATOM     35  C   UNL     1      -2.193   3.197   6.987  0.00  0.00    +0.129 C 
ATOM     36  C   UNL     1      -4.686   3.299   7.447  0.00  0.00    +0.129 C 
ENDBRANCH  31  34
ENDBRANCH   6  28
TORSDOF 4
