REMARK  Name = ZINC21325920
REMARK  14 active torsions:
REMARK  status: ('A' for Active; 'I' for Inactive)
REMARK    1  A    between atoms: C_1  and  C_2
REMARK    2  A    between atoms: C_2  and  N_3
REMARK    3  A    between atoms: N_3  and  C_4
REMARK    4  A    between atoms: N_3  and  C_6
REMARK    5  A    between atoms: C_4  and  C_5
REMARK    6  A    between atoms: C_9  and  C_13
REMARK    7  A    between atoms: C_10  and  O_12
REMARK    8  A    between atoms: N_14  and  N_15
REMARK    9  A    between atoms: C_19  and  S_22
REMARK   10  A    between atoms: N_20  and  N_21
REMARK   11  A    between atoms: S_22  and  C_23
REMARK   12  A    between atoms: C_23  and  C_24
REMARK   13  A    between atoms: N_26  and  C_27
REMARK   14  A    between atoms: C_31  and  C_33
REMARK                            x       y       z     vdW  Elec       q    Type
REMARK                         _______ _______ _______ _____ _____    ______ ____
ROOT
ATOM      1  N   UNL     1       3.681  13.166   0.798  0.00  0.00    -0.204 N 
ATOM      2  C   UNL     1       2.998  11.965   0.678  0.00  0.00    +0.254 A 
ATOM      3  N   UNL     1       1.696  11.821   0.622  0.00  0.00    -0.109 NA
ATOM      4  N   UNL     1       1.417  10.454   0.497  0.00  0.00    -0.119 NA
ATOM      5  C   UNL     1       2.558   9.806   0.488  0.00  0.00    +0.210 A 
ATOM      6  N   UNL     1       3.565  10.723   0.596  0.00  0.00    -0.211 N 
ATOM      7  H   UNL     1       4.781  13.173   0.835  0.00  0.00    +0.177 HD
ENDROOT
BRANCH   6   8
ATOM      8  N   UNL     1       4.902  10.448   0.619  0.00  0.00    -0.294 N 
ATOM      9  H   UNL     1       5.251   9.407   0.546  0.00  0.00    +0.163 HD
ATOM     10  H   UNL     1       5.631  11.267   0.710  0.00  0.00    +0.163 HD
ENDBRANCH   6   8
BRANCH   1  12
ATOM     11  C   UNL     1       3.610  15.497   0.985  0.00  0.00    +0.142 C 
ATOM     12  N   UNL     1       2.971  14.372   0.872  0.00  0.00    -0.187 NA
BRANCH  11  16
ATOM     13  C   UNL     1       1.457  19.152   1.208  0.00  0.00    +0.033 A 
ATOM     14  C   UNL     1       2.848  19.159   1.256  0.00  0.00    +0.024 A 
ATOM     15  C   UNL     1       3.549  17.976   1.184  0.00  0.00    +0.015 A 
ATOM     16  C   UNL     1       2.863  16.764   1.062  0.00  0.00    +0.036 A 
ATOM     17  C   UNL     1       1.462  16.759   1.009  0.00  0.00    +0.127 A 
ATOM     18  C   UNL     1       0.767  17.952   1.087  0.00  0.00    +0.069 A 
BRANCH  17  19
ATOM     19  O   UNL     1       0.789  15.586   0.886  0.00  0.00    -0.506 OA
ATOM     20  H   UNL     1      -0.310  15.584   0.845  0.00  0.00    +0.292 HD
ENDBRANCH  17  19
BRANCH  13  21
ATOM     21  N   UNL     1       0.753  20.355   1.281  0.00  0.00    -0.330 N 
BRANCH  21  23
ATOM     22  C   UNL     1       1.779  22.178   0.015  0.00  0.00    +0.024 C 
ATOM     23  C   UNL     1       1.478  21.621   1.408  0.00  0.00    +0.102 C 
ENDBRANCH  21  23
BRANCH  21  24
ATOM     24  C   UNL     1      -0.711  20.351   1.230  0.00  0.00    +0.102 C 
ATOM     25  C   UNL     1      -1.270  20.233   2.650  0.00  0.00    +0.024 C 
ENDBRANCH  21  24
ENDBRANCH  13  21
ENDBRANCH  11  16
ENDBRANCH   1  12
BRANCH   5  26
ATOM     26  S   UNL     1       2.757   8.061   0.352  0.00  0.00    -0.075 S 
BRANCH  26  27
ATOM     27  C   UNL     1       1.059   7.433   0.245  0.00  0.00    +0.173 C 
BRANCH  27  28
ATOM     28  C   UNL     1       1.085   5.931   0.123  0.00  0.00    +0.227 C 
ATOM     29  O   UNL     1       2.146   5.342   0.111  0.00  0.00    -0.275 OA
ATOM     30  N   UNL     1      -0.069   5.242   0.029  0.00  0.00    -0.285 N 
ATOM     31  H   UNL     1      -1.026   5.779  -0.047  0.00  0.00    +0.155 HD
BRANCH  30  32
ATOM     32  C   UNL     1      -0.051   3.842   0.028  0.00  0.00    +0.034 A 
ATOM     33  C   UNL     1       0.907   3.158   0.765  0.00  0.00    +0.023 A 
ATOM     34  C   UNL     1       0.922   1.778   0.762  0.00  0.00    +0.002 A 
ATOM     35  C   UNL     1      -0.014   1.076   0.025  0.00  0.00    +0.012 A 
ATOM     36  C   UNL     1      -0.966   1.754  -0.714  0.00  0.00    +0.057 A 
ATOM     37  C   UNL     1      -0.990   3.135  -0.711  0.00  0.00    +0.035 A 
BRANCH  36  38
ATOM     38  C   UNL     1      -1.981   0.985  -1.521  0.00  0.00    +0.417 C 
ATOM     39  F   UNL     1      -1.759  -0.387  -1.363  0.00  0.00    -0.166 F 
ATOM     40  F   UNL     1      -3.268   1.304  -1.076  0.00  0.00    -0.166 F 
ATOM     41  F   UNL     1      -1.857   1.325  -2.872  0.00  0.00    -0.166 F 
ENDBRANCH  36  38
ENDBRANCH  30  32
ENDBRANCH  27  28
ENDBRANCH  26  27
ENDBRANCH   5  26
TORSDOF 12
