REMARK  Name = ZINC64925691
REMARK  9 active torsions:
REMARK  status: ('A' for Active; 'I' for Inactive)
REMARK    1  A    between atoms: C_1  and  C_2
REMARK    2  A    between atoms: C_5  and  C_17
REMARK    3  A    between atoms: C_7  and  N_8
REMARK    4  A    between atoms: N_19  and  C_20
REMARK    5  A    between atoms: C_20  and  C_21
REMARK    6  A    between atoms: C_21  and  S_22
REMARK    7  A    between atoms: S_22  and  C_23
REMARK    8  A    between atoms: C_23  and  C_24
REMARK    9  A    between atoms: C_26  and  C_30
REMARK                            x       y       z     vdW  Elec       q    Type
REMARK                         _______ _______ _______ _____ _____    ______ ____
ROOT
ATOM      1  C   UNL     1      -0.018   1.503   0.010  0.00  0.00    +0.046 C 
ATOM      2  C   UNL     1       0.002  -0.004   0.002  0.00  0.00    -0.028 A 
ATOM      3  C   UNL     1       0.006  -0.686  -1.200  0.00  0.00    +0.006 A 
ATOM      4  C   UNL     1       0.024  -2.066  -1.216  0.00  0.00    +0.013 A 
ATOM      5  C   UNL     1       0.039  -2.778  -0.015  0.00  0.00    +0.039 A 
ATOM      6  C   UNL     1       0.036  -2.090   1.198  0.00  0.00    +0.038 A 
ATOM      7  C   UNL     1       0.023  -0.703   1.203  0.00  0.00    +0.057 A 
ENDROOT
BRANCH   7   8
ATOM      8  N   UNL     1       0.025  -0.009   2.416  0.00  0.00    -0.202 N 
ATOM      9  C   UNL     1      -0.886  -0.183   3.456  0.00  0.00    +0.141 A 
ATOM     10  C   UNL     1      -0.522   0.705   4.473  0.00  0.00    +0.082 A 
ATOM     11  C   UNL     1      -1.267   0.743   5.640  0.00  0.00    +0.029 A 
ATOM     12  C   UNL     1      -2.357  -0.111   5.753  0.00  0.00    +0.019 A 
ATOM     13  C   UNL     1      -2.659  -0.962   4.710  0.00  0.00    +0.084 A 
ATOM     14  N   UNL     1      -1.931  -0.978   3.608  0.00  0.00    -0.347 N 
ATOM     15  N   UNL     1       0.605   1.404   4.033  0.00  0.00    -0.261 N 
ATOM     16  N   UNL     1       0.923   0.951   2.785  0.00  0.00    -0.155 NA
ATOM     17  H   UNL     1       1.080   2.089   4.529  0.00  0.00    +0.168 HD
ATOM     18  H   UNL     1       0.935   1.709   2.119  0.00  0.00    +0.168 HD
ATOM     19  H   UNL     1      -2.170  -1.588   2.892  0.00  0.00    +0.167 HD
ENDBRANCH   7   8
BRANCH   5  20
ATOM     20  C   UNL     1       0.057  -4.256  -0.029  0.00  0.00    +0.244 C 
ATOM     21  O   UNL     1       0.070  -4.874   1.018  0.00  0.00    -0.270 OA
ATOM     22  N   UNL     1       0.060  -4.919  -1.203  0.00  0.00    -0.311 N 
ATOM     23  H   UNL     1       0.050  -4.426  -2.038  0.00  0.00    +0.149 HD
BRANCH  22  24
ATOM     24  C   UNL     1       0.078  -6.384  -1.217  0.00  0.00    +0.115 C 
BRANCH  24  25
ATOM     25  C   UNL     1       0.077  -6.880  -2.664  0.00  0.00    +0.088 C 
BRANCH  25  26
ATOM     26  S   UNL     1       0.100  -8.694  -2.682  0.00  0.00    -0.153 S 
BRANCH  26  27
ATOM     27  C   UNL     1       0.097  -9.116  -4.446  0.00  0.00    +0.126 C 
BRANCH  27  28
ATOM     28  C   UNL     1       0.115 -10.614  -4.604  0.00  0.00    +0.072 A 
ATOM     29  H   UNL     1      -1.039 -13.497  -4.902  0.00  0.00    +0.166 HD
ATOM     30  C   UNL     1      -0.965 -11.415  -4.682  0.00  0.00    +0.036 A 
ATOM     31  N   UNL     1      -0.500 -12.695  -4.820  0.00  0.00    -0.348 N 
ATOM     32  C   UNL     1       0.849 -12.632  -4.823  0.00  0.00    +0.197 A 
ATOM     33  N   UNL     1       1.210 -11.384  -4.698  0.00  0.00    -0.240 NA
ATOM     34  C   UNL     1      -2.408 -10.985  -4.626  0.00  0.00    +0.065 C 
ENDBRANCH  27  28
ENDBRANCH  26  27
ENDBRANCH  25  26
ENDBRANCH  24  25
ENDBRANCH  22  24
ENDBRANCH   5  20
TORSDOF 7
