REMARK  Name = ZINC38556699
REMARK  2 active torsions:
REMARK  status: ('A' for Active; 'I' for Inactive)
REMARK    1  A    between atoms: C_6  and  C_7
REMARK    2  A    between atoms: C_19  and  C_21
REMARK                            x       y       z     vdW  Elec       q    Type
REMARK                         _______ _______ _______ _____ _____    ______ ____
ROOT
ATOM      1  C   UNL     1      -1.420  -0.675   0.795  0.00  0.00    +0.079 C 
ATOM      2  N   UNL     1      -2.536  -0.068   0.582  0.00  0.00    -0.176 NA
ATOM      3  N   UNL     1      -3.708  -0.544   0.503  0.00  0.00    -0.258 N 
ATOM      4  C   UNL     1      -4.083  -1.716   0.973  0.00  0.00    +0.151 C 
ATOM      5  S   UNL     1      -2.871  -2.715   1.791  0.00  0.00    -0.085 S 
ATOM      6  C   UNL     1      -1.336  -2.176   0.960  0.00  0.00    +0.134 C 
ATOM      7  N   UNL     1      -5.378  -2.151   0.833  0.00  0.00    -0.307 N 
ATOM      8  C   UNL     1      -6.452  -1.206   0.497  0.00  0.00    +0.126 C 
ATOM      9  C   UNL     1      -7.169  -1.706  -0.763  0.00  0.00    +0.127 C 
ATOM     10  N   UNL     1      -7.505  -3.125  -0.581  0.00  0.00    -0.295 N 
ATOM     11  C   UNL     1      -6.431  -4.070  -0.245  0.00  0.00    +0.127 C 
ATOM     12  C   UNL     1      -5.713  -3.571   1.010  0.00  0.00    +0.126 C 
ATOM     13  C   UNL     1      -8.776  -3.552  -0.718  0.00  0.00    +0.247 C 
ATOM     14  O   UNL     1      -9.059  -4.708  -0.470  0.00  0.00    -0.270 OA
ATOM     15  H   UNL     1      -4.382  -0.003   0.062  0.00  0.00    +0.191 HD
ENDROOT
BRANCH  13  16
ATOM     16  C   UNL     1      -9.825  -2.616  -1.170  0.00  0.00    +0.039 A 
ATOM     17  C   UNL     1      -9.548  -1.718  -2.218  0.00  0.00    +0.015 A 
ATOM     18  C   UNL     1     -10.478  -0.846  -2.660  0.00  0.00    +0.031 A 
ATOM     19  C   UNL     1     -11.774  -0.813  -2.073  0.00  0.00    +0.100 A 
ATOM     20  C   UNL     1     -12.074  -1.740  -0.986  0.00  0.00    +0.101 A 
ATOM     21  C   UNL     1     -11.062  -2.638  -0.563  0.00  0.00    +0.043 A 
ATOM     22  N   UNL     1     -13.318  -1.614  -0.518  0.00  0.00    -0.191 NA
ATOM     23  S   UNL     1     -13.992  -0.442  -1.389  0.00  0.00    +0.116 S 
ATOM     24  N   UNL     1     -12.801  -0.023  -2.386  0.00  0.00    -0.191 NA
ENDBRANCH  13  16
BRANCH   1  30
ATOM     25  C   UNL     1      -0.230   1.508   0.728  0.00  0.00    +0.011 A 
ATOM     26  C   UNL     1       0.933   2.245   0.806  0.00  0.00    +0.020 A 
ATOM     27  C   UNL     1       2.144   1.612   1.029  0.00  0.00    +0.041 A 
ATOM     28  C   UNL     1       2.198   0.236   1.177  0.00  0.00    +0.020 A 
ATOM     29  C   UNL     1       1.043  -0.514   1.102  0.00  0.00    +0.011 A 
ATOM     30  C   UNL     1      -0.184   0.118   0.876  0.00  0.00    -0.001 A 
ATOM     31 CL   UNL     1       3.603   2.548   1.125  0.00  0.00    -0.084 Cl
ENDBRANCH   1  30
TORSDOF 2
