REMARK  Name = ZINC20381610
REMARK  4 active torsions:
REMARK  status: ('A' for Active; 'I' for Inactive)
REMARK    1  A    between atoms: C_6  and  S_7
REMARK    2  A    between atoms: S_7  and  C_10
REMARK    3  A    between atoms: C_19  and  N_20
REMARK    4  A    between atoms: C_23  and  C_26
REMARK                            x       y       z     vdW  Elec       q    Type
REMARK                         _______ _______ _______ _____ _____    ______ ____
ROOT
ATOM      1  C   UNL     1       1.122   4.423   1.680  0.00  0.00    +0.133 A 
ATOM      2  C   UNL     1       2.206   5.124   2.191  0.00  0.00    +0.140 A 
ATOM      3  N   UNL     1       2.277   5.463   3.457  0.00  0.00    -0.253 NA
ATOM      4  C   UNL     1       1.308   5.148   4.325  0.00  0.00    +0.077 A 
ATOM      5  C   UNL     1       1.401   5.516   5.676  0.00  0.00    +0.077 A 
ATOM      6  C   UNL     1       0.402   5.182   6.547  0.00  0.00    +0.164 A 
ATOM      7  C   UNL     1      -0.726   4.476   6.105  0.00  0.00    +0.163 A 
ATOM      8  C   UNL     1      -0.844   4.105   4.795  0.00  0.00    +0.061 A 
ATOM      9  C   UNL     1       0.169   4.433   3.882  0.00  0.00    +0.027 A 
ATOM     10  C   UNL     1       0.077   4.067   2.519  0.00  0.00    +0.066 A 
ATOM     11  O   UNL     1      -1.724   4.149   6.973  0.00  0.00    -0.485 OA
ATOM     12  C   UNL     1      -1.409   4.206   8.368  0.00  0.00    +0.270 C 
ATOM     13  C   UNL     1      -0.674   5.525   8.641  0.00  0.00    +0.270 C 
ATOM     14  O   UNL     1       0.522   5.544   7.854  0.00  0.00    -0.485 OA
ENDROOT
BRANCH  10  15
ATOM     15  N   UNL     1      -1.022   3.371   2.037  0.00  0.00    -0.328 N 
ATOM     16  C   UNL     1      -2.250   4.163   2.181  0.00  0.00    +0.106 C 
ATOM     17  C   UNL     1      -3.413   3.429   1.510  0.00  0.00    +0.031 C 
ATOM     18  C   UNL     1      -3.589   2.056   2.165  0.00  0.00    +0.078 C 
ATOM     19  C   UNL     1      -2.281   1.270   2.044  0.00  0.00    +0.031 C 
ATOM     20  C   UNL     1      -1.150   2.067   2.700  0.00  0.00    +0.106 C 
BRANCH  18  21
ATOM     21  C   UNL     1      -4.695   1.303   1.470  0.00  0.00    +0.214 C 
ATOM     22  O   UNL     1      -4.460   0.242   0.932  0.00  0.00    -0.276 OA
ATOM     23  N   UNL     1      -5.944   1.809   1.448  0.00  0.00    -0.329 N 
ATOM     24  H   UNL     1      -6.751   1.259   0.941  0.00  0.00    +0.145 HD
ATOM     25  H   UNL     1      -6.157   2.771   1.937  0.00  0.00    +0.145 HD
ENDBRANCH  18  21
ENDBRANCH  10  15
BRANCH   1  26
ATOM     26  S   UNL     1       1.072   3.992  -0.028  0.00  0.00    +0.028 S 
ATOM     27  O   UNL     1       2.279   4.471  -0.603  0.00  0.00    -0.164 OA
ATOM     28  O   UNL     1      -0.208   4.381  -0.507  0.00  0.00    -0.164 OA
BRANCH  26  34
ATOM     29  C   UNL     1      -0.040   1.500  -0.114  0.00  0.00    +0.029 A 
ATOM     30  C   UNL     1       0.007   0.121  -0.190  0.00  0.00    +0.022 A 
ATOM     31  C   UNL     1       1.227  -0.526  -0.274  0.00  0.00    +0.041 A 
ATOM     32  C   UNL     1       2.400   0.208  -0.283  0.00  0.00    +0.022 A 
ATOM     33  C   UNL     1       2.352   1.587  -0.207  0.00  0.00    +0.029 A 
ATOM     34  C   UNL     1       1.132   2.233  -0.123  0.00  0.00    +0.094 A 
ATOM     35 CL   UNL     1       1.287  -2.259  -0.368  0.00  0.00    -0.084 Cl
ENDBRANCH  26  34
ENDBRANCH   1  26
TORSDOF 4
