REMARK  Name = ZINC03957237
REMARK  15 active torsions:
REMARK  status: ('A' for Active; 'I' for Inactive)
REMARK    1  A    between atoms: C_1  and  C_2
REMARK    2  A    between atoms: C_2  and  C_3
REMARK    3  A    between atoms: N_5  and  C_6
REMARK    4  A    between atoms: C_6  and  C_7
REMARK    5  A    between atoms: C_6  and  C_12
REMARK    6  A    between atoms: C_6  and  N_16
REMARK    7  A    between atoms: C_7  and  O_9
REMARK    8  A    between atoms: O_9  and  C_10
REMARK    9  A    between atoms: C_10  and  C_11
REMARK   10  A    between atoms: N_16  and  C_17
REMARK   11  A    between atoms: C_20  and  S_23
REMARK   12  A    between atoms: S_23  and  N_26
REMARK   13  A    between atoms: N_26  and  C_27
REMARK   14  A    between atoms: C_28  and  C_33
REMARK   15  A    between atoms: C_29  and  C_32
REMARK                            x       y       z     vdW  Elec       q    Type
REMARK                         _______ _______ _______ _____ _____    ______ ____
ROOT
ATOM      1  N   UNL     1      -3.100  -3.859  -0.406  0.00  0.00    -0.307 N 
ATOM      2  H   UNL     1      -2.301  -4.288  -0.752  0.00  0.00    +0.149 HD
ENDROOT
BRANCH   1   3
ATOM      3  C   UNL     1      -4.291  -4.581  -0.302  0.00  0.00    +0.029 A 
ATOM      4  C   UNL     1      -5.474  -3.929   0.022  0.00  0.00    +0.025 A 
ATOM      5  C   UNL     1      -6.650  -4.646   0.123  0.00  0.00    +0.030 A 
ATOM      6  C   UNL     1      -6.651  -6.011  -0.096  0.00  0.00    +0.111 A 
ATOM      7  C   UNL     1      -5.474  -6.663  -0.418  0.00  0.00    +0.030 A 
ATOM      8  C   UNL     1      -4.296  -5.952  -0.527  0.00  0.00    +0.025 A 
BRANCH   6   9
ATOM      9  S   UNL     1      -8.153  -6.922   0.036  0.00  0.00    +0.094 S 
ATOM     10  O   UNL     1      -7.790  -8.266   0.320  0.00  0.00    -0.148 OA
ATOM     11  O   UNL     1      -9.011  -6.170   0.883  0.00  0.00    -0.148 OA
BRANCH   9  12
ATOM     12  N   UNL     1      -8.855  -6.928  -1.464  0.00  0.00    -0.057 NA
BRANCH  12  13
ATOM     13  C   UNL     1     -10.060  -7.577  -1.660  0.00  0.00    +0.262 A 
ATOM     14  C   UNL     1     -10.740  -7.665  -2.834  0.00  0.00    +0.037 A 
ATOM     15  C   UNL     1     -11.908  -8.405  -2.604  0.00  0.00    +0.085 A 
ATOM     16  N   UNL     1     -11.931  -8.750  -1.345  0.00  0.00    -0.081 NA
ATOM     17  O   UNL     1     -10.764  -8.239  -0.727  0.00  0.00    -0.336 OA
ATOM     18  C   UNL     1     -12.955  -8.745  -3.632  0.00  0.00    +0.069 C 
ATOM     19  C   UNL     1     -10.314  -7.070  -4.151  0.00  0.00    +0.051 C 
ENDBRANCH  12  13
ENDBRANCH   9  12
ENDBRANCH   6   9
ENDBRANCH   1   3
BRANCH   1  20
ATOM     20  C   UNL     1      -3.056  -2.454   0.007  0.00  0.00    +0.295 C 
BRANCH  20  23
ATOM     21  C   UNL     1      -3.741  -1.103   1.916  0.00  0.00    +0.215 C 
ATOM     22  O   UNL     1      -3.234  -0.139   1.383  0.00  0.00    -0.276 OA
ATOM     23  N   UNL     1      -3.647  -2.319   1.341  0.00  0.00    -0.278 N 
ATOM     24  H   UNL     1      -3.971  -3.103   1.810  0.00  0.00    +0.152 HD
BRANCH  21  26
ATOM     25  C   UNL     1      -4.433   0.524   3.654  0.00  0.00    +0.013 C 
ATOM     26  C   UNL     1      -4.474  -0.943   3.223  0.00  0.00    +0.092 C 
ENDBRANCH  21  26
ENDBRANCH  20  23
BRANCH  20  27
ATOM     27  C   UNL     1      -1.603  -1.978   0.043  0.00  0.00    +0.438 C 
ATOM     28  F   UNL     1      -0.916  -2.650   1.060  0.00  0.00    -0.166 F 
ATOM     29  F   UNL     1      -0.993  -2.247  -1.188  0.00  0.00    -0.166 F 
ATOM     30  F   UNL     1      -1.569  -0.601   0.289  0.00  0.00    -0.166 F 
ENDBRANCH  20  27
BRANCH  20  31
ATOM     31  C   UNL     1      -3.835  -1.617  -0.975  0.00  0.00    +0.359 C 
ATOM     32  O   UNL     1      -4.139  -2.075  -2.051  0.00  0.00    -0.246 OA
BRANCH  31  33
ATOM     33  O   UNL     1      -4.191  -0.363  -0.654  0.00  0.00    -0.462 OA
BRANCH  33  34
ATOM     34  C   UNL     1      -4.928   0.372  -1.633  0.00  0.00    +0.229 C 
ATOM     35  C   UNL     1      -5.240   1.769  -1.092  0.00  0.00    +0.048 C 
ENDBRANCH  33  34
ENDBRANCH  31  33
ENDBRANCH  20  31
ENDBRANCH   1  20
TORSDOF 11
