REMARK  Name = ZINC02253440
REMARK  4 active torsions:
REMARK  status: ('A' for Active; 'I' for Inactive)
REMARK    1  A    between atoms: C_1  and  C_2
REMARK    2  A    between atoms: N_8  and  C_9
REMARK    3  A    between atoms: N_27  and  C_28
REMARK    4  A    between atoms: C_28  and  C_29
REMARK                            x       y       z     vdW  Elec       q    Type
REMARK                         _______ _______ _______ _____ _____    ______ ____
ROOT
ATOM      1  C   UNL     1      -1.364   1.948   0.422  0.00  0.00    +0.086 C 
ATOM      2  C   UNL     1      -0.036   1.273   0.195  0.00  0.00    +0.112 A 
ATOM      3  N   UNL     1      -0.005  -0.024   0.058  0.00  0.00    -0.216 NA
ATOM      4  C   UNL     1       1.148  -0.679  -0.152  0.00  0.00    +0.156 A 
ATOM      5  C   UNL     1       2.337   0.056  -0.225  0.00  0.00    +0.111 A 
ATOM      6  C   UNL     1       3.418  -0.910  -0.458  0.00  0.00    +0.123 A 
ATOM      7  C   UNL     1       2.797  -2.187  -0.512  0.00  0.00    +0.167 A 
ATOM      8  N   UNL     1       1.440  -2.008  -0.325  0.00  0.00    -0.276 N 
ATOM      9  N   UNL     1       3.528  -3.267  -0.713  0.00  0.00    -0.225 NA
ATOM     10  C   UNL     1       4.852  -3.158  -0.867  0.00  0.00    +0.092 A 
ATOM     11  C   UNL     1       5.648  -4.297  -1.082  0.00  0.00    +0.030 A 
ATOM     12  C   UNL     1       6.993  -4.163  -1.234  0.00  0.00    +0.002 A 
ATOM     13  C   UNL     1       7.600  -2.909  -1.181  0.00  0.00    +0.002 A 
ATOM     14  C   UNL     1       6.864  -1.784  -0.975  0.00  0.00    +0.030 A 
ATOM     15  C   UNL     1       5.470  -1.882  -0.812  0.00  0.00    +0.090 A 
ATOM     16  N   UNL     1       4.725  -0.791  -0.608  0.00  0.00    -0.241 NA
ATOM     17  C   UNL     1       2.287   1.458  -0.074  0.00  0.00    +0.266 A 
ATOM     18  O   UNL     1       3.302   2.131  -0.131  0.00  0.00    -0.267 OA
ATOM     19  N   UNL     1       1.082   2.035   0.134  0.00  0.00    -0.292 N 
ENDROOT
BRANCH   8  20
ATOM     20  C   UNL     1       0.492  -3.041  -0.314  0.00  0.00    +0.052 A 
ATOM     21  C   UNL     1       0.259  -3.783  -1.464  0.00  0.00    +0.029 A 
ATOM     22  C   UNL     1      -0.675  -4.801  -1.452  0.00  0.00    +0.042 A 
ATOM     23  C   UNL     1      -1.378  -5.082  -0.292  0.00  0.00    +0.142 A 
ATOM     24  C   UNL     1      -1.147  -4.344   0.857  0.00  0.00    +0.078 A 
ATOM     25  C   UNL     1      -0.209  -3.328   0.850  0.00  0.00    +0.049 A 
ATOM     26 CL   UNL     1      -2.029  -4.699   2.309  0.00  0.00    -0.081 Cl
ATOM     27  F   UNL     1      -2.291  -6.078  -0.282  0.00  0.00    -0.204 F 
ENDBRANCH   8  20
BRANCH  19  28
ATOM     28  C   UNL     1       0.985   3.488   0.295  0.00  0.00    +0.161 C 
BRANCH  28  29
ATOM     29  C   UNL     1       0.906   4.139  -1.062  0.00  0.00    -0.028 A 
ATOM     30  C   UNL     1       2.066   4.441  -1.752  0.00  0.00    +0.007 A 
ATOM     31  C   UNL     1       1.994   5.033  -2.998  0.00  0.00    +0.020 A 
ATOM     32  C   UNL     1       0.762   5.334  -3.551  0.00  0.00    +0.041 A 
ATOM     33  C   UNL     1      -0.398   5.036  -2.858  0.00  0.00    +0.020 A 
ATOM     34  C   UNL     1      -0.325   4.439  -1.614  0.00  0.00    +0.007 A 
ATOM     35 CL   UNL     1       0.671   6.083  -5.115  0.00  0.00    -0.084 Cl
ENDBRANCH  28  29
ENDBRANCH  19  28
TORSDOF 3
