REMARK  Name = ZINC08589271
REMARK  3 active torsions:
REMARK  status: ('A' for Active; 'I' for Inactive)
REMARK    1  A    between atoms: C_1  and  C_2
REMARK    2  A    between atoms: C_17  and  S_20
REMARK    3  A    between atoms: S_20  and  C_23
REMARK                            x       y       z     vdW  Elec       q    Type
REMARK                         _______ _______ _______ _____ _____    ______ ____
ROOT
ATOM      1  C   UNL     1       1.060  -1.729  -2.764  0.00  0.00    +0.007 C 
ATOM      2  C   UNL     1       0.523  -1.578  -1.339  0.00  0.00    -0.011 C 
ATOM      3  C   UNL     1       1.374  -2.417  -0.383  0.00  0.00    +0.022 C 
ATOM      4  C   UNL     1       0.855  -2.235   1.047  0.00  0.00    +0.107 C 
ATOM      5  N   UNL     1      -0.578  -2.556   1.075  0.00  0.00    -0.314 N 
ATOM      6  C   UNL     1      -1.473  -1.872   0.132  0.00  0.00    +0.107 C 
ATOM      7  C   UNL     1      -0.929  -2.057  -1.288  0.00  0.00    +0.022 C 
ATOM      8  C   UNL     1      -1.076  -3.485   1.972  0.00  0.00    +0.140 A 
ATOM      9  C   UNL     1      -0.244  -4.019   2.961  0.00  0.00    +0.078 A 
ATOM     10  C   UNL     1      -0.711  -4.959   3.885  0.00  0.00    +0.087 A 
ATOM     11  C   UNL     1       0.223  -5.410   4.820  0.00  0.00    +0.036 A 
ATOM     12  C   UNL     1       1.490  -4.939   4.797  0.00  0.00    +0.048 A 
ATOM     13  S   UNL     1       1.455  -3.800   3.422  0.00  0.00    -0.092 S 
ATOM     14  N   UNL     1      -2.055  -5.320   3.745  0.00  0.00    -0.192 N 
ATOM     15  C   UNL     1      -2.829  -4.772   2.763  0.00  0.00    +0.204 A 
ATOM     16  N   UNL     1      -2.340  -3.867   1.898  0.00  0.00    -0.209 NA
ATOM     17  C   UNL     1      -4.085  -5.340   2.907  0.00  0.00    +0.249 A 
ATOM     18  N   UNL     1      -4.048  -6.184   3.931  0.00  0.00    -0.108 NA
ATOM     19  N   UNL     1      -2.872  -6.206   4.455  0.00  0.00    -0.057 NA
ENDROOT
BRANCH  17  20
ATOM     20  S   UNL     1      -5.492  -4.998   1.903  0.00  0.00    +0.047 S 
ATOM     21  O   UNL     1      -6.635  -5.315   2.685  0.00  0.00    -0.163 OA
ATOM     22  O   UNL     1      -5.286  -3.709   1.341  0.00  0.00    -0.163 OA
BRANCH  20  23
ATOM     23  C   UNL     1      -5.465  -6.141   0.563  0.00  0.00    +0.097 A 
ATOM     24  C   UNL     1      -4.802  -5.820  -0.607  0.00  0.00    +0.027 A 
ATOM     25  C   UNL     1      -4.781  -6.717  -1.658  0.00  0.00    +0.003 A 
ATOM     26  C   UNL     1      -5.423  -7.935  -1.542  0.00  0.00    +0.020 A 
ATOM     27  C   UNL     1      -6.088  -8.257  -0.372  0.00  0.00    +0.043 A 
ATOM     28  C   UNL     1      -6.103  -7.362   0.683  0.00  0.00    +0.047 A 
ATOM     29 CL   UNL     1      -6.895  -9.787  -0.224  0.00  0.00    -0.083 Cl
ENDBRANCH  20  23
ENDBRANCH  17  20
TORSDOF 2
