REMARK  Name = ZINC39685911
REMARK  13 active torsions:
REMARK  status: ('A' for Active; 'I' for Inactive)
REMARK    1  A    between atoms: C_1  and  C_2
REMARK    2  A    between atoms: C_4  and  C_8
REMARK    3  A    between atoms: N_6  and  C_7
REMARK    4  A    between atoms: C_12  and  C_21
REMARK    5  A    between atoms: N_23  and  C_24
REMARK    6  A    between atoms: C_24  and  C_26
REMARK    7  A    between atoms: C_24  and  C_29
REMARK    8  A    between atoms: C_26  and  C_27
REMARK    9  A    between atoms: C_26  and  C_28
REMARK   10  A    between atoms: N_31  and  C_32
REMARK   11  A    between atoms: C_32  and  C_33
REMARK   12  A    between atoms: C_32  and  C_34
REMARK   13  A    between atoms: C_32  and  C_35
REMARK                            x       y       z     vdW  Elec       q    Type
REMARK                         _______ _______ _______ _____ _____    ______ ____
ROOT
ATOM      1  C   UNL     1      -0.616  -4.308  -1.743  0.00  0.00    +0.267 C 
ATOM      2  O   UNL     1      -0.874  -4.112  -2.915  0.00  0.00    -0.268 OA
ATOM      3  N   UNL     1      -0.930  -5.489  -1.173  0.00  0.00    -0.295 N 
ATOM      4  C   UNL     1      -0.703  -5.908   0.230  0.00  0.00    +0.121 C 
ATOM      5  C   UNL     1      -1.972  -6.704   0.610  0.00  0.00    +0.100 C 
ATOM      6  C   UNL     1      -2.542  -7.196  -0.731  0.00  0.00    -0.004 C 
ATOM      7  C   UNL     1      -1.587  -6.657  -1.806  0.00  0.00    +0.115 C 
ATOM      8  C   UNL     1      -3.943  -6.632  -0.949  0.00  0.00    -0.010 C 
ATOM      9  C   UNL     1      -4.511  -7.181  -2.261  0.00  0.00    -0.082 C 
ATOM     10  N   UNL     1      -4.556  -8.647  -2.201  0.00  0.00    +0.379 N 
ATOM     11  C   UNL     1      -3.195  -9.185  -2.085  0.00  0.00    -0.082 C 
ATOM     12  C   UNL     1      -2.571  -8.721  -0.766  0.00  0.00    -0.010 C 
ATOM     13  H   UNL     1      -5.099  -8.933  -1.401  0.00  0.00    -0.086 HD
ATOM     14  H   UNL     1      -4.987  -9.003  -3.041  0.00  0.00    -0.086 HD
ENDROOT
BRANCH   1  18
ATOM     15  C   UNL     1       1.562   0.032  -0.292  0.00  0.00    +0.065 C 
ATOM     16  C   UNL     1       0.986  -1.360  -0.328  0.00  0.00    +0.037 A 
ATOM     17  C   UNL     1       0.430  -1.972  -1.400  0.00  0.00    +0.057 A 
ATOM     18  C   UNL     1       0.042  -3.254  -0.945  0.00  0.00    +0.147 A 
ATOM     19  N   UNL     1       0.377  -3.328   0.328  0.00  0.00    -0.167 NA
ATOM     20  N   UNL     1       0.934  -2.233   0.702  0.00  0.00    -0.271 N 
ATOM     21  C   UNL     1       1.438  -1.967   2.051  0.00  0.00    +0.172 C 
ENDBRANCH   1  18
BRANCH   5  22
ATOM     22  C   UNL     1      -2.964  -5.810   1.308  0.00  0.00    +0.219 C 
ATOM     23  O   UNL     1      -3.511  -6.187   2.322  0.00  0.00    -0.275 OA
ATOM     24  N   UNL     1      -3.242  -4.591   0.804  0.00  0.00    -0.303 N 
ATOM     25  H   UNL     1      -2.804  -4.290  -0.007  0.00  0.00    +0.149 HD
BRANCH  24  26
ATOM     26  C   UNL     1      -4.206  -3.721   1.483  0.00  0.00    +0.161 C 
BRANCH  26  27
ATOM     27  C   UNL     1      -4.799  -2.756   0.488  0.00  0.00    +0.234 C 
ATOM     28  O   UNL     1      -4.247  -2.566  -0.575  0.00  0.00    -0.274 OA
ATOM     29  N   UNL     1      -5.943  -2.106   0.780  0.00  0.00    -0.309 N 
ATOM     30  H   UNL     1      -6.348  -2.206   1.656  0.00  0.00    +0.149 HD
BRANCH  29  31
ATOM     31  C   UNL     1      -6.574  -1.246  -0.225  0.00  0.00    +0.026 C 
ATOM     32  C   UNL     1      -6.927  -2.079  -1.459  0.00  0.00    +0.031 C 
ATOM     33  C   UNL     1      -7.848  -0.631   0.357  0.00  0.00    +0.031 C 
ATOM     34  C   UNL     1      -5.605  -0.131  -0.623  0.00  0.00    +0.031 C 
ENDBRANCH  29  31
ENDBRANCH  26  27
BRANCH  26  35
ATOM     35  C   UNL     1      -3.497  -2.940   2.591  0.00  0.00    +0.012 C 
ATOM     36  C   UNL     1      -2.961  -3.916   3.640  0.00  0.00    +0.009 C 
ATOM     37  C   UNL     1      -2.334  -2.147   1.991  0.00  0.00    +0.009 C 
ENDBRANCH  26  35
ENDBRANCH  24  26
ENDBRANCH   5  22
TORSDOF 6
