REMARK  Name = ZINC01863510
REMARK  7 active torsions:
REMARK  status: ('A' for Active; 'I' for Inactive)
REMARK    1  A    between atoms: C_1  and  C_2
REMARK    2  A    between atoms: C_2  and  C_3
REMARK    3  A    between atoms: C_2  and  C_4
REMARK    4  A    between atoms: C_4  and  N_5
REMARK    5  A    between atoms: C_13  and  C_17
REMARK    6  A    between atoms: C_13  and  N_21
REMARK    7  A    between atoms: C_22  and  C_24
REMARK                            x       y       z     vdW  Elec       q    Type
REMARK                         _______ _______ _______ _____ _____    ______ ____
ROOT
ATOM      1  N   UNL     1      -0.915  -1.414   0.715  0.00  0.00    -0.281 N 
ATOM      2  C   UNL     1      -1.027  -2.475   1.589  0.00  0.00    +0.120 A 
ATOM      3  C   UNL     1      -1.232  -3.721   1.072  0.00  0.00    +0.096 A 
ATOM      4  C   UNL     1      -1.326  -3.903  -0.313  0.00  0.00    +0.262 A 
ATOM      5  N   UNL     1      -1.210  -2.834  -1.129  0.00  0.00    -0.275 N 
ATOM      6  C   UNL     1      -1.013  -1.607  -0.611  0.00  0.00    +0.331 A 
ATOM      7  O   UNL     1      -0.916  -0.654  -1.360  0.00  0.00    -0.246 OA
ATOM      8  O   UNL     1      -1.509  -5.015  -0.777  0.00  0.00    -0.267 OA
ATOM      9  C   UNL     1      -1.313  -4.668   2.247  0.00  0.00    +0.240 C 
ATOM     10  C   UNL     1      -1.123  -3.761   3.446  0.00  0.00    +0.256 C 
ATOM     11  O   UNL     1      -1.115  -4.091   4.613  0.00  0.00    -0.272 OA
ATOM     12  N   UNL     1      -0.966  -2.516   2.961  0.00  0.00    -0.269 N 
ATOM     13  H   UNL     1      -1.273  -2.949  -2.090  0.00  0.00    +0.173 HD
ATOM     14  H   UNL     1      -0.825  -1.735   3.517  0.00  0.00    +0.156 HD
ENDROOT
BRANCH   9  15
ATOM     15  C   UNL     1      -2.682  -5.348   2.297  0.00  0.00    +0.424 C 
ATOM     16  F   UNL     1      -2.837  -6.168   1.174  0.00  0.00    -0.167 F 
ATOM     17  F   UNL     1      -2.774  -6.124   3.458  0.00  0.00    -0.167 F 
ATOM     18  F   UNL     1      -3.687  -4.375   2.306  0.00  0.00    -0.167 F 
ENDBRANCH   9  15
BRANCH   9  19
ATOM     19  N   UNL     1      -0.241  -5.665   2.179  0.00  0.00    -0.287 N 
ATOM     20  C   UNL     1       1.044  -5.268   2.096  0.00  0.00    +0.247 C 
ATOM     21  O   UNL     1       1.322  -4.087   2.169  0.00  0.00    -0.270 OA
ATOM     22  H   UNL     1      -0.457  -6.610   2.195  0.00  0.00    +0.151 HD
BRANCH  20  23
ATOM     23  C   UNL     1       2.115  -6.269   1.916  0.00  0.00    +0.055 A 
ATOM     24  C   UNL     1       1.799  -7.627   1.826  0.00  0.00    +0.016 A 
ATOM     25  C   UNL     1       2.803  -8.556   1.658  0.00  0.00    +0.021 A 
ATOM     26  C   UNL     1       4.125  -8.147   1.579  0.00  0.00    +0.042 A 
ATOM     27  C   UNL     1       4.446  -6.803   1.668  0.00  0.00    +0.040 A 
ATOM     28  C   UNL     1       3.449  -5.862   1.829  0.00  0.00    +0.054 A 
ATOM     29 CL   UNL     1       3.852  -4.176   1.933  0.00  0.00    -0.083 Cl
ATOM     30 CL   UNL     1       5.383  -9.324   1.368  0.00  0.00    -0.083 Cl
ENDBRANCH  20  23
ENDBRANCH   9  19
BRANCH   1  31
ATOM     31  C   UNL     1      -0.695  -0.064   1.238  0.00  0.00    +0.131 C 
BRANCH  31  33
ATOM     32  C   UNL     1       1.041   1.651   1.778  0.00  0.00    +0.009 C 
ATOM     33  C   UNL     1       0.808   0.200   1.351  0.00  0.00    +0.003 C 
ATOM     34  C   UNL     1       1.414  -0.742   2.393  0.00  0.00    +0.009 C 
ENDBRANCH  31  33
ENDBRANCH   1  31
TORSDOF 5
