REMARK  Name = ZINC34676539
REMARK  4 active torsions:
REMARK  status: ('A' for Active; 'I' for Inactive)
REMARK    1  A    between atoms: C_5  and  N_7
REMARK    2  A    between atoms: N_10  and  C_13
REMARK    3  A    between atoms: N_18  and  S_20
REMARK    4  A    between atoms: S_20  and  C_23
REMARK                            x       y       z     vdW  Elec       q    Type
REMARK                         _______ _______ _______ _____ _____    ______ ____
ROOT
ATOM      1  C   UNL     1       3.255  -5.744  -0.052  0.00  0.00    -0.052 C 
ATOM      2  C   UNL     1       3.090  -6.604  -1.308  0.00  0.00    -0.013 C 
ATOM      3  C   UNL     1       4.176  -7.681  -1.337  0.00  0.00    +0.016 C 
ATOM      4  C   UNL     1       4.026  -8.585  -0.109  0.00  0.00    +0.109 C 
ATOM      5  N   UNL     1       4.039  -7.748   1.098  0.00  0.00    -0.178 NA
ATOM      6  C   UNL     1       3.095  -6.626   1.190  0.00  0.00    +0.094 C 
ENDROOT
BRANCH   1  10
ATOM      7  N   UNL     1       1.236  -2.079  -0.021  0.00  0.00    -0.331 N 
ATOM      8  C   UNL     1       1.254  -2.842   1.236  0.00  0.00    +0.086 C 
ATOM      9  C   UNL     1       2.390  -3.869   1.165  0.00  0.00    -0.059 C 
ATOM     10  N   UNL     1       2.231  -4.691  -0.041  0.00  0.00    +0.384 N 
ATOM     11  C   UNL     1       2.378  -3.855  -1.239  0.00  0.00    -0.059 C 
ATOM     12  C   UNL     1       1.236  -2.828  -1.287  0.00  0.00    +0.086 C 
ATOM     13  H   UNL     1       1.315  -5.115  -0.039  0.00  0.00    -0.081 HD
BRANCH   7  18
ATOM     14  C   UNL     1      -0.017   1.377   0.010  0.00  0.00    +0.002 A 
ATOM     15  C   UNL     1       1.170   2.087   0.002  0.00  0.00    +0.003 A 
ATOM     16  C   UNL     1       2.380   1.418  -0.013  0.00  0.00    +0.040 A 
ATOM     17  C   UNL     1       2.406   0.035  -0.021  0.00  0.00    +0.144 A 
ATOM     18  C   UNL     1       1.214  -0.681  -0.013  0.00  0.00    +0.065 A 
ATOM     19  C   UNL     1       0.002  -0.004   0.002  0.00  0.00    +0.026 A 
ATOM     20  F   UNL     1       3.588  -0.619  -0.036  0.00  0.00    -0.204 F 
ENDBRANCH   7  18
ENDBRANCH   1  10
BRANCH   5  21
ATOM     21  S   UNL     1       5.096  -8.064   2.333  0.00  0.00    +0.061 S 
ATOM     22  O   UNL     1       4.525  -7.508   3.509  0.00  0.00    -0.153 OA
ATOM     23  O   UNL     1       5.442  -9.438   2.230  0.00  0.00    -0.153 OA
BRANCH  21  24
ATOM     24  C   UNL     1       6.566  -7.149   2.007  0.00  0.00    +0.106 A 
ATOM     25  C   UNL     1       7.581  -7.715   1.259  0.00  0.00    +0.031 A 
ATOM     26  C   UNL     1       8.734  -6.998   1.002  0.00  0.00    +0.040 A 
ATOM     27  C   UNL     1       8.873  -5.712   1.494  0.00  0.00    +0.124 A 
ATOM     28  C   UNL     1       7.855  -5.145   2.243  0.00  0.00    +0.040 A 
ATOM     29  C   UNL     1       6.701  -5.862   2.494  0.00  0.00    +0.031 A 
ATOM     30  F   UNL     1      10.000  -5.010   1.244  0.00  0.00    -0.205 F 
ENDBRANCH  21  24
ENDBRANCH   5  21
TORSDOF 4
