REMARK  Name = ZINC20558312
REMARK  4 active torsions:
REMARK  status: ('A' for Active; 'I' for Inactive)
REMARK    1  A    between atoms: C_1  and  N_2
REMARK    2  A    between atoms: C_14  and  C_22
REMARK    3  A    between atoms: C_16  and  C_20
REMARK    4  A    between atoms: C_17  and  N_19
REMARK                            x       y       z     vdW  Elec       q    Type
REMARK                         _______ _______ _______ _____ _____    ______ ____
ROOT
ATOM      1  C   UNL     1      -1.478  -5.200   3.235  0.00  0.00    +0.157 C 
ATOM      2  N   UNL     1      -1.501  -4.431   1.989  0.00  0.00    -0.206 N 
ATOM      3  C   UNL     1      -2.627  -3.692   1.606  0.00  0.00    +0.062 A 
ATOM      4  C   UNL     1      -3.884  -4.147   1.986  0.00  0.00    +0.025 A 
ATOM      5  C   UNL     1      -5.016  -3.453   1.607  0.00  0.00    +0.002 A 
ATOM      6  C   UNL     1      -4.902  -2.302   0.847  0.00  0.00    +0.001 A 
ATOM      7  C   UNL     1      -3.662  -1.838   0.468  0.00  0.00    +0.013 A 
ATOM      8  C   UNL     1      -2.503  -2.528   0.847  0.00  0.00    +0.042 A 
ATOM      9  C   UNL     1      -1.197  -1.976   0.416  0.00  0.00    +0.162 C 
ATOM     10  C   UNL     1      -0.091  -2.714   0.421  0.00  0.00    +0.141 C 
ATOM     11  S   UNL     1      -0.190  -4.396   0.962  0.00  0.00    +0.075 S 
ATOM     12  O   UNL     1      -0.530  -5.179  -0.174  0.00  0.00    -0.150 OA
ATOM     13  O   UNL     1       0.963  -4.647   1.753  0.00  0.00    -0.150 OA
ATOM     14  C   UNL     1       1.235  -2.157  -0.017  0.00  0.00    +0.118 C 
ATOM     15  C   UNL     1       1.193  -0.654  -0.013  0.00  0.00    +0.099 C 
ATOM     16  C   UNL     1       0.002  -0.004   0.002  0.00  0.00    +0.199 C 
ATOM     17  O   UNL     1      -1.159  -0.679   0.015  0.00  0.00    -0.439 OA
ENDROOT
BRANCH  14  18
ATOM     18  C   UNL     1       1.546  -2.644  -1.409  0.00  0.00    -0.033 A 
ATOM     19  C   UNL     1       0.697  -2.334  -2.455  0.00  0.00    +0.007 A 
ATOM     20  C   UNL     1       0.984  -2.775  -3.733  0.00  0.00    +0.038 A 
ATOM     21  C   UNL     1       2.116  -3.539  -3.963  0.00  0.00    +0.123 A 
ATOM     22  C   UNL     1       2.962  -3.854  -2.913  0.00  0.00    +0.038 A 
ATOM     23  C   UNL     1       2.676  -3.406  -1.638  0.00  0.00    +0.007 A 
ATOM     24  F   UNL     1       2.394  -3.976  -5.211  0.00  0.00    -0.205 F 
ENDBRANCH  14  18
BRANCH  16  25
ATOM     25  N   UNL     1      -0.017   1.369   0.010  0.00  0.00    -0.328 N 
ATOM     26  H   UNL     1      -0.977   1.905   0.022  0.00  0.00    +0.145 HD
ATOM     27  H   UNL     1       0.928   1.931   0.004  0.00  0.00    +0.145 HD
ENDBRANCH  16  25
BRANCH  15  28
ATOM     28  C   UNL     1       2.414   0.095  -0.024  0.00  0.00    +0.101 C 
ATOM     29  N   UNL     1       3.383   0.688  -0.033  0.00  0.00    -0.191 NA
ENDBRANCH  15  28
TORSDOF 3
