REMARK  Name = ZINC04325650
REMARK  6 active torsions:
REMARK  status: ('A' for Active; 'I' for Inactive)
REMARK    1  A    between atoms: C_1  and  C_2
REMARK    2  A    between atoms: C_4  and  C_29
REMARK    3  A    between atoms: C_17  and  C_22
REMARK    4  A    between atoms: C_19  and  C_21
REMARK    5  A    between atoms: C_25  and  C_27
REMARK    6  A    between atoms: C_25  and  C_28
REMARK                            x       y       z     vdW  Elec       q    Type
REMARK                         _______ _______ _______ _____ _____    ______ ____
ROOT
ATOM      1  C   UNL     1       1.413   1.023  -0.682  0.00  0.00    +0.067 C 
ATOM      2  C   UNL     1       0.646  -0.220  -0.309  0.00  0.00    +0.061 A 
ATOM      3  C   UNL     1      -0.581  -0.619  -0.852  0.00  0.00    +0.048 A 
ATOM      4  C   UNL     1      -0.940  -1.782  -0.262  0.00  0.00    +0.044 A 
ATOM      5  N   UNL     1       0.034  -2.108   0.629  0.00  0.00    -0.218 N 
ATOM      6  N   UNL     1       1.017  -1.113   0.572  0.00  0.00    -0.170 NA
ATOM      7  C   UNL     1       0.052  -3.235   1.448  0.00  0.00    +0.168 A 
ATOM      8  C   UNL     1       0.158  -3.096   2.858  0.00  0.00    +0.056 A 
ATOM      9  C   UNL     1       0.261  -1.876   3.655  0.00  0.00    -0.019 A 
ATOM     10  C   UNL     1       0.350  -2.021   4.995  0.00  0.00    +0.021 A 
ATOM     11  S   UNL     1       0.302  -3.768   5.275  0.00  0.00    -0.071 S 
ATOM     12  C   UNL     1       0.165  -4.305   3.589  0.00  0.00    +0.116 A 
ATOM     13  N   UNL     1       0.081  -5.474   2.988  0.00  0.00    -0.203 NA
ATOM     14  C   UNL     1      -0.014  -5.541   1.669  0.00  0.00    +0.255 A 
ATOM     15  N   UNL     1      -0.034  -4.444   0.923  0.00  0.00    -0.191 NA
ATOM     16  N   UNL     1      -0.101  -6.789   1.051  0.00  0.00    -0.202 N 
ATOM     17  C   UNL     1      -0.105  -7.994   1.679  0.00  0.00    +0.045 A 
ATOM     18  C   UNL     1      -0.203  -8.951   0.728  0.00  0.00    +0.048 A 
ATOM     19  C   UNL     1      -0.261  -8.316  -0.518  0.00  0.00    +0.061 A 
ATOM     20  N   UNL     1      -0.206  -7.024  -0.326  0.00  0.00    -0.169 NA
ATOM     21  C   UNL     1      -0.374  -9.005  -1.854  0.00  0.00    +0.067 C 
ATOM     22  C   UNL     1      -0.015  -8.224   3.166  0.00  0.00    +0.066 C 
ATOM     23  C   UNL     1       0.465  -0.917   6.000  0.00  0.00    +0.203 C 
ATOM     24  O   UNL     1       0.785   0.292   5.294  0.00  0.00    -0.368 OA
ATOM     25  C   UNL     1      -0.053   0.527   4.159  0.00  0.00    +0.068 C 
ATOM     26  C   UNL     1       0.271  -0.475   3.047  0.00  0.00    +0.071 C 
ATOM     27  C   UNL     1      -1.519   0.373   4.570  0.00  0.00    +0.041 C 
ATOM     28  C   UNL     1       0.179   1.949   3.643  0.00  0.00    +0.041 C 
ATOM     29  C   UNL     1      -2.192  -2.572  -0.541  0.00  0.00    +0.066 C 
ENDROOT
TORSDOF 0
