REMARK  Name = ZINC04349262
REMARK  11 active torsions:
REMARK  status: ('A' for Active; 'I' for Inactive)
REMARK    1  A    between atoms: C_3  and  O_37
REMARK    2  A    between atoms: C_4  and  O_36
REMARK    3  A    between atoms: C_6  and  C_7
REMARK    4  A    between atoms: C_15  and  O_35
REMARK    5  A    between atoms: C_16  and  C_19
REMARK    6  A    between atoms: C_17  and  O_18
REMARK    7  A    between atoms: C_21  and  O_34
REMARK    8  A    between atoms: C_23  and  O_33
REMARK    9  A    between atoms: C_25  and  O_32
REMARK   10  A    between atoms: C_27  and  C_30
REMARK   11  A    between atoms: C_30  and  O_31
REMARK                            x       y       z     vdW  Elec       q    Type
REMARK                         _______ _______ _______ _____ _____    ______ ____
ROOT
ATOM      1  C   UNL     1      -1.264  -0.761   0.010  0.00  0.00    +0.139 A 
ATOM      2  C   UNL     1      -2.437  -0.072   0.019  0.00  0.00    +0.098 A 
ATOM      3  C   UNL     1      -3.662  -0.781   0.027  0.00  0.00    +0.197 A 
ATOM      4  O   UNL     1      -4.733  -0.196   0.035  0.00  0.00    -0.287 OA
ATOM      5  C   UNL     1      -3.594  -2.252   0.024  0.00  0.00    +0.106 A 
ATOM      6  C   UNL     1      -2.329  -2.865   0.014  0.00  0.00    +0.146 A 
ATOM      7  O   UNL     1      -1.215  -2.102   0.002  0.00  0.00    -0.454 OA
ATOM      8  C   UNL     1      -2.241  -4.248   0.011  0.00  0.00    +0.093 A 
ATOM      9  C   UNL     1      -3.396  -5.016   0.017  0.00  0.00    +0.130 A 
ATOM     10  C   UNL     1      -4.648  -4.413   0.027  0.00  0.00    +0.067 A 
ATOM     11  C   UNL     1      -4.755  -3.034   0.030  0.00  0.00    +0.140 A 
ENDROOT
BRANCH   1  17
ATOM     12  C   UNL     1      -0.017   1.393   0.010  0.00  0.00    +0.015 A 
ATOM     13  C   UNL     1       1.167   2.098   0.002  0.00  0.00    +0.050 A 
ATOM     14  C   UNL     1       2.380   1.424  -0.013  0.00  0.00    +0.158 A 
ATOM     15  C   UNL     1       2.407   0.030  -0.022  0.00  0.00    +0.159 A 
ATOM     16  C   UNL     1       1.224  -0.683  -0.014  0.00  0.00    +0.060 A 
ATOM     17  C   UNL     1       0.002  -0.004   0.002  0.00  0.00    +0.021 A 
BRANCH  15  18
ATOM     18  O   UNL     1       3.597  -0.627  -0.037  0.00  0.00    -0.503 OA
ATOM     19  H   UNL     1       3.950  -0.823   0.841  0.00  0.00    +0.292 HD
ENDBRANCH  15  18
BRANCH  14  20
ATOM     20  O   UNL     1       3.545   2.124  -0.021  0.00  0.00    -0.503 OA
ATOM     21  H   UNL     1       3.890   2.322   0.860  0.00  0.00    +0.292 HD
ENDBRANCH  14  20
ENDBRANCH   1  17
BRANCH  10  22
ATOM     22  C   UNL     1      -5.892  -5.263   0.034  0.00  0.00    +0.187 C 
ATOM     23  C   UNL     1      -6.112  -5.858  -1.359  0.00  0.00    +0.179 C 
ATOM     24  C   UNL     1      -7.343  -6.769  -1.329  0.00  0.00    +0.177 C 
ATOM     25  C   UNL     1      -7.140  -7.849  -0.262  0.00  0.00    +0.176 C 
ATOM     26  C   UNL     1      -6.880  -7.177   1.089  0.00  0.00    +0.175 C 
ATOM     27  O   UNL     1      -5.741  -6.321   0.983  0.00  0.00    -0.361 OA
BRANCH  25  28
ATOM     28  O   UNL     1      -8.312  -8.661  -0.175  0.00  0.00    -0.386 OA
ATOM     29  H   UNL     1      -8.538  -9.114  -0.999  0.00  0.00    +0.210 HD
ENDBRANCH  25  28
BRANCH  24  30
ATOM     30  O   UNL     1      -7.515  -7.384  -2.607  0.00  0.00    -0.386 OA
ATOM     31  H   UNL     1      -8.278  -7.976  -2.660  0.00  0.00    +0.210 HD
ENDBRANCH  24  30
BRANCH  23  32
ATOM     32  O   UNL     1      -6.320  -4.803  -2.301  0.00  0.00    -0.386 OA
ATOM     33  H   UNL     1      -6.466  -5.108  -3.207  0.00  0.00    +0.210 HD
ENDBRANCH  23  32
BRANCH  26  34
ATOM     34  C   UNL     1      -6.617  -8.249   2.149  0.00  0.00    +0.190 C 
BRANCH  34  35
ATOM     35  O   UNL     1      -6.490  -7.630   3.431  0.00  0.00    -0.392 OA
ATOM     36  H   UNL     1      -6.321  -8.251   4.153  0.00  0.00    +0.210 HD
ENDBRANCH  34  35
ENDBRANCH  26  34
ENDBRANCH  10  22
BRANCH  11  37
ATOM     37  O   UNL     1      -5.977  -2.443   0.040  0.00  0.00    -0.505 OA
ATOM     38  H   UNL     1      -6.337  -2.270  -0.841  0.00  0.00    +0.292 HD
ENDBRANCH  11  37
BRANCH   9  39
ATOM     39  O   UNL     1      -3.302  -6.370   0.014  0.00  0.00    -0.506 OA
ATOM     40  H   UNL     1      -3.268  -6.765   0.896  0.00  0.00    +0.292 HD
ENDBRANCH   9  39
TORSDOF 11
