REMARK  Name = ZINC16920067
REMARK  12 active torsions:
REMARK  status: ('A' for Active; 'I' for Inactive)
REMARK    1  A    between atoms: C_1  and  C_2
REMARK    2  A    between atoms: C_2  and  C_4
REMARK    3  A    between atoms: C_2  and  N_54
REMARK    4  A    between atoms: C_7  and  S_16
REMARK    5  A    between atoms: N_8  and  C_9
REMARK    6  A    between atoms: S_16  and  C_17
REMARK    7  A    between atoms: C_17  and  C_19
REMARK    8  A    between atoms: C_17  and  C_20
REMARK    9  A    between atoms: N_22  and  C_23
REMARK   10  A    between atoms: C_26  and  C_30
REMARK   11  A    between atoms: C_32  and  N_54
REMARK   12  A    between atoms: C_33  and  N_54
REMARK                            x       y       z     vdW  Elec       q    Type
REMARK                         _______ _______ _______ _____ _____    ______ ____
ROOT
ATOM      1  C   UNL     1       1.306  -0.386   0.353  0.00  0.00    +0.125 A 
ATOM      2  N   UNL     1       1.984   0.710   0.167  0.00  0.00    -0.135 NA
ATOM      3  N   UNL     1       1.195   1.724   0.166  0.00  0.00    -0.122 NA
ATOM      4  C   UNL     1      -0.042   1.329   0.354  0.00  0.00    +0.197 A 
ATOM      5  N   UNL     1      -0.012  -0.033   0.480  0.00  0.00    -0.275 N 
ENDROOT
BRANCH   5   6
ATOM      6  C   UNL     1      -1.102  -0.889   0.694  0.00  0.00    +0.050 A 
ATOM      7  C   UNL     1      -1.195  -1.616   1.873  0.00  0.00    +0.028 A 
ATOM      8  C   UNL     1      -2.273  -2.454   2.084  0.00  0.00    +0.022 A 
ATOM      9  C   UNL     1      -3.253  -2.579   1.115  0.00  0.00    +0.041 A 
ATOM     10  C   UNL     1      -3.160  -1.860  -0.064  0.00  0.00    +0.022 A 
ATOM     11  C   UNL     1      -2.087  -1.016  -0.276  0.00  0.00    +0.028 A 
ATOM     12 CL   UNL     1      -4.602  -3.639   1.379  0.00  0.00    -0.084 Cl
ENDBRANCH   5   6
BRANCH   1  14
ATOM     13  C   UNL     1       2.232  -2.253  -0.991  0.00  0.00    -0.005 C 
ATOM     14  C   UNL     1       1.866  -1.784   0.418  0.00  0.00    -0.003 C 
BRANCH  14  17
ATOM     15  C   UNL     1       2.774  -1.257   2.600  0.00  0.00    -0.096 C 
ATOM     16  C   UNL     1       3.642  -3.140   1.350  0.00  0.00    -0.096 C 
ATOM     17  N   UNL     1       3.087  -1.774   1.251  0.00  0.00    +0.382 N 
ATOM     18  H   UNL     1       3.785  -1.161   0.813  0.00  0.00    -0.082 HD
ENDBRANCH  14  17
ENDBRANCH   1  14
BRANCH   4  19
ATOM     19  S   UNL     1      -1.472   2.356   0.424  0.00  0.00    -0.073 S 
BRANCH  19  20
ATOM     20  C   UNL     1      -0.706   3.978   0.181  0.00  0.00    +0.137 C 
ATOM     21  C   UNL     1      -0.094   4.047  -1.220  0.00  0.00    +0.029 C 
BRANCH  20  22
ATOM     22  C   UNL     1      -1.751   5.053   0.326  0.00  0.00    +0.230 C 
ATOM     23  O   UNL     1      -2.926   4.778   0.207  0.00  0.00    -0.274 OA
ATOM     24  N   UNL     1      -1.380   6.322   0.588  0.00  0.00    -0.285 N 
ATOM     25  H   UNL     1      -0.448   6.530   0.759  0.00  0.00    +0.155 HD
BRANCH  24  26
ATOM     26  C   UNL     1      -2.337   7.338   0.614  0.00  0.00    +0.035 A 
ATOM     27  C   UNL     1      -3.433   7.280  -0.241  0.00  0.00    +0.024 A 
ATOM     28  C   UNL     1      -4.382   8.277  -0.216  0.00  0.00    +0.022 A 
ATOM     29  C   UNL     1      -4.238   9.355   0.663  0.00  0.00    +0.070 A 
ATOM     30  C   UNL     1      -3.132   9.413   1.518  0.00  0.00    +0.060 A 
ATOM     31  C   UNL     1      -2.189   8.407   1.490  0.00  0.00    +0.044 A 
ATOM     32 CL   UNL     1      -2.947  10.748   2.611  0.00  0.00    -0.082 Cl
BRANCH  29  33
ATOM     33  C   UNL     1      -5.220  10.397   0.688  0.00  0.00    +0.101 C 
ATOM     34  N   UNL     1      -5.999  11.224   0.708  0.00  0.00    -0.191 NA
ENDBRANCH  29  33
ENDBRANCH  24  26
ENDBRANCH  20  22
ENDBRANCH  19  20
ENDBRANCH   4  19
TORSDOF 8
