REMARK  Name = ZINC13693092
REMARK  2 active torsions:
REMARK  status: ('A' for Active; 'I' for Inactive)
REMARK    1  A    between atoms: C_1  and  N_2
REMARK    2  A    between atoms: C_18  and  C_20
REMARK                            x       y       z     vdW  Elec       q    Type
REMARK                         _______ _______ _______ _____ _____    ______ ____
ROOT
ATOM      1  C   UNL     1       1.764  -0.645   4.514  0.00  0.00    +0.155 C 
ATOM      2  N   UNL     1       2.634   0.423   4.015  0.00  0.00    -0.283 N 
ATOM      3  C   UNL     1       3.646   0.864   4.784  0.00  0.00    +0.264 A 
ATOM      4  O   UNL     1       3.840   0.380   5.886  0.00  0.00    -0.267 OA
ATOM      5  C   UNL     1       4.488   1.911   4.293  0.00  0.00    +0.076 A 
ATOM      6  C   UNL     1       5.632   2.541   4.954  0.00  0.00    -0.023 A 
ATOM      7  C   UNL     1       6.270   3.517   4.277  0.00  0.00    -0.004 A 
ATOM      8  S   UNL     1       5.398   3.655   2.739  0.00  0.00    -0.073 S 
ATOM      9  C   UNL     1       4.176   2.397   3.012  0.00  0.00    +0.117 A 
ATOM     10  N   UNL     1       3.164   1.913   2.301  0.00  0.00    -0.208 NA
ATOM     11  C   UNL     1       2.405   0.949   2.777  0.00  0.00    +0.202 A 
ATOM     12  N   UNL     1       1.365   0.469   2.020  0.00  0.00    -0.298 N 
ATOM     13  C   UNL     1       0.985   1.432   0.978  0.00  0.00    +0.127 C 
ATOM     14  C   UNL     1      -0.287   0.943   0.276  0.00  0.00    +0.127 C 
ATOM     15  N   UNL     1      -0.060  -0.430  -0.200  0.00  0.00    -0.295 N 
ATOM     16  C   UNL     1       0.454  -1.421   0.757  0.00  0.00    +0.127 C 
ATOM     17  C   UNL     1       1.697  -0.840   1.440  0.00  0.00    +0.127 C 
ATOM     18  C   UNL     1      -0.317  -0.770  -1.478  0.00  0.00    +0.247 C 
ATOM     19  O   UNL     1      -0.841   0.031  -2.227  0.00  0.00    -0.270 OA
ATOM     20  C   UNL     1       7.457   4.311   4.730  0.00  0.00    +0.043 C 
ATOM     21  C   UNL     1       7.627   4.108   6.243  0.00  0.00    +0.005 C 
ATOM     22  C   UNL     1       7.535   2.610   6.551  0.00  0.00    +0.005 C 
ATOM     23  C   UNL     1       6.099   2.125   6.347  0.00  0.00    +0.037 C 
ENDROOT
BRANCH  18  24
ATOM     24  C   UNL     1       0.038  -2.119  -1.970  0.00  0.00    +0.038 A 
ATOM     25  C   UNL     1       1.175  -2.766  -1.481  0.00  0.00    +0.013 A 
ATOM     26  C   UNL     1       1.498  -4.026  -1.939  0.00  0.00    +0.002 A 
ATOM     27  C   UNL     1       0.706  -4.645  -2.890  0.00  0.00    +0.020 A 
ATOM     28  C   UNL     1      -0.419  -4.007  -3.383  0.00  0.00    +0.042 A 
ATOM     29  C   UNL     1      -0.757  -2.747  -2.928  0.00  0.00    +0.033 A 
ATOM     30 CL   UNL     1      -1.407  -4.791  -4.575  0.00  0.00    -0.084 Cl
ENDBRANCH  18  24
TORSDOF 1
