REMARK  Name = ZINC29562195
REMARK  13 active torsions:
REMARK  status: ('A' for Active; 'I' for Inactive)
REMARK    1  A    between atoms: C_1  and  C_2
REMARK    2  A    between atoms: C_2  and  C_3
REMARK    3  A    between atoms: C_3  and  C_5
REMARK    4  A    between atoms: C_3  and  C_17
REMARK    5  A    between atoms: C_5  and  C_6
REMARK    6  A    between atoms: C_11  and  N_16
REMARK    7  A    between atoms: C_13  and  N_15
REMARK    8  A    between atoms: C_20  and  C_23
REMARK    9  A    between atoms: N_25  and  CA_26
REMARK   10  A    between atoms: CA_26  and  CB_28
REMARK   11  A    between atoms: CA_26  and  C_33
REMARK   12  A    between atoms: CB_28  and  CG_29
REMARK   13  A    between atoms: CG_29  and  CD_30
REMARK                            x       y       z     vdW  Elec       q    Type
REMARK                         _______ _______ _______ _____ _____    ______ ____
ROOT
ATOM      1  C   UNK A   0      -1.433  -0.534   0.013  0.00  0.00    +0.023 C 
ENDROOT
BRANCH   1   2
ATOM      2  C   UNK A   0      -2.125  -0.137  -1.266  0.00  0.00    -0.044 A 
ATOM      3  C   UNK A   0      -1.622  -0.566  -2.482  0.00  0.00    +0.004 A 
ATOM      4  C   UNK A   0      -2.251  -0.207  -3.657  0.00  0.00    +0.013 A 
ATOM      5  C   UNK A   0      -3.395   0.591  -3.616  0.00  0.00    +0.037 A 
ATOM      6  C   UNK A   0      -3.897   1.020  -2.387  0.00  0.00    +0.013 A 
ATOM      7  C   UNK A   0      -3.262   0.649  -1.219  0.00  0.00    +0.004 A 
BRANCH   5   8
ATOM      8  C   UNK A   0      -4.073   0.980  -4.871  0.00  0.00    +0.245 C 
ATOM      9  O   UNK A   0      -3.634   0.606  -5.941  0.00  0.00    -0.270 OA
ATOM     10  N   GLU A   1      -5.178   1.751  -4.829  0.00  0.00    -0.298 N 
ATOM     11  H   GLU A   1      -5.529   2.050  -3.976  0.00  0.00    +0.150 HD
BRANCH  10  12
ATOM     12  CA  GLU A   1      -5.850   2.136  -6.073  0.00  0.00    +0.187 C 
BRANCH  12  13
ATOM     13  C   GLU A   1      -6.802   1.045  -6.489  0.00  0.00    +0.376 C 
ATOM     14  O   GLU A   1      -7.048   0.127  -5.725  0.00  0.00    -0.244 OA
ATOM     15  OXT GLU A   1      -7.327   1.081  -7.588  0.00  0.00    -0.244 OA
ENDBRANCH  12  13
BRANCH  12  16
ATOM     16  CB  GLU A   1      -6.628   3.435  -5.850  0.00  0.00    +0.045 C 
BRANCH  16  17
ATOM     17  CG  GLU A   1      -5.649   4.571  -5.550  0.00  0.00    +0.127 C 
BRANCH  17  18
ATOM     18  CD  GLU A   1      -6.415   5.850  -5.331  0.00  0.00    +0.356 C 
ATOM     19  OE1 GLU A   1      -7.632   5.853  -5.408  0.00  0.00    -0.246 OA
ATOM     20  OE2 GLU A   1      -5.818   6.883  -5.077  0.00  0.00    -0.246 OA
ENDBRANCH  17  18
ENDBRANCH  16  17
ENDBRANCH  12  16
ENDBRANCH  10  12
ENDBRANCH   5   8
ENDBRANCH   1   2
BRANCH   1  22
ATOM     21  C   UNK A   0      -0.019   1.526   0.010  0.00  0.00    +0.004 C 
ATOM     22  C   UNK A   0       0.002  -0.004   0.002  0.00  0.00    +0.005 C 
ENDBRANCH   1  22
BRANCH   1  23
ATOM     23  C   UNK A   0      -1.413  -2.059   0.130  0.00  0.00    +0.047 C 
BRANCH  23  24
ATOM     24  C   UNK A   0      -0.833  -2.453   1.464  0.00  0.00    +0.002 A 
ATOM     25  C   UNK A   0       0.443  -2.768   1.726  0.00  0.00    +0.202 A 
ATOM     26  O   UNK A   0       0.586  -3.066   3.031  0.00  0.00    -0.446 OA
ATOM     27  C   UNK A   0      -0.590  -2.959   3.682  0.00  0.00    +0.209 A 
ATOM     28  C   UNK A   0      -1.549  -2.562   2.739  0.00  0.00    +0.062 A 
ATOM     29  C   UNK A   0      -2.880  -2.365   3.141  0.00  0.00    +0.040 A 
ATOM     30  C   UNK A   0      -3.193  -2.571   4.479  0.00  0.00    +0.064 A 
ATOM     31  C   UNK A   0      -2.189  -2.961   5.358  0.00  0.00    +0.098 A 
ATOM     32  N   UNK A   0      -0.945  -3.147   4.947  0.00  0.00    -0.314 N 
ATOM     33  H   UNK A   0      -0.271  -3.418   5.591  0.00  0.00    +0.170 HD
BRANCH  31  34
ATOM     34  N   UNK A   0      -2.501  -3.168   6.697  0.00  0.00    -0.344 N 
ATOM     35  H   UNK A   0      -3.410  -3.041   7.008  0.00  0.00    +0.144 HD
ATOM     36  H   UNK A   0      -1.808  -3.441   7.320  0.00  0.00    +0.144 HD
ENDBRANCH  31  34
BRANCH  29  37
ATOM     37  N   UNK A   0      -3.853  -1.974   2.229  0.00  0.00    -0.357 N 
ATOM     38  H   UNK A   0      -3.617  -1.833   1.298  0.00  0.00    +0.142 HD
ATOM     39  H   UNK A   0      -4.768  -1.842   2.523  0.00  0.00    +0.142 HD
ENDBRANCH  29  37
ENDBRANCH  23  24
ENDBRANCH   1  23
TORSDOF 12
