REMARK  Name = ZINC39451612
REMARK  0 active torsions:
REMARK  status: ('A' for Active; 'I' for Inactive)
REMARK                            x       y       z     vdW  Elec       q    Type
REMARK                         _______ _______ _______ _____ _____    ______ ____
ROOT
ATOM      1  C   UNL     1      -0.017   1.391   0.010  0.00  0.00    +0.037 A 
ATOM      2  C   UNL     1       1.198   2.057   0.002  0.00  0.00    +0.060 A 
ATOM      3  C   UNL     1       2.380   1.328  -0.014  0.00  0.00    +0.131 A 
ATOM      4  N   UNL     1       2.377   0.012  -0.022  0.00  0.00    -0.251 NA
ATOM      5  C   UNL     1       1.243  -0.677  -0.015  0.00  0.00    +0.099 A 
ATOM      6  C   UNL     1       0.002  -0.004   0.002  0.00  0.00    +0.069 A 
ATOM      7  C   UNL     1      -1.236  -0.796   0.011  0.00  0.00    +0.276 A 
ATOM      8  O   UNL     1      -2.317  -0.235   0.024  0.00  0.00    -0.266 OA
ATOM      9  N   UNL     1      -1.175  -2.140   0.005  0.00  0.00    -0.213 N 
ATOM     10  C   UNL     1       0.032  -2.826  -0.009  0.00  0.00    +0.127 A 
ATOM     11  C   UNL     1       1.235  -2.146  -0.025  0.00  0.00    +0.083 A 
ATOM     12  N   UNL     1       2.424  -2.850  -0.055  0.00  0.00    -0.329 N 
ATOM     13  C   UNL     1       2.422  -4.197  -0.645  0.00  0.00    +0.141 C 
ATOM     14  C   UNL     1       1.315  -5.015   0.030  0.00  0.00    +0.114 C 
ATOM     15  C   UNL     1       0.025  -4.240  -0.012  0.00  0.00    +0.185 C 
ATOM     16  O   UNL     1      -1.033  -4.836  -0.051  0.00  0.00    -0.290 OA
ATOM     17  I   UNL     1       2.039  -4.062  -2.769  0.00  0.00    -0.061 I 
ATOM     18 CL   UNL     1      -2.634  -3.033   0.017  0.00  0.00    +0.022 Cl
ATOM     19 CL   UNL     1       1.242   3.793   0.010  0.00  0.00    -0.082 Cl
ATOM     20  H   UNL     1       3.239  -2.466   0.304  0.00  0.00    +0.147 HD
ENDROOT
TORSDOF 0
