REMARK  Name = ZINC40428173
REMARK  5 active torsions:
REMARK  status: ('A' for Active; 'I' for Inactive)
REMARK    1  A    between atoms: C_1  and  N_2
REMARK    2  A    between atoms: N_2  and  C_3
REMARK    3  A    between atoms: N_2  and  C_4
REMARK    4  A    between atoms: C_10  and  C_12
REMARK    5  A    between atoms: C_18  and  C_20
REMARK                            x       y       z     vdW  Elec       q    Type
REMARK                         _______ _______ _______ _____ _____    ______ ____
ROOT
ATOM      1  C   UNL     1       4.585  -1.936  -3.536  0.00  0.00    +0.135 A 
ATOM      2  C   UNL     1       5.767  -1.756  -4.199  0.00  0.00    +0.081 A 
ATOM      3  S   UNL     1       5.979  -3.233  -4.977  0.00  0.00    -0.060 S 
ATOM      4  C   UNL     1       4.497  -4.043  -4.400  0.00  0.00    +0.165 A 
ATOM      5  N   UNL     1       3.955  -3.109  -3.646  0.00  0.00    -0.220 NA
ATOM      6  N   UNL     1       4.038  -5.324  -4.672  0.00  0.00    -0.261 N 
ATOM      7  C   UNL     1       4.751  -6.139  -5.474  0.00  0.00    +0.250 C 
ATOM      8  O   UNL     1       5.796  -5.752  -5.960  0.00  0.00    -0.270 OA
ATOM      9  H   UNL     1       3.205  -5.633  -4.284  0.00  0.00    +0.157 HD
ENDROOT
BRANCH   1  15
ATOM     10  C   UNL     1       0.690  -0.478  -1.207  0.00  0.00    -0.050 C 
ATOM     11  C   UNL     1       0.801  -2.025  -1.212  0.00  0.00    +0.005 C 
ATOM     12  C   UNL     1       2.052  -2.278  -2.081  0.00  0.00    +0.106 C 
ATOM     13  N   UNL     1       2.857  -1.048  -2.056  0.00  0.00    -0.298 N 
ATOM     14  C   UNL     1       2.181  -0.058  -1.198  0.00  0.00    +0.093 C 
ATOM     15  C   UNL     1       4.020  -0.857  -2.709  0.00  0.00    +0.265 C 
ATOM     16  O   UNL     1       4.603   0.206  -2.616  0.00  0.00    -0.268 OA
BRANCH  10  18
ATOM     17  C   UNL     1      -0.018   1.465   0.010  0.00  0.00    -0.096 C 
ATOM     18  N   UNL     1       0.002  -0.004   0.002  0.00  0.00    +0.379 N 
ATOM     19  C   UNL     1      -1.376  -0.512   0.012  0.00  0.00    -0.096 C 
ATOM     20  H   UNL     1       0.490  -0.338   0.820  0.00  0.00    -0.082 HD
ENDBRANCH  10  18
ENDBRANCH   1  15
BRANCH   7  21
ATOM     21  C   UNL     1       4.263  -7.504  -5.764  0.00  0.00    +0.040 A 
ATOM     22  C   UNL     1       3.060  -7.949  -5.212  0.00  0.00    +0.013 A 
ATOM     23  C   UNL     1       2.609  -9.224  -5.485  0.00  0.00    +0.004 A 
ATOM     24  C   UNL     1       3.345 -10.062  -6.304  0.00  0.00    +0.038 A 
ATOM     25  C   UNL     1       4.539  -9.627  -6.855  0.00  0.00    +0.124 A 
ATOM     26  C   UNL     1       4.999  -8.350  -6.594  0.00  0.00    +0.051 A 
ATOM     27  F   UNL     1       5.253 -10.451  -7.654  0.00  0.00    -0.205 F 
ENDBRANCH   7  21
TORSDOF 3
