REMARK  Name = ZINC24905871
REMARK  2 active torsions:
REMARK  status: ('A' for Active; 'I' for Inactive)
REMARK    1  A    between atoms: C_1  and  C_2
REMARK    2  A    between atoms: C_4  and  C_26
REMARK                            x       y       z     vdW  Elec       q    Type
REMARK                         _______ _______ _______ _____ _____    ______ ____
ROOT
ATOM      1  C   UNL     1       5.908   8.138   5.140  0.00  0.00    +0.066 C 
ATOM      2  C   UNL     1       4.789   8.821   4.396  0.00  0.00    +0.044 A 
ATOM      3  C   UNL     1       4.708  10.204   4.366  0.00  0.00    +0.046 A 
ATOM      4  C   UNL     1       3.664  10.792   3.669  0.00  0.00    +0.044 A 
ATOM      5  N   UNL     1       2.781  10.019   3.058  0.00  0.00    -0.220 NA
ATOM      6  C   UNL     1       2.887   8.700   3.106  0.00  0.00    +0.218 A 
ATOM      7  N   UNL     1       3.870   8.107   3.767  0.00  0.00    -0.220 NA
ATOM      8  N   UNL     1       1.946   7.922   2.455  0.00  0.00    -0.299 N 
ATOM      9  C   UNL     1       2.235   6.492   2.625  0.00  0.00    +0.111 C 
ATOM     10  C   UNL     1       1.098   5.665   2.021  0.00  0.00    +0.062 C 
ATOM     11  C   UNL     1       0.960   6.005   0.534  0.00  0.00    +0.106 C 
ATOM     12  C   UNL     1       0.712   7.507   0.379  0.00  0.00    +0.062 C 
ATOM     13  C   UNL     1       1.859   8.280   1.033  0.00  0.00    +0.111 C 
ATOM     14  N   UNL     1      -0.138   5.249  -0.053  0.00  0.00    -0.321 N 
ATOM     15  C   UNL     1      -0.044   3.863  -0.006  0.00  0.00    +0.091 A 
ATOM     16  C   UNL     1      -1.239   3.134   0.018  0.00  0.00    +0.146 A 
ATOM     17  C   UNL     1      -1.218   1.755   0.017  0.00  0.00    +0.040 A 
ATOM     18  C   UNL     1      -0.013   1.076   0.008  0.00  0.00    +0.005 A 
ATOM     19  C   UNL     1       1.173   1.787   0.001  0.00  0.00    +0.030 A 
ATOM     20  C   UNL     1       1.154   3.167  -0.003  0.00  0.00    +0.129 A 
ATOM     21  S   UNL     1       2.684   4.057   0.017  0.00  0.00    +0.062 S 
ATOM     22  O   UNL     1       3.232   3.917   1.320  0.00  0.00    -0.153 OA
ATOM     23  O   UNL     1       3.392   3.697  -1.161  0.00  0.00    -0.153 OA
ATOM     24  N   UNL     1       2.220   5.654  -0.153  0.00  0.00    -0.167 NA
ATOM     25  F   UNL     1      -2.422   3.785   0.037  0.00  0.00    -0.203 F 
ATOM     26  C   UNL     1       3.536  12.292   3.609  0.00  0.00    +0.066 C 
ATOM     27  H   UNL     1      -0.989   5.778  -0.507  0.00  0.00    +0.148 HD
ATOM     28  H   UNL     1       2.683   6.367  -0.850  0.00  0.00    +0.150 HD
ENDROOT
TORSDOF 0
