REMARK  Name = ZINC13093081
REMARK  9 active torsions:
REMARK  status: ('A' for Active; 'I' for Inactive)
REMARK    1  A    between atoms: C_1  and  C_2
REMARK    2  A    between atoms: C_4  and  C_26
REMARK    3  A    between atoms: C_5  and  N_9
REMARK    4  A    between atoms: C_10  and  C_12
REMARK    5  A    between atoms: C_12  and  S_13
REMARK    6  A    between atoms: S_13  and  C_14
REMARK    7  A    between atoms: C_18  and  C_21
REMARK    8  A    between atoms: C_21  and  C_22
REMARK    9  A    between atoms: C_22  and  C_23
REMARK                            x       y       z     vdW  Elec       q    Type
REMARK                         _______ _______ _______ _____ _____    ______ ____
ROOT
ATOM      1  C   UNL     1       0.598  -6.347   1.021  0.00  0.00    +0.173 C 
ENDROOT
BRANCH   1   3
ATOM      2  N   UNL     1       0.057  -4.171  -0.023  0.00  0.00    -0.283 N 
ATOM      3  C   UNL     1       0.471  -4.846   1.067  0.00  0.00    +0.228 C 
ATOM      4  O   UNL     1       0.741  -4.246   2.086  0.00  0.00    -0.275 OA
ATOM      5  H   UNL     1      -0.228  -4.655  -0.814  0.00  0.00    +0.155 HD
BRANCH   2  10
ATOM      6  C   UNL     1      -0.016   1.503   0.014  0.00  0.00    +0.044 C 
ATOM      7  C   UNL     1       0.004  -0.004   0.004  0.00  0.00    -0.049 A 
ATOM      8  C   UNL     1      -1.135  -0.711   0.340  0.00  0.00    +0.008 A 
ATOM      9  C   UNL     1      -1.121  -2.092   0.333  0.00  0.00    -0.028 A 
ATOM     10  C   UNL     1       0.039  -2.771  -0.015  0.00  0.00    +0.055 A 
ATOM     11  C   UNL     1       1.183  -2.058  -0.353  0.00  0.00    +0.063 A 
ATOM     12  C   UNL     1       1.160  -0.676  -0.348  0.00  0.00    +0.025 A 
ATOM     13 CL   UNL     1       2.636  -2.902  -0.788  0.00  0.00    -0.082 Cl
ATOM     14  C   UNL     1      -2.363  -2.862   0.701  0.00  0.00    +0.046 C 
ENDBRANCH   2  10
ENDBRANCH   1   3
BRANCH   1  15
ATOM     15  S   UNL     1       1.171  -6.955   2.631  0.00  0.00    -0.075 S 
BRANCH  15  16
ATOM     16  C   UNL     1       1.268  -8.702   2.417  0.00  0.00    +0.213 A 
ATOM     17  N   UNL     1       1.664  -9.466   3.428  0.00  0.00    -0.180 NA
ATOM     18  C   UNL     1       1.735 -10.782   3.261  0.00  0.00    +0.296 A 
ATOM     19  O   UNL     1       2.135 -11.587   4.275  0.00  0.00    -0.264 OA
ATOM     20  C   UNL     1       1.388 -11.319   2.021  0.00  0.00    +0.130 A 
ATOM     21  N   UNL     1       1.001 -10.510   1.053  0.00  0.00    -0.146 NA
ATOM     22  N   UNL     1       0.938  -9.239   1.249  0.00  0.00    -0.122 NA
BRANCH  20  23
ATOM     23  C   UNL     1       1.454 -12.807   1.789  0.00  0.00    +0.074 C 
BRANCH  23  24
ATOM     24  C   UNL     1       0.109 -13.440   2.149  0.00  0.00    +0.131 C 
BRANCH  24  25
ATOM     25  C   UNL     1       0.176 -14.928   1.917  0.00  0.00    +0.356 C 
ATOM     26  O   UNL     1       1.204 -15.434   1.502  0.00  0.00    -0.246 OA
ATOM     27  O   UNL     1      -0.799 -15.624   2.145  0.00  0.00    -0.246 OA
ENDBRANCH  24  25
ENDBRANCH  23  24
ENDBRANCH  20  23
ENDBRANCH  15  16
ENDBRANCH   1  15
TORSDOF 7
