REMARK  Name = ZINC14230420
REMARK  4 active torsions:
REMARK  status: ('A' for Active; 'I' for Inactive)
REMARK    1  A    between atoms: C_1  and  C_2
REMARK    2  A    between atoms: C_4  and  C_14
REMARK    3  A    between atoms: N_19  and  S_22
REMARK    4  A    between atoms: S_22  and  C_25
REMARK                            x       y       z     vdW  Elec       q    Type
REMARK                         _______ _______ _______ _____ _____    ______ ____
ROOT
ATOM      1  C   UNL     1      -3.601   2.906  -1.867  0.00  0.00    +0.260 C 
ATOM      2  O   UNL     1      -2.690   3.324  -2.549  0.00  0.00    -0.271 OA
ATOM      3  N   UNL     1      -4.629   2.251  -2.442  0.00  0.00    -0.296 N 
ATOM      4  C   UNL     1      -5.794   1.840  -1.647  0.00  0.00    +0.125 C 
ATOM      5  C   UNL     1      -7.059   2.419  -2.303  0.00  0.00    +0.128 C 
ATOM      6  N   UNL     1      -7.031   2.097  -3.737  0.00  0.00    -0.173 NA
ATOM      7  C   UNL     1      -5.864   2.503  -4.532  0.00  0.00    +0.128 C 
ATOM      8  C   UNL     1      -4.601   1.929  -3.876  0.00  0.00    +0.125 C 
ENDROOT
BRANCH   1  11
ATOM      9  C   UNL     1      -3.786   0.648  -0.011  0.00  0.00    +0.056 C 
ATOM     10  C   UNL     1      -2.966   1.897   0.317  0.00  0.00    +0.220 C 
ATOM     11  C   UNL     1      -3.585   3.119  -0.375  0.00  0.00    +0.299 C 
ATOM     12  O   UNL     1      -2.787   4.266  -0.060  0.00  0.00    -0.472 OA
ATOM     13  C   UNL     1      -1.438   4.122  -0.173  0.00  0.00    +0.163 A 
ATOM     14  C   UNL     1      -0.636   5.252  -0.236  0.00  0.00    +0.049 A 
ATOM     15  C   UNL     1       0.735   5.122  -0.346  0.00  0.00    +0.004 A 
ATOM     16  C   UNL     1       1.312   3.866  -0.393  0.00  0.00    +0.004 A 
ATOM     17  C   UNL     1       0.518   2.736  -0.331  0.00  0.00    +0.049 A 
ATOM     18  C   UNL     1      -0.860   2.860  -0.228  0.00  0.00    +0.163 A 
ATOM     19  O   UNL     1      -1.628   1.738  -0.168  0.00  0.00    -0.481 OA
ENDBRANCH   1  11
BRANCH   6  20
ATOM     20  S   UNL     1      -8.293   1.291  -4.444  0.00  0.00    +0.067 S 
ATOM     21  O   UNL     1      -9.435   1.533  -3.634  0.00  0.00    -0.152 OA
ATOM     22  O   UNL     1      -8.258   1.616  -5.827  0.00  0.00    -0.152 OA
BRANCH  20  23
ATOM     23  C   UNL     1      -7.945  -0.431  -4.322  0.00  0.00    +0.144 A 
ATOM     24  C   UNL     1      -8.274  -1.301  -3.336  0.00  0.00    +0.038 A 
ATOM     25  C   UNL     1      -7.891  -2.624  -3.454  0.00  0.00    +0.030 A 
ATOM     26  C   UNL     1      -7.198  -3.013  -4.553  0.00  0.00    +0.080 A 
ATOM     27  S   UNL     1      -7.074  -1.486  -5.470  0.00  0.00    -0.057 S 
ATOM     28 CL   UNL     1      -6.593  -4.587  -4.964  0.00  0.00    -0.076 Cl
ENDBRANCH  20  23
ENDBRANCH   6  20
TORSDOF 3
