REMARK  Name = ZINC39677085
REMARK  9 active torsions:
REMARK  status: ('A' for Active; 'I' for Inactive)
REMARK    1  A    between atoms: C_1  and  C_2
REMARK    2  A    between atoms: C_5  and  C_38
REMARK    3  A    between atoms: C_6  and  C_8
REMARK    4  A    between atoms: C_8  and  C_9
REMARK    5  A    between atoms: C_9  and  N_10
REMARK    6  A    between atoms: C_11  and  C_13
REMARK    7  A    between atoms: C_24  and  C_26
REMARK    8  A    between atoms: C_33  and  C_37
REMARK    9  A    between atoms: N_35  and  C_36
REMARK                            x       y       z     vdW  Elec       q    Type
REMARK                         _______ _______ _______ _____ _____    ______ ____
ROOT
ATOM      1  C   UNL     1       2.694  -5.104   5.947  0.00  0.00    +0.100 C 
ATOM      2  C   UNL     1       1.842  -6.389   5.838  0.00  0.00    +0.121 C 
ATOM      3  N   UNL     1       2.812  -7.452   5.484  0.00  0.00    -0.296 N 
ATOM      4  C   UNL     1       4.015  -7.137   6.291  0.00  0.00    +0.115 C 
ATOM      5  C   UNL     1       4.119  -5.599   6.248  0.00  0.00    -0.004 C 
ATOM      6  C   UNL     1       5.074  -5.167   5.140  0.00  0.00    -0.010 C 
ATOM      7  C   UNL     1       6.493  -5.622   5.490  0.00  0.00    -0.082 C 
ATOM      8  N   UNL     1       6.897  -5.029   6.771  0.00  0.00    +0.379 N 
ATOM      9  C   UNL     1       6.030  -5.523   7.847  0.00  0.00    -0.082 C 
ATOM     10  C   UNL     1       4.591  -5.064   7.597  0.00  0.00    -0.010 C 
ATOM     11  C   UNL     1       2.639  -8.474   4.623  0.00  0.00    +0.250 C 
ATOM     12  O   UNL     1       1.623  -8.545   3.959  0.00  0.00    -0.270 OA
ATOM     13  H   UNL     1       7.854  -5.281   6.969  0.00  0.00    -0.086 HD
ATOM     14  H   UNL     1       6.822  -4.024   6.714  0.00  0.00    -0.086 HD
ENDROOT
BRANCH  11  15
ATOM     15  C   UNL     1       3.683  -9.509   4.487  0.00  0.00    +0.074 A 
ATOM     16  C   UNL     1       4.433  -9.912   5.601  0.00  0.00    +0.127 A 
ATOM     17  N   UNL     1       5.365 -10.830   5.502  0.00  0.00    -0.235 NA
ATOM     18  C   UNL     1       5.646 -11.423   4.345  0.00  0.00    +0.160 A 
ATOM     19  C   UNL     1       4.937 -11.074   3.178  0.00  0.00    +0.060 A 
ATOM     20  C   UNL     1       3.933 -10.103   3.248  0.00  0.00    +0.067 A 
ATOM     21 CL   UNL     1       3.030  -9.646   1.837  0.00  0.00    -0.082 Cl
ATOM     22  C   UNL     1       5.482 -11.896   2.102  0.00  0.00    +0.071 A 
ATOM     23  N   UNL     1       6.417 -12.645   2.614  0.00  0.00    -0.174 NA
ATOM     24  N   UNL     1       6.546 -12.384   3.981  0.00  0.00    -0.249 N 
ATOM     25  C   UNL     1       7.498 -13.039   4.882  0.00  0.00    +0.174 C 
ATOM     26  C   UNL     1       5.042 -11.882   0.661  0.00  0.00    +0.068 C 
ENDBRANCH  11  15
BRANCH   1  28
ATOM     27  N   UNL     1       2.779  -3.001   4.648  0.00  0.00    -0.315 N 
ATOM     28  C   UNL     1       2.667  -4.344   4.646  0.00  0.00    +0.218 C 
ATOM     29  O   UNL     1       2.544  -4.941   3.598  0.00  0.00    -0.275 OA
ATOM     30  H   UNL     1       2.877  -2.523   5.487  0.00  0.00    +0.149 HD
BRANCH  27  31
ATOM     31  C   UNL     1       2.752  -2.262   3.384  0.00  0.00    +0.109 C 
BRANCH  31  32
ATOM     32  C   UNL     1       2.896  -0.765   3.665  0.00  0.00    +0.054 C 
BRANCH  32  38
ATOM     33  C   UNL     1       5.320   1.406  -0.138  0.00  0.00    +0.044 C 
ATOM     34  C   UNL     1       4.029   1.035   0.545  0.00  0.00    -0.050 A 
ATOM     35  C   UNL     1       2.819   1.392  -0.022  0.00  0.00    +0.003 A 
ATOM     36  C   UNL     1       1.635   1.051   0.604  0.00  0.00    +0.004 A 
ATOM     37  C   UNL     1       1.660   0.353   1.798  0.00  0.00    -0.047 A 
ATOM     38  C   UNL     1       2.869  -0.004   2.364  0.00  0.00    -0.043 A 
ATOM     39  C   UNL     1       4.053   0.333   1.735  0.00  0.00    +0.007 A 
ATOM     40  C   UNL     1       0.369  -0.017   2.481  0.00  0.00    +0.044 C 
ENDBRANCH  32  38
ENDBRANCH  31  32
ENDBRANCH  27  31
ENDBRANCH   1  28
TORSDOF 5
