REMARK  Name = ZINC40759537
REMARK  12 active torsions:
REMARK  status: ('A' for Active; 'I' for Inactive)
REMARK    1  A    between atoms: C_1  and  C_2
REMARK    2  A    between atoms: C_2  and  N_3
REMARK    3  A    between atoms: N_3  and  C_4
REMARK    4  A    between atoms: N_3  and  S_6
REMARK    5  A    between atoms: C_4  and  C_5
REMARK    6  A    between atoms: S_6  and  C_9
REMARK    7  A    between atoms: C_12  and  N_15
REMARK    8  A    between atoms: C_17  and  N_33
REMARK    9  A    between atoms: C_18  and  N_22
REMARK   10  A    between atoms: N_22  and  C_23
REMARK   11  A    between atoms: C_26  and  N_29
REMARK   12  A    between atoms: C_30  and  C_32
REMARK                            x       y       z     vdW  Elec       q    Type
REMARK                         _______ _______ _______ _____ _____    ______ ____
ROOT
ATOM      1  N   UNL     1      -0.563   4.136  -5.669  0.00  0.00    -0.298 N 
ATOM      2  C   UNL     1       0.442   4.492  -6.562  0.00  0.00    +0.149 A 
ATOM      3  C   UNL     1       0.320   5.641  -7.345  0.00  0.00    +0.106 A 
ATOM      4  C   UNL     1       1.359   5.952  -8.224  0.00  0.00    +0.149 A 
ATOM      5  N   UNL     1       2.418   5.147  -8.282  0.00  0.00    -0.219 NA
ATOM      6  C   UNL     1       2.493   4.072  -7.525  0.00  0.00    +0.225 A 
ATOM      7  N   UNL     1       1.537   3.745  -6.679  0.00  0.00    -0.219 NA
ATOM      8  H   UNL     1      -1.389   4.644  -5.641  0.00  0.00    +0.154 HD
ENDROOT
BRANCH   1  12
ATOM      9  C   UNL     1      -0.030   0.887  -3.118  0.00  0.00    +0.106 A 
ATOM     10  C   UNL     1       1.055   1.664  -3.482  0.00  0.00    +0.030 A 
ATOM     11  C   UNL     1       0.881   2.742  -4.328  0.00  0.00    +0.025 A 
ATOM     12  C   UNL     1      -0.384   3.045  -4.814  0.00  0.00    +0.033 A 
ATOM     13  C   UNL     1      -1.472   2.263  -4.446  0.00  0.00    +0.025 A 
ATOM     14  C   UNL     1      -1.290   1.183  -3.604  0.00  0.00    +0.030 A 
BRANCH   9  15
ATOM     15  S   UNL     1       0.196  -0.487  -2.038  0.00  0.00    +0.061 S 
ATOM     16  O   UNL     1      -1.061  -0.729  -1.421  0.00  0.00    -0.153 OA
ATOM     17  O   UNL     1       1.375  -0.225  -1.289  0.00  0.00    -0.153 OA
BRANCH  15  18
ATOM     18  N   UNL     1       0.520  -1.806  -2.986  0.00  0.00    -0.177 NA
BRANCH  18  20
ATOM     19  C   UNL     1       2.240  -1.527  -4.702  0.00  0.00    +0.022 C 
ATOM     20  C   UNL     1       1.904  -2.133  -3.338  0.00  0.00    +0.106 C 
ENDBRANCH  18  20
BRANCH  18  21
ATOM     21  C   UNL     1      -0.578  -2.646  -3.472  0.00  0.00    +0.106 C 
ATOM     22  C   UNL     1      -0.771  -3.831  -2.524  0.00  0.00    +0.022 C 
ENDBRANCH  18  21
ENDBRANCH  15  18
ENDBRANCH   9  15
ENDBRANCH   1  12
BRANCH   3  23
ATOM     23  N   UNL     1      -0.815   6.461  -7.251  0.00  0.00    -0.353 N 
ATOM     24  H   UNL     1      -1.529   6.232  -6.636  0.00  0.00    +0.143 HD
ATOM     25  H   UNL     1      -0.886   7.257  -7.801  0.00  0.00    +0.143 HD
ENDBRANCH   3  23
BRANCH   4  26
ATOM     26  N   UNL     1       1.289   7.085  -9.027  0.00  0.00    -0.298 N 
ATOM     27  H   UNL     1       0.553   7.708  -8.923  0.00  0.00    +0.154 HD
BRANCH  26  28
ATOM     28  C   UNL     1       2.280   7.326  -9.985  0.00  0.00    +0.033 A 
ATOM     29  C   UNL     1       2.897   6.261 -10.629  0.00  0.00    +0.025 A 
ATOM     30  C   UNL     1       3.874   6.500 -11.574  0.00  0.00    +0.025 A 
ATOM     31  C   UNL     1       4.241   7.803 -11.881  0.00  0.00    +0.033 A 
ATOM     32  C   UNL     1       3.624   8.868 -11.237  0.00  0.00    +0.025 A 
ATOM     33  C   UNL     1       2.642   8.630 -10.296  0.00  0.00    +0.025 A 
BRANCH  31  34
ATOM     34  N   UNL     1       5.233   8.045 -12.841  0.00  0.00    -0.286 N 
ATOM     35  C   UNL     1       6.052   9.107 -12.710  0.00  0.00    +0.214 C 
ATOM     36  O   UNL     1       5.992   9.801 -11.717  0.00  0.00    -0.276 OA
ATOM     37  C   UNL     1       7.043   9.433 -13.798  0.00  0.00    +0.109 C 
ATOM     38  H   UNL     1       5.331   7.447 -13.598  0.00  0.00    +0.155 HD
ENDBRANCH  31  34
ENDBRANCH  26  28
ENDBRANCH   4  26
TORSDOF 9
