REMARK  Name = ZINC25673547
REMARK  4 active torsions:
REMARK  status: ('A' for Active; 'I' for Inactive)
REMARK    1  A    between atoms: C_1  and  C_2
REMARK    2  A    between atoms: N_4  and  C_5
REMARK    3  A    between atoms: C_15  and  C_17
REMARK    4  A    between atoms: C_18  and  N_22
REMARK                            x       y       z     vdW  Elec       q    Type
REMARK                         _______ _______ _______ _____ _____    ______ ____
ROOT
ATOM      1  C   UNL     1      -3.295   7.428   7.289  0.00  0.00    +0.035 A 
ATOM      2  C   UNL     1      -2.045   7.159   6.736  0.00  0.00    +0.025 A 
ATOM      3  C   UNL     1      -1.899   6.304   5.689  0.00  0.00    +0.031 A 
ATOM      4  C   UNL     1      -3.018   5.651   5.122  0.00  0.00    +0.080 A 
ATOM      5  C   UNL     1      -4.274   5.942   5.703  0.00  0.00    +0.043 A 
ATOM      6  C   UNL     1      -4.418   6.806   6.759  0.00  0.00    +0.040 A 
ATOM      7  S   UNL     1      -5.381   4.956   4.724  0.00  0.00    -0.052 S 
ATOM      8  C   UNL     1      -4.149   4.236   3.648  0.00  0.00    +0.166 A 
ATOM      9  N   UNL     1      -3.039   4.780   4.088  0.00  0.00    -0.225 NA
ATOM     10  N   UNL     1      -4.323   3.336   2.610  0.00  0.00    -0.260 N 
ATOM     11  C   UNL     1      -3.257   2.909   1.903  0.00  0.00    +0.258 C 
ATOM     12  O   UNL     1      -2.143   3.315   2.178  0.00  0.00    -0.269 OA
ATOM     13  H   UNL     1      -5.330   2.970   2.362  0.00  0.00    +0.157 HD
ENDROOT
BRANCH   1  17
ATOM     14  C   UNL     1      -4.581   9.130  10.392  0.00  0.00    +0.109 C 
ATOM     15  C   UNL     1      -4.371   8.114   9.299  0.00  0.00    +0.214 C 
ATOM     16  O   UNL     1      -5.060   7.117   9.258  0.00  0.00    -0.276 OA
ATOM     17  N   UNL     1      -3.418   8.314   8.367  0.00  0.00    -0.286 N 
ATOM     18  H   UNL     1      -2.736   9.173   8.453  0.00  0.00    +0.155 HD
ENDBRANCH   1  17
BRANCH  11  19
ATOM     19  C   UNL     1      -3.435   1.988   0.840  0.00  0.00    +0.098 A 
ATOM     20  C   UNL     1      -2.479   1.428  -0.005  0.00  0.00    +0.065 A 
ATOM     21  C   UNL     1      -2.936   0.545  -0.960  0.00  0.00    +0.034 A 
ATOM     22  C   UNL     1      -4.264   0.276  -1.032  0.00  0.00    +0.048 A 
ATOM     23  S   UNL     1      -4.940   1.246   0.235  0.00  0.00    -0.090 S 
BRANCH  20  24
ATOM     24  N   UNL     1      -1.121   1.741   0.114  0.00  0.00    -0.322 N 
ATOM     25  C   UNL     1      -0.099   0.838   0.184  0.00  0.00    +0.091 A 
ATOM     26  C   UNL     1       1.060   1.521   0.287  0.00  0.00    +0.019 A 
ATOM     27  C   UNL     1       0.743   2.895   0.285  0.00  0.00    +0.019 A 
ATOM     28  C   UNL     1      -0.598   3.001   0.182  0.00  0.00    +0.091 A 
ENDBRANCH  20  24
ENDBRANCH  11  19
TORSDOF 3
