REMARK  Name = ZINC03840569
REMARK  11 active torsions:
REMARK  status: ('A' for Active; 'I' for Inactive)
REMARK    1  A    between atoms: C_1  and  C_2
REMARK    2  A    between atoms: C_2  and  C_3
REMARK    3  A    between atoms: C_3  and  C_4
REMARK    4  A    between atoms: C_4  and  N_5
REMARK    5  A    between atoms: C_12  and  C_36
REMARK    6  A    between atoms: C_15  and  C_25
REMARK    7  A    between atoms: C_17  and  O_24
REMARK    8  A    between atoms: C_21  and  C_23
REMARK    9  A    between atoms: C_25  and  C_27
REMARK   10  A    between atoms: C_25  and  C_28
REMARK   11  A    between atoms: C_35  and  N_74
REMARK                            x       y       z     vdW  Elec       q    Type
REMARK                         _______ _______ _______ _____ _____    ______ ____
ROOT
ATOM      1  N   UNL     1       2.754  -2.530  -2.317  0.00  0.00    -0.323 N 
ATOM      2  C   UNL     1       1.909  -1.443  -2.164  0.00  0.00    +0.159 A 
ATOM      3  N   UNL     1       2.193  -0.224  -1.753  0.00  0.00    -0.229 NA
ATOM      4  C   UNL     1       1.264   0.726  -1.655  0.00  0.00    +0.057 A 
ATOM      5  C   UNL     1       0.004   0.365  -2.006  0.00  0.00    +0.015 A 
ATOM      6  S   UNL     1       0.200  -1.336  -2.465  0.00  0.00    -0.057 S 
ATOM      7  C   UNL     1      -1.219   1.212  -2.002  0.00  0.00    +0.051 C 
ATOM      8  C   UNL     1      -0.942   2.491  -1.187  0.00  0.00    -0.022 C 
ATOM      9  C   UNL     1      -2.068   3.480  -1.502  0.00  0.00    +0.008 C 
ATOM     10  C   UNL     1      -1.817   4.812  -0.799  0.00  0.00    +0.007 C 
ATOM     11  C   UNL     1      -0.493   5.394  -1.304  0.00  0.00    +0.029 C 
ATOM     12  C   UNL     1       0.636   4.429  -0.948  0.00  0.00    +0.123 C 
ATOM     13  C   UNL     1       0.407   3.070  -1.619  0.00  0.00    +0.033 C 
ATOM     14  C   UNL     1       1.547   2.143  -1.179  0.00  0.00    +0.042 C 
ATOM     15  C   UNL     1       2.864   2.630  -1.786  0.00  0.00    +0.014 C 
ATOM     16  C   UNL     1      -0.922   2.181   0.311  0.00  0.00    +0.012 C 
ATOM     17  H   UNL     1       3.697  -2.444  -2.109  0.00  0.00    +0.148 HD
ENDROOT
BRANCH  12  18
ATOM     18  O   UNL     1       1.878   4.974  -1.396  0.00  0.00    -0.391 OA
ATOM     19  H   UNL     1       2.091   5.836  -1.012  0.00  0.00    +0.210 HD
ENDBRANCH  12  18
BRANCH  11  20
ATOM     20  C   UNL     1      -0.557   5.571  -2.823  0.00  0.00    +0.078 C 
ATOM     21  C   UNL     1       0.719   6.261  -3.310  0.00  0.00    +0.017 C 
BRANCH  20  22
ATOM     22  C   UNL     1      -1.752   6.416  -3.180  0.00  0.00    +0.219 C 
ATOM     23  O   UNL     1      -2.209   7.194  -2.370  0.00  0.00    -0.275 OA
ATOM     24  N   UNL     1      -2.314   6.306  -4.400  0.00  0.00    -0.305 N 
ATOM     25  C   UNL     1      -1.839   5.300  -5.363  0.00  0.00    +0.089 C 
ATOM     26  C   UNL     1      -3.054   4.507  -5.871  0.00  0.00    -0.060 C 
ATOM     27  C   UNL     1      -4.564   6.329  -5.340  0.00  0.00    -0.060 C 
ATOM     28  C   UNL     1      -3.415   7.192  -4.807  0.00  0.00    +0.089 C 
ATOM     29  C   UNL     1      -5.157   4.722  -7.051  0.00  0.00    -0.096 C 
ATOM     30  N   UNL     1      -4.045   5.460  -6.418  0.00  0.00    +0.380 N 
ATOM     31  H   UNL     1      -3.587   6.045  -7.126  0.00  0.00    -0.082 HD
ENDBRANCH  20  22
ENDBRANCH  11  20
BRANCH   1  32
ATOM     32  C   UNL     1       2.223  -3.810  -2.794  0.00  0.00    +0.103 C 
BRANCH  32  33
ATOM     33  C   UNL     1       3.356  -4.835  -2.873  0.00  0.00    +0.018 C 
BRANCH  33  35
ATOM     34  C   UNL     1       3.934  -7.196  -3.450  0.00  0.00    +0.004 C 
ATOM     35  C   UNL     1       2.801  -6.171  -3.371  0.00  0.00    -0.002 C 
ENDBRANCH  33  35
ENDBRANCH  32  33
ENDBRANCH   1  32
TORSDOF 6
