REMARK  Name = ZINC03267696
REMARK  6 active torsions:
REMARK  status: ('A' for Active; 'I' for Inactive)
REMARK    1  A    between atoms: C_8  and  N_23
REMARK    2  A    between atoms: C_9  and  N_11
REMARK    3  A    between atoms: N_11  and  S_12
REMARK    4  A    between atoms: S_12  and  C_15
REMARK    5  A    between atoms: N_23  and  C_24
REMARK    6  A    between atoms: C_29  and  O_30
REMARK                            x       y       z     vdW  Elec       q    Type
REMARK                         _______ _______ _______ _____ _____    ______ ____
ROOT
ATOM      1  C   UNL     1      -0.029   1.348  -0.250  0.00  0.00    +0.002 A 
ATOM      2  C   UNL     1       1.138   2.066  -0.495  0.00  0.00    +0.002 A 
ATOM      3  C   UNL     1       2.339   1.433  -0.602  0.00  0.00    +0.030 A 
ATOM      4  C   UNL     1       2.406   0.037  -0.464  0.00  0.00    +0.092 A 
ATOM      5  C   UNL     1       1.219  -0.693  -0.214  0.00  0.00    +0.091 A 
ATOM      6  C   UNL     1      -0.001  -0.006  -0.110  0.00  0.00    +0.030 A 
ATOM      7  N   UNL     1       1.272  -2.026  -0.080  0.00  0.00    -0.227 NA
ATOM      8  C   UNL     1       2.429  -2.648  -0.181  0.00  0.00    +0.167 A 
ATOM      9  C   UNL     1       3.616  -1.919  -0.430  0.00  0.00    +0.203 A 
ATOM     10  N   UNL     1       3.577  -0.609  -0.565  0.00  0.00    -0.224 NA
ENDROOT
BRANCH   8  11
ATOM     11  N   UNL     1       2.484  -4.027  -0.042  0.00  0.00    -0.294 N 
ATOM     12  H   UNL     1       3.342  -4.479  -0.024  0.00  0.00    +0.154 HD
BRANCH  11  13
ATOM     13  C   UNL     1       1.301  -4.767   0.071  0.00  0.00    +0.074 A 
ATOM     14  C   UNL     1       0.129  -4.299  -0.505  0.00  0.00    +0.027 A 
ATOM     15  C   UNL     1      -1.037  -5.031  -0.393  0.00  0.00    +0.002 A 
ATOM     16  C   UNL     1      -1.040  -6.231   0.295  0.00  0.00    +0.004 A 
ATOM     17  C   UNL     1       0.124  -6.705   0.872  0.00  0.00    +0.047 A 
ATOM     18  C   UNL     1       1.298  -5.979   0.759  0.00  0.00    +0.138 A 
BRANCH  18  19
ATOM     19  O   UNL     1       2.445  -6.446   1.322  0.00  0.00    -0.505 OA
ATOM     20  H   UNL     1       2.582  -6.155   2.234  0.00  0.00    +0.292 HD
ENDBRANCH  18  19
ENDBRANCH  11  13
ENDBRANCH   8  11
BRANCH   9  21
ATOM     21  N   UNL     1       4.827  -2.587  -0.534  0.00  0.00    -0.074 NA
BRANCH  21  22
ATOM     22  S   UNL     1       6.218  -1.738  -0.826  0.00  0.00    +0.095 S 
ATOM     23  O   UNL     1       6.094  -1.191  -2.132  0.00  0.00    -0.148 OA
ATOM     24  O   UNL     1       6.448  -0.929   0.320  0.00  0.00    -0.148 OA
BRANCH  22  25
ATOM     25  C   UNL     1       7.536  -2.905  -0.891  0.00  0.00    +0.130 A 
ATOM     26  C   UNL     1       8.231  -3.098  -2.071  0.00  0.00    +0.050 A 
ATOM     27  C   UNL     1       9.265  -4.014  -2.123  0.00  0.00    +0.043 A 
ATOM     28  C   UNL     1       9.606  -4.738  -0.994  0.00  0.00    +0.021 A 
ATOM     29  C   UNL     1       8.912  -4.545   0.186  0.00  0.00    +0.023 A 
ATOM     30  C   UNL     1       7.880  -3.625   0.239  0.00  0.00    +0.068 A 
ATOM     31 CL   UNL     1       7.013  -3.377   1.722  0.00  0.00    -0.082 Cl
ATOM     32 CL   UNL     1      10.137  -4.257  -3.604  0.00  0.00    -0.083 Cl
ENDBRANCH  22  25
ENDBRANCH  21  22
ENDBRANCH   9  21
TORSDOF 6
