REMARK  Name = ZINC09466271
REMARK  6 active torsions:
REMARK  status: ('A' for Active; 'I' for Inactive)
REMARK    1  A    between atoms: C_1  and  C_2
REMARK    2  A    between atoms: C_2  and  C_4
REMARK    3  A    between atoms: C_2  and  N_56
REMARK    4  A    between atoms: N_6  and  C_7
REMARK    5  A    between atoms: C_8  and  C_17
REMARK    6  A    between atoms: C_24  and  C_26
REMARK                            x       y       z     vdW  Elec       q    Type
REMARK                         _______ _______ _______ _____ _____    ______ ____
ROOT
ATOM      1  C   UNL     1       0.405   3.933   0.668  0.00  0.00    -0.004 C 
ATOM      2  C   UNL     1       0.590   3.705  -0.833  0.00  0.00    +0.017 C 
ENDROOT
BRANCH   2  10
ATOM      3  C   UNL     1       0.535   2.016  -2.567  0.00  0.00    -0.058 C 
ATOM      4  C   UNL     1       0.674   0.512  -2.824  0.00  0.00    +0.089 C 
ATOM      5  N   UNL     1      -0.369  -0.191  -2.062  0.00  0.00    -0.299 N 
ATOM      6  C   UNL     1      -0.507   0.110  -0.629  0.00  0.00    +0.089 C 
ATOM      7  C   UNL     1      -0.600   1.630  -0.458  0.00  0.00    -0.058 C 
ATOM      8  C   UNL     1      -1.178  -1.088  -2.662  0.00  0.00    +0.282 C 
ATOM      9  O   UNL     1      -1.987  -1.713  -2.002  0.00  0.00    -0.267 OA
ATOM     10  N   UNL     1       0.574   2.253  -1.107  0.00  0.00    +0.389 N 
ATOM     11  H   UNL     1       1.429   1.833  -0.725  0.00  0.00    -0.081 HD
BRANCH   8  12
ATOM     12  C   UNL     1      -1.083  -1.309  -4.108  0.00  0.00    +0.189 A 
ATOM     13  C   UNL     1      -1.909  -2.098  -4.855  0.00  0.00    +0.054 A 
ATOM     14  C   UNL     1      -1.455  -2.018  -6.181  0.00  0.00    +0.042 A 
ATOM     15  C   UNL     1      -0.385  -1.193  -6.185  0.00  0.00    +0.196 A 
ATOM     16  O   UNL     1      -0.167  -0.764  -4.935  0.00  0.00    -0.458 OA
ENDBRANCH   8  12
ENDBRANCH   2  10
BRANCH   2  17
ATOM     17  C   UNL     1       1.921   4.265  -1.266  0.00  0.00    +0.204 C 
ATOM     18  O   UNL     1       2.881   3.532  -1.375  0.00  0.00    -0.277 OA
ATOM     19  N   UNL     1       2.044   5.581  -1.532  0.00  0.00    -0.280 N 
ATOM     20  H   UNL     1       1.276   6.167  -1.445  0.00  0.00    +0.155 HD
BRANCH  19  21
ATOM     21  C   UNL     1       3.269   6.096  -1.931  0.00  0.00    +0.090 A 
ATOM     22  C   UNL     1       3.591   7.406  -2.245  0.00  0.00    +0.084 A 
ATOM     23  C   UNL     1       4.964   7.692  -2.637  0.00  0.00    -0.018 A 
ATOM     24  C   UNL     1       5.785   6.620  -2.658  0.00  0.00    -0.004 A 
ATOM     25  S   UNL     1       4.770   5.260  -2.148  0.00  0.00    -0.077 S 
ATOM     26  C   UNL     1       7.234   6.583  -3.029  0.00  0.00    +0.043 C 
ATOM     27  C   UNL     1       7.976   7.697  -2.278  0.00  0.00    +0.005 C 
ATOM     28  C   UNL     1       7.940   8.962  -3.129  0.00  0.00    +0.001 C 
ATOM     29  C   UNL     1       6.637   9.024  -3.923  0.00  0.00    +0.005 C 
ATOM     30  C   UNL     1       5.441   9.098  -2.981  0.00  0.00    +0.037 C 
BRANCH  22  31
ATOM     31  C   UNL     1       2.606   8.445  -2.187  0.00  0.00    +0.102 C 
ATOM     32  N   UNL     1       1.825   9.268  -2.140  0.00  0.00    -0.191 NA
ENDBRANCH  22  31
ENDBRANCH  19  21
ENDBRANCH   2  17
TORSDOF 5
