REMARK  Name = ZINC27534223
REMARK  3 active torsions:
REMARK  status: ('A' for Active; 'I' for Inactive)
REMARK    1  A    between atoms: C_13  and  C_26
REMARK    2  A    between atoms: C_14  and  N_15
REMARK    3  A    between atoms: N_18  and  C_19
REMARK                            x       y       z     vdW  Elec       q    Type
REMARK                         _______ _______ _______ _____ _____    ______ ____
ROOT
ATOM      1  C   UNL     1      -1.674   2.517   0.808  0.00  0.00    +0.000 A 
ATOM      2  C   UNL     1      -1.457   1.151   0.746  0.00  0.00    +0.001 A 
ATOM      3  C   UNL     1      -0.187   0.660   0.518  0.00  0.00    +0.010 A 
ATOM      4  C   UNL     1       0.873   1.548   0.343  0.00  0.00    +0.000 A 
ATOM      5  C   UNL     1       0.648   2.925   0.405  0.00  0.00    -0.038 A 
ATOM      6  C   UNL     1      -0.624   3.402   0.634  0.00  0.00    +0.004 A 
ATOM      7  C   UNL     1       1.804   3.875   0.225  0.00  0.00    +0.048 C 
ATOM      8  C   UNL     1       3.065   3.273   0.840  0.00  0.00    +0.011 C 
ATOM      9  C   UNL     1       4.279   4.159   0.499  0.00  0.00    +0.012 C 
ATOM     10  C   UNL     1       4.433   5.081   1.735  0.00  0.00    +0.001 C 
ATOM     11  C   UNL     1       4.090   4.135   2.913  0.00  0.00    +0.001 C 
ATOM     12  C   UNL     1       2.942   3.257   2.371  0.00  0.00    +0.012 C 
ATOM     13  C   UNL     1       3.297   1.879   0.328  0.00  0.00    +0.058 C 
ATOM     14  C   UNL     1       2.241   1.053   0.085  0.00  0.00    +0.056 C 
ENDROOT
BRANCH  14  15
ATOM     15  N   UNL     1       2.447  -0.230  -0.395  0.00  0.00    -0.268 N 
ATOM     16  C   UNL     1       1.890  -0.610  -1.562  0.00  0.00    +0.308 C 
ATOM     17  O   UNL     1       1.280   0.198  -2.236  0.00  0.00    -0.252 OA
ATOM     18  N   UNL     1       2.008  -1.885  -1.981  0.00  0.00    -0.269 N 
ATOM     19  H   UNL     1       3.066  -0.938   0.175  0.00  0.00    +0.156 HD
ATOM     20  H   UNL     1       2.489  -2.634  -1.335  0.00  0.00    +0.156 HD
BRANCH  18  21
ATOM     21  C   UNL     1       1.519  -2.256  -3.239  0.00  0.00    +0.035 A 
ATOM     22  C   UNL     1       1.034  -3.541  -3.445  0.00  0.00    +0.025 A 
ATOM     23  C   UNL     1       0.547  -3.903  -4.686  0.00  0.00    +0.022 A 
ATOM     24  C   UNL     1       0.554  -2.991  -5.727  0.00  0.00    +0.041 A 
ATOM     25  C   UNL     1       1.043  -1.712  -5.525  0.00  0.00    +0.022 A 
ATOM     26  C   UNL     1       1.525  -1.343  -4.285  0.00  0.00    +0.025 A 
ATOM     27 CL   UNL     1      -0.052  -3.451  -7.287  0.00  0.00    -0.084 Cl
ENDBRANCH  18  21
ENDBRANCH  14  15
BRANCH  13  28
ATOM     28  C   UNL     1       4.632   1.418   0.095  0.00  0.00    +0.097 C 
ATOM     29  N   UNL     1       5.692   1.052  -0.090  0.00  0.00    -0.191 NA
ENDBRANCH  13  28
TORSDOF 3
