REMARK  Name = ZINC43867357
REMARK  9 active torsions:
REMARK  status: ('A' for Active; 'I' for Inactive)
REMARK    1  A    between atoms: C_1  and  O_2
REMARK    2  A    between atoms: O_2  and  C_3
REMARK    3  A    between atoms: C_8  and  C_9
REMARK    4  A    between atoms: C_9  and  C_11
REMARK    5  A    between atoms: C_9  and  N_24
REMARK    6  A    between atoms: C_11  and  N_12
REMARK    7  A    between atoms: N_15  and  C_16
REMARK    8  A    between atoms: C_19  and  S_22
REMARK    9  A    between atoms: S_22  and  C_23
REMARK                            x       y       z     vdW  Elec       q    Type
REMARK                         _______ _______ _______ _____ _____    ______ ____
ROOT
ATOM      1  C   UNL     1       0.015  -2.847  -0.053  0.00  0.00    -0.017 C 
ENDROOT
BRANCH   1   7
ATOM      2  C   UNL     1      -1.496  -0.870  -0.365  0.00  0.00    +0.122 A 
ATOM      3  C   UNL     1      -2.753  -0.321  -0.573  0.00  0.00    +0.046 A 
ATOM      4  C   UNL     1      -3.857  -1.145  -0.681  0.00  0.00    +0.004 A 
ATOM      5  C   UNL     1      -3.709  -2.516  -0.584  0.00  0.00    +0.000 A 
ATOM      6  C   UNL     1      -2.457  -3.066  -0.377  0.00  0.00    +0.005 A 
ATOM      7  C   UNL     1      -1.350  -2.247  -0.273  0.00  0.00    -0.018 A 
BRANCH   2   9
ATOM      8  C   UNL     1      -0.635   1.346  -0.363  0.00  0.00    +0.277 C 
ATOM      9  O   UNL     1      -0.409  -0.061  -0.258  0.00  0.00    -0.495 OA
ENDBRANCH   2   9
ENDBRANCH   1   7
BRANCH   1  10
ATOM     10  N   UNL     1      -0.129  -4.209   0.477  0.00  0.00    +0.385 N 
ATOM     11  C   UNL     1       1.208  -4.827   0.670  0.00  0.00    -0.078 C 
ATOM     12  C   UNL     1       0.935  -5.944   1.709  0.00  0.00    -0.020 C 
ATOM     13  C   UNL     1      -0.107  -5.296   2.648  0.00  0.00    -0.020 C 
ATOM     14  C   UNL     1      -0.753  -4.171   1.818  0.00  0.00    -0.078 C 
ATOM     15  H   UNL     1      -0.686  -4.770  -0.150  0.00  0.00    -0.081 HD
ENDBRANCH   1  10
BRANCH   1  16
ATOM     16  C   UNL     1       0.771  -2.894  -1.382  0.00  0.00    +0.095 C 
BRANCH  16  17
ATOM     17  N   UNL     1       0.084  -3.803  -2.303  0.00  0.00    -0.300 N 
ATOM     18  C   UNL     1       0.627  -4.084  -3.504  0.00  0.00    +0.304 C 
ATOM     19  O   UNL     1       1.688  -3.584  -3.823  0.00  0.00    -0.253 OA
ATOM     20  N   UNL     1      -0.005  -4.920  -4.351  0.00  0.00    -0.269 N 
ATOM     21  H   UNL     1      -0.763  -4.203  -2.048  0.00  0.00    +0.150 HD
ATOM     22  H   UNL     1      -0.818  -5.370  -4.072  0.00  0.00    +0.156 HD
BRANCH  20  23
ATOM     23  C   UNL     1       0.512  -5.140  -5.635  0.00  0.00    +0.035 A 
ATOM     24  C   UNL     1      -0.350  -5.323  -6.708  0.00  0.00    +0.024 A 
ATOM     25  C   UNL     1       0.159  -5.540  -7.973  0.00  0.00    +0.016 A 
ATOM     26  C   UNL     1       1.534  -5.574  -8.173  0.00  0.00    +0.008 A 
ATOM     27  C   UNL     1       2.396  -5.391  -7.098  0.00  0.00    +0.016 A 
ATOM     28  C   UNL     1       1.886  -5.170  -5.835  0.00  0.00    +0.024 A 
BRANCH  26  29
ATOM     29  S   UNL     1       2.183  -5.850  -9.787  0.00  0.00    -0.129 S 
ATOM     30  C   UNL     1       3.981  -5.810  -9.549  0.00  0.00    +0.090 C 
ENDBRANCH  26  29
ENDBRANCH  20  23
ENDBRANCH  16  17
ENDBRANCH   1  16
TORSDOF 7
