REMARK  Name = ZINC09488303
REMARK  4 active torsions:
REMARK  status: ('A' for Active; 'I' for Inactive)
REMARK    1  A    between atoms: C_3  and  N_9
REMARK    2  A    between atoms: N_21  and  C_22
REMARK    3  A    between atoms: C_22  and  C_24
REMARK    4  A    between atoms: C_24  and  C_25
REMARK                            x       y       z     vdW  Elec       q    Type
REMARK                         _______ _______ _______ _____ _____    ______ ____
ROOT
ATOM      1  N   UNL     1      -0.183   1.773   2.491  0.00  0.00    -0.275 N 
ATOM      2  C   UNL     1      -0.817   1.623   1.199  0.00  0.00    +0.116 C 
ATOM      3  C   UNL     1      -0.013   1.086   0.008  0.00  0.00    +0.190 C 
ATOM      4  S   UNL     1      -1.010   1.750  -1.404  0.00  0.00    -0.028 S 
ATOM      5  O   UNL     1      -0.174   2.552  -2.226  0.00  0.00    -0.174 OA
ATOM      6  O   UNL     1      -1.754   0.688  -1.986  0.00  0.00    -0.174 OA
ATOM      7  C   UNL     1      -2.166   2.853  -0.455  0.00  0.00    +0.182 C 
ATOM      8  C   UNL     1      -1.302   3.058   0.767  0.00  0.00    +0.097 C 
ATOM      9  S   UNL     1      -2.050   3.515   2.352  0.00  0.00    -0.086 S 
ATOM     10  C   UNL     1      -0.841   2.621   3.376  0.00  0.00    +0.154 C 
ATOM     11  N   UNL     1      -0.626   2.761   4.679  0.00  0.00    -0.158 NA
ENDROOT
BRANCH   1  14
ATOM     12  C   UNL     1       3.401   1.061   2.905  0.00  0.00    +0.017 A 
ATOM     13  C   UNL     1       2.230   1.714   2.574  0.00  0.00    +0.026 A 
ATOM     14  C   UNL     1       1.005   1.113   2.826  0.00  0.00    +0.054 A 
ATOM     15  C   UNL     1       0.960  -0.144   3.418  0.00  0.00    +0.063 A 
ATOM     16  C   UNL     1       2.135  -0.796   3.742  0.00  0.00    +0.037 A 
ATOM     17  C   UNL     1       3.354  -0.193   3.489  0.00  0.00    +0.019 A 
ATOM     18 BR   UNL     1       4.960  -1.084   3.941  0.00  0.00    -0.050 Br
ATOM     19 CL   UNL     1      -0.570  -0.898   3.743  0.00  0.00    -0.082 Cl
ENDBRANCH   1  14
BRANCH  11  20
ATOM     20  C   UNL     1      -1.351   3.626   5.385  0.00  0.00    +0.252 C 
ATOM     21  O   UNL     1      -2.212   4.287   4.836  0.00  0.00    -0.273 OA
BRANCH  20  22
ATOM     22  C   UNL     1      -1.107   3.785   6.863  0.00  0.00    +0.216 C 
BRANCH  22  23
ATOM     23  C   UNL     1      -2.032   4.792   7.407  0.00  0.00    +0.072 C 
ATOM     24  N   UNL     1      -2.745   5.570   7.828  0.00  0.00    -0.196 NA
ENDBRANCH  22  23
ENDBRANCH  20  22
ENDBRANCH  11  20
TORSDOF 4
