REMARK  Name = ZINC14783791
REMARK  11 active torsions:
REMARK  status: ('A' for Active; 'I' for Inactive)
REMARK    1  A    between atoms: C_1  and  C_2
REMARK    2  A    between atoms: C_2  and  C_3
REMARK    3  A    between atoms: C_2  and  C_4
REMARK    4  A    between atoms: C_4  and  C_5
REMARK    5  A    between atoms: C_5  and  O_6
REMARK    6  A    between atoms: O_6  and  C_7
REMARK    7  A    between atoms: C_12  and  C_13
REMARK    8  A    between atoms: N_15  and  C_16
REMARK    9  A    between atoms: C_20  and  O_22
REMARK   10  A    between atoms: O_22  and  C_23
REMARK   11  A    between atoms: C_23  and  C_24
REMARK                            x       y       z     vdW  Elec       q    Type
REMARK                         _______ _______ _______ _____ _____    ______ ____
ROOT
ATOM      1  C   UNL     1       1.092   5.930   0.124  0.00  0.00    +0.252 C 
ATOM      2  O   UNL     1       2.154   5.337   0.110  0.00  0.00    -0.270 OA
ATOM      3  N   UNL     1      -0.064   5.244   0.030  0.00  0.00    -0.281 N 
ATOM      4  H   UNL     1      -0.907   5.721  -0.026  0.00  0.00    +0.155 HD
ENDROOT
BRANCH   1  10
ATOM      5  C   UNL     1       2.271   8.117   0.340  0.00  0.00    +0.133 A 
ATOM      6  C   UNL     1       2.239   9.499   0.451  0.00  0.00    +0.047 A 
ATOM      7  C   UNL     1       1.029  10.165   0.465  0.00  0.00    +0.019 A 
ATOM      8  C   UNL     1      -0.160   9.460   0.368  0.00  0.00    +0.019 A 
ATOM      9  C   UNL     1      -0.147   8.086   0.253  0.00  0.00    +0.032 A 
ATOM     10  C   UNL     1       1.070   7.400   0.243  0.00  0.00    +0.080 A 
ATOM     11 BR   UNL     1      -1.809  10.387   0.389  0.00  0.00    -0.050 Br
BRANCH   5  12
ATOM     12  O   UNL     1       3.458   7.462   0.327  0.00  0.00    -0.491 OA
BRANCH  12  13
ATOM     13  C   UNL     1       4.640   8.259   0.430  0.00  0.00    +0.229 C 
BRANCH  13  14
ATOM     14  C   UNL     1       5.872   7.352   0.397  0.00  0.00    +0.044 C 
BRANCH  14  16
ATOM     15  C   UNL     1       8.361   7.293   0.601  0.00  0.00    +0.007 C 
ATOM     16  C   UNL     1       7.137   8.205   0.508  0.00  0.00    -0.014 C 
ATOM     17  C   UNL     1       7.259   9.098  -0.728  0.00  0.00    +0.007 C 
ENDBRANCH  14  16
ENDBRANCH  13  14
ENDBRANCH  12  13
ENDBRANCH   5  12
ENDBRANCH   1  10
BRANCH   3  18
ATOM     18  C   UNL     1      -0.049   3.846   0.015  0.00  0.00    +0.037 A 
ATOM     19  C   UNL     1      -1.073   3.132   0.625  0.00  0.00    +0.023 A 
ATOM     20  C   UNL     1      -1.058   1.751   0.610  0.00  0.00    +0.005 A 
ATOM     21  C   UNL     1      -0.024   1.076  -0.010  0.00  0.00    +0.046 A 
ATOM     22  C   UNL     1       1.006   1.783  -0.615  0.00  0.00    +0.123 A 
ATOM     23  C   UNL     1       0.990   3.169  -0.608  0.00  0.00    +0.069 A 
BRANCH  22  24
ATOM     24  O   UNL     1       2.025   1.118  -1.219  0.00  0.00    -0.488 OA
BRANCH  24  25
ATOM     25  C   UNL     1       1.973  -0.310  -1.193  0.00  0.00    +0.256 C 
BRANCH  25  26
ATOM     26  C   UNL     1       3.177  -0.870  -1.905  0.00  0.00    +0.006 C 
ATOM     27  C   UNL     1       3.850  -1.860  -1.375  0.00  0.00    +0.007 C 
ENDBRANCH  25  26
ENDBRANCH  24  25
ENDBRANCH  22  24
ENDBRANCH   3  18
TORSDOF 9
