REMARK  Name = ZINC23699805
REMARK  6 active torsions:
REMARK  status: ('A' for Active; 'I' for Inactive)
REMARK    1  A    between atoms: C_2  and  C_3
REMARK    2  A    between atoms: C_3  and  N_4
REMARK    3  A    between atoms: C_7  and  C_10
REMARK    4  A    between atoms: C_18  and  C_20
REMARK    5  A    between atoms: C_20  and  N_21
REMARK    6  A    between atoms: C_24  and  C_27
REMARK                            x       y       z     vdW  Elec       q    Type
REMARK                         _______ _______ _______ _____ _____    ______ ____
ROOT
ATOM      1  N   UNL     1       1.367  -1.676   1.111  0.00  0.00    -0.248 N 
ATOM      2  C   UNL     1       0.903  -2.976   0.955  0.00  0.00    +0.168 A 
ATOM      3  N   UNL     1       0.392  -3.558  -0.114  0.00  0.00    -0.224 NA
ATOM      4  C   UNL     1      -0.004  -4.821  -0.086  0.00  0.00    +0.080 A 
ATOM      5  C   UNL     1       0.119  -5.537   1.072  0.00  0.00    +0.076 A 
ATOM      6  S   UNL     1       0.848  -4.308   2.146  0.00  0.00    -0.060 S 
ATOM      7  C   UNL     1       1.864  -1.275   2.299  0.00  0.00    +0.205 C 
ATOM      8  O   UNL     1       1.905  -2.050   3.231  0.00  0.00    -0.277 OA
ENDROOT
BRANCH   4   9
ATOM      9  C   UNL     1      -0.577  -5.453  -1.300  0.00  0.00    +0.002 A 
ATOM     10  C   UNL     1      -0.998  -6.781  -1.264  0.00  0.00    +0.011 A 
ATOM     11  C   UNL     1      -1.530  -7.365  -2.395  0.00  0.00    +0.022 A 
ATOM     12  C   UNL     1      -1.646  -6.634  -3.565  0.00  0.00    +0.059 A 
ATOM     13  C   UNL     1      -1.229  -5.314  -3.607  0.00  0.00    +0.060 A 
ATOM     14  C   UNL     1      -0.700  -4.719  -2.478  0.00  0.00    +0.031 A 
ATOM     15 CL   UNL     1      -1.376  -4.404  -5.078  0.00  0.00    -0.082 Cl
ATOM     16 CL   UNL     1      -2.315  -7.375  -4.986  0.00  0.00    -0.082 Cl
ENDBRANCH   4   9
BRANCH   1  17
ATOM     17  C   UNL     1       1.317  -0.740  -0.015  0.00  0.00    +0.142 C 
BRANCH  17  19
ATOM     18  C   UNL     1      -0.016   1.306   0.009  0.00  0.00    +0.005 C 
ATOM     19  C   UNL     1       0.002  -0.004   0.002  0.00  0.00    -0.015 C 
ENDBRANCH  17  19
ENDBRANCH   1  17
BRANCH   7  20
ATOM     20  C   UNL     1       2.367   0.135   2.468  0.00  0.00    +0.019 C 
BRANCH  20  21
ATOM     21  N   UNL     1       2.852   0.320   3.842  0.00  0.00    +0.385 N 
ATOM     22  C   UNL     1       4.015  -0.546   4.070  0.00  0.00    -0.077 C 
ATOM     23  C   UNL     1       4.475  -0.418   5.524  0.00  0.00    -0.006 C 
ATOM     24  C   UNL     1       4.858   1.038   5.806  0.00  0.00    +0.071 C 
ATOM     25  C   UNL     1       3.660   1.940   5.494  0.00  0.00    -0.006 C 
ATOM     26  C   UNL     1       3.231   1.724   4.041  0.00  0.00    -0.077 C 
ATOM     27  H   UNL     1       2.120   0.075   4.492  0.00  0.00    -0.081 HD
BRANCH  24  28
ATOM     28  C   UNL     1       5.237   1.187   7.256  0.00  0.00    +0.213 C 
ATOM     29  O   UNL     1       5.205   0.225   7.994  0.00  0.00    -0.276 OA
ATOM     30  N   UNL     1       5.612   2.390   7.734  0.00  0.00    -0.329 N 
ATOM     31  H   UNL     1       5.638   3.160   7.145  0.00  0.00    +0.145 HD
ATOM     32  H   UNL     1       5.856   2.486   8.668  0.00  0.00    +0.145 HD
ENDBRANCH  24  28
ENDBRANCH  20  21
ENDBRANCH   7  20
TORSDOF 6
