REMARK  Name = ZINC04362080
REMARK  8 active torsions:
REMARK  status: ('A' for Active; 'I' for Inactive)
REMARK    1  A    between atoms: C_1  and  N_2
REMARK    2  A    between atoms: N_2  and  C_3
REMARK    3  A    between atoms: C_3  and  N_5
REMARK    4  A    between atoms: N_5  and  N_6
REMARK    5  A    between atoms: C_7  and  C_9
REMARK    6  A    between atoms: C_14  and  S_16
REMARK    7  A    between atoms: S_16  and  C_17
REMARK    8  A    between atoms: C_17  and  C_18
REMARK                            x       y       z     vdW  Elec       q    Type
REMARK                         _______ _______ _______ _____ _____    ______ ____
ROOT
ATOM      1  C   UNL     1      -0.624   2.614   0.844  0.00  0.00    +0.075 C 
ATOM      2  C   UNL     1      -1.221   1.232   0.546  0.00  0.00    -0.003 C 
ATOM      3  C   UNL     1      -1.194   1.005  -0.970  0.00  0.00    -0.015 C 
ATOM      4  C   UNL     1      -2.001   2.112  -1.654  0.00  0.00    -0.077 C 
ATOM      5  C   UNL     1      -1.450   3.678   0.111  0.00  0.00    +0.004 C 
ATOM      6  C   UNL     1      -3.450   2.323   0.276  0.00  0.00    -0.077 C 
ATOM      7  C   UNL     1      -2.685   1.221   1.014  0.00  0.00    -0.015 C 
ATOM      8  N   UNL     1      -2.550   3.047  -0.648  0.00  0.00    +0.388 N 
ATOM      9  H   UNL     1      -3.086   3.778  -1.130  0.00  0.00    -0.080 HD
ENDROOT
BRANCH   1  11
ATOM     10  N   UNL     1       1.530   3.786   0.519  0.00  0.00    -0.235 N 
ATOM     11  C   UNL     1       0.803   2.662   0.362  0.00  0.00    +0.232 C 
ATOM     12  O   UNL     1       1.296   1.689  -0.169  0.00  0.00    -0.274 OA
ATOM     13  H   UNL     1       1.135   4.563   0.944  0.00  0.00    +0.173 HD
BRANCH  10  14
ATOM     14  N   UNL     1       2.856   3.830   0.071  0.00  0.00    -0.246 N 
ATOM     15  H   UNL     1       3.251   3.053  -0.353  0.00  0.00    +0.172 HD
BRANCH  14  16
ATOM     16  C   UNL     1       3.583   4.954   0.228  0.00  0.00    +0.147 C 
ATOM     17  S   UNL     1       5.204   5.009  -0.320  0.00  0.00    -0.017 S 
BRANCH  16  19
ATOM     18  C   UNL     1       3.825   7.256   0.989  0.00  0.00    +0.127 C 
ATOM     19  N   UNL     1       3.035   6.035   0.818  0.00  0.00    -0.329 N 
ATOM     20  H   UNL     1       2.116   6.004   1.129  0.00  0.00    +0.147 HD
ENDBRANCH  16  19
ENDBRANCH  14  16
ENDBRANCH  10  14
ENDBRANCH   1  11
BRANCH   5  21
ATOM     21  S   UNL     1      -0.381   4.582  -1.043  0.00  0.00    -0.171 S 
BRANCH  21  22
ATOM     22  C   UNL     1      -1.440   5.913  -1.672  0.00  0.00    +0.102 C 
BRANCH  22  23
ATOM     23  C   UNL     1      -0.655   6.768  -2.633  0.00  0.00    -0.038 A 
ATOM     24  C   UNL     1       0.045   7.866  -2.168  0.00  0.00    +0.006 A 
ATOM     25  C   UNL     1       0.770   8.647  -3.049  0.00  0.00    +0.020 A 
ATOM     26  C   UNL     1       0.785   8.337  -4.397  0.00  0.00    +0.041 A 
ATOM     27  C   UNL     1       0.079   7.241  -4.862  0.00  0.00    +0.020 A 
ATOM     28  C   UNL     1      -0.640   6.458  -3.980  0.00  0.00    +0.006 A 
ATOM     29 CL   UNL     1       1.689   9.322  -5.505  0.00  0.00    -0.084 Cl
ENDBRANCH  22  23
ENDBRANCH  21  22
ENDBRANCH   5  21
TORSDOF 7
