REMARK  Name = ZINC22065553
REMARK  6 active torsions:
REMARK  status: ('A' for Active; 'I' for Inactive)
REMARK    1  A    between atoms: C_8  and  O_19
REMARK    2  A    between atoms: O_19  and  C_20
REMARK    3  A    between atoms: C_22  and  O_36
REMARK    4  A    between atoms: C_24  and  O_35
REMARK    5  A    between atoms: C_26  and  O_34
REMARK    6  A    between atoms: C_28  and  C_31
REMARK                            x       y       z     vdW  Elec       q    Type
REMARK                         _______ _______ _______ _____ _____    ______ ____
ROOT
ATOM      1  C   UNL     1       5.060   2.001  -5.031  0.00  0.00    +0.001 A 
ATOM      2  C   UNL     1       5.212   2.895  -6.192  0.00  0.00    +0.002 A 
ATOM      3  C   UNL     1       4.775   4.134  -6.126  0.00  0.00    +0.024 A 
ATOM      4  C   UNL     1       4.135   4.630  -4.894  0.00  0.00    +0.050 A 
ATOM      5  C   UNL     1       4.026   3.843  -3.847  0.00  0.00    +0.000 A 
ATOM      6  C   UNL     1       4.502   2.448  -3.928  0.00  0.00    +0.010 A 
ATOM      7  C   UNL     1       3.440   4.331  -2.595  0.00  0.00    +0.056 C 
ATOM      8  C   UNL     1       2.424   5.129  -2.499  0.00  0.00    +0.134 C 
ATOM      9  C   UNL     1       1.667   5.679  -3.630  0.00  0.00    +0.039 A 
ATOM     10  C   UNL     1       0.205   5.821  -3.526  0.00  0.00    +0.013 A 
ATOM     11  C   UNL     1      -0.479   6.362  -4.510  0.00  0.00    +0.001 A 
ATOM     12  C   UNL     1       0.219   6.832  -5.719  0.00  0.00    +0.002 A 
ATOM     13  C   UNL     1       1.522   6.689  -5.821  0.00  0.00    +0.024 A 
ATOM     14  C   UNL     1       2.288   6.059  -4.727  0.00  0.00    +0.053 A 
ATOM     15  N   UNL     1       3.617   5.878  -4.875  0.00  0.00    -0.223 N 
ATOM     16  C   UNL     1       4.431   6.945  -5.004  0.00  0.00    +0.308 C 
ATOM     17  O   UNL     1       3.968   8.066  -4.988  0.00  0.00    -0.252 OA
ATOM     18  N   UNL     1       5.758   6.766  -5.152  0.00  0.00    -0.313 N 
ATOM     19  H   UNL     1       6.422   7.637  -5.258  0.00  0.00    +0.147 HD
ATOM     20  H   UNL     1       6.178   5.749  -5.167  0.00  0.00    +0.147 HD
ENDROOT
BRANCH   8  21
ATOM     21  O   UNL     1       2.022   5.482  -1.247  0.00  0.00    -0.460 OA
BRANCH  21  22
ATOM     22  C   UNL     1       2.761   4.938  -0.151  0.00  0.00    +0.340 C 
ATOM     23  C   UNL     1       2.246   5.539   1.160  0.00  0.00    +0.214 C 
ATOM     24  C   UNL     1       0.777   5.148   1.349  0.00  0.00    +0.180 C 
ATOM     25  C   UNL     1       0.659   3.621   1.324  0.00  0.00    +0.186 C 
ATOM     26  C   UNL     1       1.235   3.094   0.007  0.00  0.00    +0.266 C 
ATOM     27  O   UNL     1       2.593   3.519  -0.121  0.00  0.00    -0.322 OA
BRANCH  26  28
ATOM     28  C   UNL     1       1.177   1.588  -0.001  0.00  0.00    +0.387 C 
ATOM     29  O   UNL     1       2.199   0.944  -0.014  0.00  0.00    -0.243 OA
ATOM     30  O   UNL     1      -0.011   0.963   0.007  0.00  0.00    -0.243 OA
ENDBRANCH  26  28
BRANCH  25  31
ATOM     31  O   UNL     1       1.390   3.067   2.420  0.00  0.00    -0.386 OA
ATOM     32  H   UNL     1       1.421   1.977   2.566  0.00  0.00    +0.210 HD
ENDBRANCH  25  31
BRANCH  24  33
ATOM     33  O   UNL     1      -0.006   5.706   0.292  0.00  0.00    -0.386 OA
ATOM     34  H   UNL     1      -1.092   5.530   0.261  0.00  0.00    +0.210 HD
ENDBRANCH  24  33
BRANCH  23  35
ATOM     35  O   UNL     1       3.019   5.036   2.251  0.00  0.00    -0.383 OA
ATOM     36  H   UNL     1       2.794   5.358   3.279  0.00  0.00    +0.210 HD
ENDBRANCH  23  35
ENDBRANCH  21  22
ENDBRANCH   8  21
TORSDOF 6
