REMARK  Name = ZINC22578638
REMARK  4 active torsions:
REMARK  status: ('A' for Active; 'I' for Inactive)
REMARK    1  A    between atoms: C_3  and  S_17
REMARK    2  A    between atoms: C_6  and  N_7
REMARK    3  A    between atoms: C_8  and  C_10
REMARK    4  A    between atoms: S_17  and  N_20
REMARK                            x       y       z     vdW  Elec       q    Type
REMARK                         _______ _______ _______ _____ _____    ______ ____
ROOT
ATOM      1  C   UNL     1      -5.847   4.335   4.714  0.00  0.00    +0.025 A 
ATOM      2  C   UNL     1      -4.640   4.436   4.051  0.00  0.00    +0.031 A 
ATOM      3  C   UNL     1      -4.607   4.445   2.668  0.00  0.00    +0.113 A 
ATOM      4  C   UNL     1      -5.783   4.358   1.945  0.00  0.00    +0.031 A 
ATOM      5  C   UNL     1      -6.993   4.251   2.602  0.00  0.00    +0.025 A 
ATOM      6  C   UNL     1      -7.029   4.243   3.990  0.00  0.00    +0.034 A 
ENDROOT
BRANCH   6   7
ATOM      7  N   UNL     1      -8.254   4.141   4.659  0.00  0.00    -0.280 N 
ATOM      8  C   UNL     1      -9.257   3.419   4.122  0.00  0.00    +0.267 C 
ATOM      9  O   UNL     1      -9.068   2.778   3.106  0.00  0.00    -0.268 OA
ATOM     10  H   UNL     1      -8.398   4.651   5.623  0.00  0.00    +0.155 HD
BRANCH   8  11
ATOM     11  C   UNL     1     -10.589   3.406   4.769  0.00  0.00    +0.127 A 
ATOM     12  C   UNL     1     -11.623   2.663   4.205  0.00  0.00    +0.053 A 
ATOM     13  C   UNL     1     -12.864   2.656   4.826  0.00  0.00    +0.045 A 
ATOM     14  C   UNL     1     -13.028   3.404   5.984  0.00  0.00    +0.040 A 
ATOM     15  C   UNL     1     -11.956   4.125   6.484  0.00  0.00    +0.113 A 
ATOM     16  N   UNL     1     -10.789   4.108   5.877  0.00  0.00    -0.250 NA
ATOM     17 CL   UNL     1     -14.182   1.740   4.167  0.00  0.00    -0.083 Cl
ENDBRANCH   8  11
ENDBRANCH   6   7
BRANCH   3  18
ATOM     18  S   UNL     1      -3.065   4.574   1.826  0.00  0.00    +0.100 S 
ATOM     19  O   UNL     1      -2.161   5.197   2.728  0.00  0.00    -0.146 OA
ATOM     20  O   UNL     1      -3.348   5.110   0.540  0.00  0.00    -0.146 OA
BRANCH  18  21
ATOM     21  N   UNL     1      -2.508   3.034   1.585  0.00  0.00    -0.118 NA
ATOM     22  C   UNL     1      -1.381   2.841   0.981  0.00  0.00    +0.117 C 
ATOM     23  C   UNL     1      -0.601   4.019   0.511  0.00  0.00    +0.073 C 
ATOM     24  C   UNL     1      -0.934   4.321  -0.966  0.00  0.00    +0.008 C 
ATOM     25  C   UNL     1      -0.387   3.265  -1.847  0.00  0.00    +0.002 C 
ATOM     26  C   UNL     1      -0.986   1.885  -1.623  0.00  0.00    +0.019 C 
ATOM     27  C   UNL     1      -0.279   1.181  -0.490  0.00  0.00    +0.102 C 
ATOM     28  N   UNL     1      -0.931   1.542   0.790  0.00  0.00    -0.331 N 
ATOM     29  H   UNL     1      -1.054   0.784   1.578  0.00  0.00    +0.147 HD
ENDBRANCH  18  21
ENDBRANCH   3  18
TORSDOF 4
