REMARK  Name = ZINC18102470
REMARK  8 active torsions:
REMARK  status: ('A' for Active; 'I' for Inactive)
REMARK    1  A    between atoms: C_6  and  C_7
REMARK    2  A    between atoms: C_8  and  C_17
REMARK    3  A    between atoms: C_12  and  C_13
REMARK    4  A    between atoms: C_20  and  O_24
REMARK    5  A    between atoms: C_22  and  O_23
REMARK    6  A    between atoms: O_24  and  C_25
REMARK    7  A    between atoms: C_25  and  C_26
REMARK    8  A    between atoms: N_28  and  N_29
REMARK                            x       y       z     vdW  Elec       q    Type
REMARK                         _______ _______ _______ _____ _____    ______ ____
ROOT
ATOM      1  C   UNL     1      -1.270  -0.765   0.011  0.00  0.00    +0.039 A 
ATOM      2  C   UNL     1      -1.726  -1.595   1.027  0.00  0.00    +0.077 A 
ATOM      3  N   UNL     1      -2.931  -2.091   0.625  0.00  0.00    -0.276 N 
ATOM      4  H   UNL     1      -3.492  -2.701   1.129  0.00  0.00    +0.189 HD
ATOM      5  N   UNL     1      -3.216  -1.566  -0.640  0.00  0.00    -0.169 NA
ATOM      6  C   UNL     1      -2.242  -0.777  -1.006  0.00  0.00    +0.173 A 
ENDROOT
BRANCH   1  12
ATOM      7  C   UNL     1      -0.017   1.390   0.010  0.00  0.00    +0.010 A 
ATOM      8  C   UNL     1       1.170   2.094   0.002  0.00  0.00    +0.016 A 
ATOM      9  C   UNL     1       2.378   1.418  -0.013  0.00  0.00    +0.018 A 
ATOM     10  C   UNL     1       2.403   0.034  -0.021  0.00  0.00    +0.016 A 
ATOM     11  C   UNL     1       1.222  -0.680  -0.013  0.00  0.00    +0.010 A 
ATOM     12  C   UNL     1       0.002  -0.004   0.002  0.00  0.00    -0.014 A 
ATOM     13 BR   UNL     1       4.001   2.389  -0.024  0.00  0.00    -0.050 Br
ENDBRANCH   1  12
BRANCH   2  14
ATOM     14  C   UNL     1      -1.038  -1.885   2.300  0.00  0.00    +0.042 A 
ATOM     15  C   UNL     1      -0.585  -3.177   2.574  0.00  0.00    +0.017 A 
ATOM     16  C   UNL     1       0.058  -3.443   3.763  0.00  0.00    +0.046 A 
ATOM     17  C   UNL     1       0.258  -2.430   4.692  0.00  0.00    +0.125 A 
ATOM     18  C   UNL     1      -0.189  -1.143   4.430  0.00  0.00    +0.091 A 
ATOM     19  C   UNL     1      -0.831  -0.863   3.236  0.00  0.00    +0.129 A 
BRANCH  19  20
ATOM     20  O   UNL     1      -1.264   0.398   2.975  0.00  0.00    -0.506 OA
ATOM     21  H   UNL     1      -2.166   0.574   3.277  0.00  0.00    +0.292 HD
ENDBRANCH  19  20
BRANCH  17  22
ATOM     22  O   UNL     1       0.892  -2.700   5.863  0.00  0.00    -0.483 OA
BRANCH  22  23
ATOM     23  C   UNL     1       1.326  -4.046   6.070  0.00  0.00    +0.325 C 
BRANCH  23  24
ATOM     24  C   UNL     1       2.004  -4.154   7.412  0.00  0.00    +0.264 C 
ATOM     25  O   UNL     1       2.105  -3.176   8.121  0.00  0.00    -0.271 OA
ATOM     26  N   UNL     1       2.497  -5.339   7.823  0.00  0.00    -0.251 N 
ATOM     27  H   UNL     1       2.417  -6.122   7.256  0.00  0.00    +0.169 HD
BRANCH  26  28
ATOM     28  N   UNL     1       3.112  -5.438   9.040  0.00  0.00    -0.254 NA
ATOM     29  H   UNL     1       3.428  -6.380   9.210  0.00  0.00    +0.140 HD
ATOM     30  H   UNL     1       3.874  -4.781   9.114  0.00  0.00    +0.140 HD
ENDBRANCH  26  28
ENDBRANCH  23  24
ENDBRANCH  22  23
ENDBRANCH  17  22
ENDBRANCH   2  14
BRANCH   6  31
ATOM     31  C   UNL     1      -2.168  -0.011  -2.302  0.00  0.00    +0.437 C 
ATOM     32  F   UNL     1      -1.537  -0.797  -3.273  0.00  0.00    -0.164 F 
ATOM     33  F   UNL     1      -3.462   0.308  -2.729  0.00  0.00    -0.164 F 
ATOM     34  F   UNL     1      -1.437   1.166  -2.108  0.00  0.00    -0.164 F 
ENDBRANCH   6  31
TORSDOF 8
