REMARK  Name = ZINC08644455
REMARK  8 active torsions:
REMARK  status: ('A' for Active; 'I' for Inactive)
REMARK    1  A    between atoms: C_3  and  S_26
REMARK    2  A    between atoms: C_6  and  N_7
REMARK    3  A    between atoms: C_8  and  C_10
REMARK    4  A    between atoms: C_10  and  S_11
REMARK    5  A    between atoms: S_11  and  C_12
REMARK    6  A    between atoms: C_15  and  C_18
REMARK    7  A    between atoms: N_16  and  N_17
REMARK    8  A    between atoms: S_26  and  N_29
REMARK                            x       y       z     vdW  Elec       q    Type
REMARK                         _______ _______ _______ _____ _____    ______ ____
ROOT
ATOM      1  C   UNL     1       0.067   1.153   0.029  0.00  0.00    +0.173 C 
ENDROOT
BRANCH   1   3
ATOM      2  N   UNL     1      -0.288   1.135   2.477  0.00  0.00    -0.285 N 
ATOM      3  C   UNL     1      -0.633   1.635   1.274  0.00  0.00    +0.227 C 
ATOM      4  O   UNL     1      -1.506   2.473   1.193  0.00  0.00    -0.275 OA
ATOM      5  H   UNL     1       0.459   0.522   2.552  0.00  0.00    +0.155 HD
BRANCH   2  11
ATOM      6  C   UNL     1      -0.365   1.605   4.845  0.00  0.00    +0.025 A 
ATOM      7  C   UNL     1      -1.078   1.972   5.970  0.00  0.00    +0.030 A 
ATOM      8  C   UNL     1      -2.434   2.226   5.878  0.00  0.00    +0.105 A 
ATOM      9  C   UNL     1      -3.080   2.119   4.659  0.00  0.00    +0.030 A 
ATOM     10  C   UNL     1      -2.371   1.757   3.530  0.00  0.00    +0.025 A 
ATOM     11  C   UNL     1      -1.009   1.502   3.619  0.00  0.00    +0.034 A 
BRANCH   8  12
ATOM     12  S   UNL     1      -3.342   2.687   7.316  0.00  0.00    +0.056 S 
ATOM     13  O   UNL     1      -2.405   3.248   8.225  0.00  0.00    -0.153 OA
ATOM     14  O   UNL     1      -4.485   3.400   6.863  0.00  0.00    -0.153 OA
BRANCH  12  15
ATOM     15  N   UNL     1      -3.900   1.292   8.011  0.00  0.00    -0.204 NA
ATOM     16  H   UNL     1      -3.698   0.433   7.606  0.00  0.00    +0.144 HD
ATOM     17  H   UNL     1      -4.429   1.332   8.823  0.00  0.00    +0.144 HD
ENDBRANCH  12  15
ENDBRANCH   8  12
ENDBRANCH   2  11
ENDBRANCH   1   3
BRANCH   1  18
ATOM     18  S   UNL     1      -0.614   2.006  -1.415  0.00  0.00    -0.075 S 
BRANCH  18  19
ATOM     19  C   UNL     1       0.357   1.272  -2.689  0.00  0.00    +0.209 A 
ATOM     20  N   UNL     1       1.297   0.368  -2.530  0.00  0.00    -0.121 NA
ATOM     21  N   UNL     1       1.800   0.050  -3.669  0.00  0.00    -0.127 NA
ATOM     22  C   UNL     1       1.219   0.738  -4.624  0.00  0.00    +0.183 A 
ATOM     23  N   UNL     1       0.276   1.542  -4.026  0.00  0.00    -0.224 N 
BRANCH  22  24
ATOM     24  C   UNL     1       1.520   0.662  -6.069  0.00  0.00    +0.039 A 
ATOM     25  C   UNL     1       1.692   1.832  -6.811  0.00  0.00    +0.014 A 
ATOM     26  C   UNL     1       1.978   1.756  -8.158  0.00  0.00    +0.021 A 
ATOM     27  C   UNL     1       2.083   0.521  -8.778  0.00  0.00    +0.042 A 
ATOM     28  C   UNL     1       1.907  -0.643  -8.050  0.00  0.00    +0.040 A 
ATOM     29  C   UNL     1       1.626  -0.579  -6.699  0.00  0.00    +0.053 A 
ATOM     30 CL   UNL     1       1.405  -2.040  -5.787  0.00  0.00    -0.083 Cl
ATOM     31 CL   UNL     1       2.436   0.434 -10.476  0.00  0.00    -0.083 Cl
ENDBRANCH  22  24
BRANCH  23  32
ATOM     32  N   UNL     1      -0.565   2.426  -4.640  0.00  0.00    -0.295 N 
ATOM     33  H   UNL     1      -0.170   3.354  -4.649  0.00  0.00    +0.163 HD
ATOM     34  H   UNL     1      -0.790   2.120  -5.575  0.00  0.00    +0.163 HD
ENDBRANCH  23  32
ENDBRANCH  18  19
ENDBRANCH   1  18
TORSDOF 8
