REMARK  Name = ZINC15828103
REMARK  7 active torsions:
REMARK  status: ('A' for Active; 'I' for Inactive)
REMARK    1  A    between atoms: C_1  and  C_2
REMARK    2  A    between atoms: N_4  and  C_5
REMARK    3  A    between atoms: C_5  and  C_6
REMARK    4  A    between atoms: C_9  and  C_12
REMARK    5  A    between atoms: N_16  and  C_17
REMARK    6  A    between atoms: N_24  and  C_25
REMARK    7  A    between atoms: C_25  and  C_26
REMARK                            x       y       z     vdW  Elec       q    Type
REMARK                         _______ _______ _______ _____ _____    ______ ____
ROOT
ATOM      1  C   UNL     1      -0.504   1.130   4.765  0.00  0.00    +0.250 C 
ATOM      2  O   UNL     1       0.491   0.438   4.850  0.00  0.00    -0.270 OA
ATOM      3  N   UNL     1      -0.860   1.653   3.575  0.00  0.00    -0.252 N 
ATOM      4  C   UNL     1      -0.097   1.403   2.455  0.00  0.00    +0.196 C 
ATOM      5  N   UNL     1       0.977   0.655   2.548  0.00  0.00    -0.217 NA
ATOM      6  N   UNL     1      -0.460   1.935   1.244  0.00  0.00    -0.353 N 
ATOM      7  H   UNL     1      -1.654   2.207   3.506  0.00  0.00    +0.158 HD
ATOM      8  H   UNL     1       0.118   1.825   0.473  0.00  0.00    +0.163 HD
ENDROOT
BRANCH   5   9
ATOM      9  C   UNL     1       1.667   0.304   1.418  0.00  0.00    +0.068 A 
ATOM     10  C   UNL     1       3.029   0.592   1.310  0.00  0.00    +0.028 A 
ATOM     11  C   UNL     1       3.718   0.236   0.170  0.00  0.00    +0.003 A 
ATOM     12  C   UNL     1       3.063  -0.404  -0.867  0.00  0.00    +0.015 A 
ATOM     13  C   UNL     1       1.713  -0.693  -0.768  0.00  0.00    +0.020 A 
ATOM     14  C   UNL     1       1.012  -0.346   0.370  0.00  0.00    +0.043 A 
ATOM     15 BR   UNL     1       0.828  -1.568  -2.191  0.00  0.00    -0.050 Br
ENDBRANCH   5   9
BRANCH   1  19
ATOM     16  C   UNL     1      -2.857   1.903   8.215  0.00  0.00    -0.030 A 
ATOM     17  C   UNL     1      -1.725   1.114   8.316  0.00  0.00    +0.006 A 
ATOM     18  C   UNL     1      -0.956   0.859   7.199  0.00  0.00    +0.013 A 
ATOM     19  C   UNL     1      -1.322   1.399   5.965  0.00  0.00    +0.037 A 
ATOM     20  C   UNL     1      -2.463   2.200   5.872  0.00  0.00    +0.013 A 
ATOM     21  C   UNL     1      -3.226   2.442   6.995  0.00  0.00    +0.006 A 
BRANCH  16  22
ATOM     22  C   UNL     1      -3.692   2.178   9.439  0.00  0.00    +0.139 C 
BRANCH  22  26
ATOM     23  C   UNL     1      -3.299   5.077  11.908  0.00  0.00    +0.109 C 
ATOM     24  C   UNL     1      -3.802   3.831  11.226  0.00  0.00    +0.210 C 
ATOM     25  O   UNL     1      -4.745   3.225  11.689  0.00  0.00    -0.276 OA
ATOM     26  N   UNL     1      -3.203   3.389  10.102  0.00  0.00    -0.311 N 
ATOM     27  H   UNL     1      -2.449   3.874   9.732  0.00  0.00    +0.149 HD
ENDBRANCH  22  26
ENDBRANCH  16  22
ENDBRANCH   1  19
BRANCH   6  28
ATOM     28  C   UNL     1      -1.720   2.671   1.115  0.00  0.00    +0.152 C 
BRANCH  28  29
ATOM     29  C   UNL     1      -1.837   3.227  -0.280  0.00  0.00    -0.010 A 
ATOM     30  C   UNL     1      -1.348   4.490  -0.576  0.00  0.00    +0.008 A 
ATOM     31  C   UNL     1      -1.474   4.959  -1.875  0.00  0.00    +0.020 A 
ATOM     32  C   UNL     1      -2.086   4.161  -2.823  0.00  0.00    +0.111 A 
ATOM     33  N   UNL     1      -2.544   2.966  -2.504  0.00  0.00    -0.263 NA
ATOM     34  C   UNL     1      -2.438   2.486  -1.280  0.00  0.00    +0.116 A 
ENDBRANCH  28  29
ENDBRANCH   6  28
TORSDOF 6
