REMARK  Name = ZINC12296701
REMARK  5 active torsions:
REMARK  status: ('A' for Active; 'I' for Inactive)
REMARK    1  A    between atoms: C_1  and  C_2
REMARK    2  A    between atoms: C_20  and  C_23
REMARK    3  A    between atoms: C_26  and  O_31
REMARK    4  A    between atoms: C_27  and  O_29
REMARK    5  A    between atoms: O_29  and  C_30
REMARK                            x       y       z     vdW  Elec       q    Type
REMARK                         _______ _______ _______ _____ _____    ______ ____
ROOT
ATOM      1  C   UNL     1      -2.461  -2.862   0.005  0.00  0.00    +0.045 C 
ATOM      2  C   UNL     1      -1.165  -2.093  -0.000  0.00  0.00    -0.033 A 
ATOM      3  C   UNL     1      -1.187  -0.728  -0.035  0.00  0.00    +0.051 A 
ATOM      4  C   UNL     1       0.002  -0.004  -0.039  0.00  0.00    +0.143 A 
ATOM      5  C   UNL     1       1.235  -0.678  -0.010  0.00  0.00    +0.063 A 
ATOM      6  C   UNL     1       2.481   0.098  -0.019  0.00  0.00    -0.023 A 
ATOM      7  C   UNL     1       2.395   1.446  -0.059  0.00  0.00    +0.041 A 
ATOM      8  C   UNL     1       1.117   2.058  -0.080  0.00  0.00    +0.341 A 
ATOM      9  O   UNL     1       1.048   3.274  -0.107  0.00  0.00    -0.245 OA
ATOM     10  O   UNL     1      -0.016   1.345  -0.072  0.00  0.00    -0.422 OA
ATOM     11  C   UNL     1       3.608   2.337  -0.084  0.00  0.00    +0.042 C 
ATOM     12  C   UNL     1       4.847   1.574   0.379  0.00  0.00    +0.005 C 
ATOM     13  C   UNL     1       4.936   0.267  -0.418  0.00  0.00    +0.005 C 
ATOM     14  C   UNL     1       3.789  -0.642   0.023  0.00  0.00    +0.036 C 
ATOM     15  C   UNL     1       1.267  -2.081   0.029  0.00  0.00    +0.143 A 
ATOM     16  C   UNL     1       0.053  -2.783   0.029  0.00  0.00    +0.063 A 
ATOM     17  C   UNL     1       0.081  -4.254   0.056  0.00  0.00    +0.171 C 
ATOM     18  O   UNL     1      -0.912  -4.915  -0.161  0.00  0.00    -0.292 OA
ATOM     19  C   UNL     1       1.418  -4.902   0.368  0.00  0.00    +0.129 C 
ATOM     20  C   UNL     1       2.497  -4.093  -0.366  0.00  0.00    +0.211 C 
ATOM     21  O   UNL     1       2.447  -2.735   0.071  0.00  0.00    -0.482 OA
ENDROOT
BRANCH  20  22
ATOM     22  C   UNL     1       3.855  -4.670  -0.061  0.00  0.00    -0.003 A 
ATOM     23  C   UNL     1       4.486  -4.357   1.128  0.00  0.00    +0.011 A 
ATOM     24  C   UNL     1       5.729  -4.888   1.416  0.00  0.00    +0.049 A 
ATOM     25  C   UNL     1       6.351  -5.729   0.506  0.00  0.00    +0.158 A 
ATOM     26  C   UNL     1       5.718  -6.040  -0.694  0.00  0.00    +0.162 A 
ATOM     27  C   UNL     1       4.469  -5.508  -0.973  0.00  0.00    +0.056 A 
BRANCH  26  28
ATOM     28  O   UNL     1       6.324  -6.864  -1.590  0.00  0.00    -0.491 OA
ATOM     29  C   UNL     1       5.615  -7.139  -2.800  0.00  0.00    +0.277 C 
ENDBRANCH  26  28
BRANCH  25  30
ATOM     30  O   UNL     1       7.576  -6.248   0.785  0.00  0.00    -0.503 OA
ATOM     31  H   UNL     1       8.313  -5.700   0.482  0.00  0.00    +0.292 HD
ENDBRANCH  25  30
ENDBRANCH  20  22
TORSDOF 3
