REMARK  Name = ZINC20505459
REMARK  2 active torsions:
REMARK  status: ('A' for Active; 'I' for Inactive)
REMARK    1  A    between atoms: C_5  and  N_8
REMARK    2  A    between atoms: C_11  and  C_13
REMARK                            x       y       z     vdW  Elec       q    Type
REMARK                         _______ _______ _______ _____ _____    ______ ____
ROOT
ATOM      1  N   UNL     1      -0.016   1.356   0.009  0.00  0.00    -0.233 N 
ATOM      2  C   UNL     1       0.025   0.034  -0.310  0.00  0.00    +0.049 A 
ATOM      3  C   UNL     1       1.314  -0.356  -0.208  0.00  0.00    +0.008 A 
ATOM      4  C   UNL     1       2.036   0.795   0.187  0.00  0.00    +0.177 A 
ATOM      5  N   UNL     1       1.163   1.779   0.295  0.00  0.00    -0.159 NA
ATOM      6  C   UNL     1       1.452  -1.820  -0.548  0.00  0.00    +0.040 C 
ATOM      7  C   UNL     1       0.145  -2.183  -1.287  0.00  0.00    +0.011 C 
ATOM      8  C   UNL     1      -0.841  -1.132  -0.730  0.00  0.00    +0.056 C 
ENDROOT
BRANCH   1  13
ATOM      9  C   UNL     1      -2.383   4.075  -0.735  0.00  0.00    +0.042 A 
ATOM     10  C   UNL     1      -3.467   3.699   0.039  0.00  0.00    +0.044 A 
ATOM     11  C   UNL     1      -3.408   2.547   0.803  0.00  0.00    +0.042 A 
ATOM     12  C   UNL     1      -2.265   1.768   0.796  0.00  0.00    +0.069 A 
ATOM     13  C   UNL     1      -1.176   2.144   0.019  0.00  0.00    +0.102 A 
ATOM     14  C   UNL     1      -1.236   3.304  -0.743  0.00  0.00    +0.069 A 
ATOM     15 CL   UNL     1       0.125   3.781  -1.708  0.00  0.00    -0.081 Cl
ATOM     16 CL   UNL     1      -2.192   0.324   1.755  0.00  0.00    -0.081 Cl
ATOM     17 CL   UNL     1      -4.903   4.674   0.052  0.00  0.00    -0.083 Cl
ENDBRANCH   1  13
BRANCH   4  18
ATOM     18  C   UNL     1       3.488   0.879   0.432  0.00  0.00    +0.406 C 
ATOM     19  O   UNL     1       4.185  -0.106   0.297  0.00  0.00    -0.239 OA
ATOM     20  O   UNL     1       4.041   2.050   0.805  0.00  0.00    -0.239 OA
ENDBRANCH   4  18
TORSDOF 2
