REMARK  Name = ZINC09468150
REMARK  3 active torsions:
REMARK  status: ('A' for Active; 'I' for Inactive)
REMARK    1  A    between atoms: C_10  and  C_12
REMARK    2  A    between atoms: N_17  and  S_20
REMARK    3  A    between atoms: S_20  and  C_23
REMARK                            x       y       z     vdW  Elec       q    Type
REMARK                         _______ _______ _______ _____ _____    ______ ____
ROOT
ATOM      1  C   UNL     1       4.431  -0.589  -5.616  0.00  0.00    +0.282 C 
ATOM      2  O   UNL     1       3.815  -1.457  -6.203  0.00  0.00    -0.267 OA
ATOM      3  N   UNL     1       4.660  -0.703  -4.293  0.00  0.00    -0.292 N 
ATOM      4  C   UNL     1       5.517   0.266  -3.596  0.00  0.00    +0.125 C 
ATOM      5  C   UNL     1       6.635  -0.497  -2.875  0.00  0.00    +0.128 C 
ATOM      6  N   UNL     1       6.032  -1.593  -2.103  0.00  0.00    -0.173 NA
ATOM      7  C   UNL     1       5.180  -2.566  -2.801  0.00  0.00    +0.128 C 
ATOM      8  C   UNL     1       4.058  -1.799  -3.521  0.00  0.00    +0.125 C 
ENDROOT
BRANCH   1  18
ATOM      9  C   UNL     1       6.474   5.194  -7.492  0.00  0.00    +0.001 A 
ATOM     10  C   UNL     1       6.167   5.187  -6.138  0.00  0.00    +0.004 A 
ATOM     11  C   UNL     1       5.708   4.040  -5.526  0.00  0.00    +0.047 A 
ATOM     12  C   UNL     1       5.548   2.875  -6.269  0.00  0.00    +0.139 A 
ATOM     13  C   UNL     1       5.861   2.891  -7.639  0.00  0.00    +0.064 A 
ATOM     14  C   UNL     1       6.324   4.061  -8.241  0.00  0.00    +0.015 A 
ATOM     15  C   UNL     1       5.686   1.647  -8.413  0.00  0.00    +0.193 A 
ATOM     16  O   UNL     1       5.939   1.595  -9.604  0.00  0.00    -0.287 OA
ATOM     17  C   UNL     1       5.192   0.473  -7.678  0.00  0.00    +0.103 A 
ATOM     18  C   UNL     1       4.928   0.595  -6.356  0.00  0.00    +0.194 A 
ATOM     19  O   UNL     1       5.096   1.747  -5.689  0.00  0.00    -0.450 OA
ENDBRANCH   1  18
BRANCH   6  20
ATOM     20  S   UNL     1       6.314  -1.733  -0.477  0.00  0.00    +0.067 S 
ATOM     21  O   UNL     1       7.542  -1.066  -0.219  0.00  0.00    -0.152 OA
ATOM     22  O   UNL     1       6.105  -3.099  -0.145  0.00  0.00    -0.152 OA
BRANCH  20  23
ATOM     23  C   UNL     1       5.058  -0.815   0.351  0.00  0.00    +0.144 A 
ATOM     24  C   UNL     1       3.843  -1.230   0.783  0.00  0.00    +0.038 A 
ATOM     25  C   UNL     1       3.010  -0.325   1.415  0.00  0.00    +0.030 A 
ATOM     26  C   UNL     1       3.436   0.952   1.583  0.00  0.00    +0.080 A 
ATOM     27  S   UNL     1       5.057   0.902   0.836  0.00  0.00    -0.057 S 
ATOM     28 CL   UNL     1       2.615   2.289   2.325  0.00  0.00    -0.076 Cl
ENDBRANCH  20  23
ENDBRANCH   6  20
TORSDOF 3
