REMARK  Name = ZINC01065344
REMARK  6 active torsions:
REMARK  status: ('A' for Active; 'I' for Inactive)
REMARK    1  A    between atoms: C_1  and  S_2
REMARK    2  A    between atoms: S_2  and  N_5
REMARK    3  A    between atoms: N_8  and  C_11
REMARK    4  A    between atoms: C_16  and  N_17
REMARK    5  A    between atoms: C_18  and  C_20
REMARK    6  A    between atoms: C_23  and  C_25
REMARK                            x       y       z     vdW  Elec       q    Type
REMARK                         _______ _______ _______ _____ _____    ______ ____
ROOT
ATOM      1  C   UNL     1       2.799  -0.204  -4.906  0.00  0.00    +0.051 A 
ATOM      2  C   UNL     1       3.287   0.783  -5.748  0.00  0.00    +0.025 A 
ATOM      3  C   UNL     1       3.950   0.435  -6.910  0.00  0.00    +0.002 A 
ATOM      4  C   UNL     1       4.129  -0.897  -7.236  0.00  0.00    +0.002 A 
ATOM      5  C   UNL     1       3.646  -1.888  -6.402  0.00  0.00    +0.025 A 
ATOM      6  C   UNL     1       2.985  -1.548  -5.232  0.00  0.00    +0.055 A 
ENDROOT
BRANCH   1  10
ATOM      7  N   UNL     1       0.797  -0.396  -1.403  0.00  0.00    -0.178 NA
ATOM      8  C   UNL     1       0.058  -0.582  -2.660  0.00  0.00    +0.128 C 
ATOM      9  C   UNL     1       0.669   0.333  -3.728  0.00  0.00    +0.122 C 
ATOM     10  N   UNL     1       2.127   0.146  -3.729  0.00  0.00    -0.326 N 
ATOM     11  C   UNL     1       2.866   0.332  -2.473  0.00  0.00    +0.122 C 
ATOM     12  C   UNL     1       2.256  -0.578  -1.406  0.00  0.00    +0.128 C 
BRANCH   7  14
ATOM     13  C   UNL     1      -0.011   1.832  -0.004  0.00  0.00    +0.215 C 
ATOM     14  S   UNL     1       0.002   0.018  -0.011  0.00  0.00    +0.029 S 
ATOM     15  O   UNL     1       0.828  -0.470   1.037  0.00  0.00    -0.158 OA
ATOM     16  O   UNL     1      -1.318  -0.480  -0.186  0.00  0.00    -0.158 OA
ENDBRANCH   7  14
ENDBRANCH   1  10
BRANCH   6  17
ATOM     17  N   UNL     1       2.499  -2.550  -4.383  0.00  0.00    -0.277 N 
ATOM     18  C   UNL     1       2.023  -3.700  -4.901  0.00  0.00    +0.284 C 
ATOM     19  O   UNL     1       2.090  -3.901  -6.099  0.00  0.00    -0.266 OA
ATOM     20  H   UNL     1       2.505  -2.417  -3.422  0.00  0.00    +0.155 HD
BRANCH  18  21
ATOM     21  C   UNL     1       1.425  -4.707  -4.021  0.00  0.00    +0.190 A 
ATOM     22  C   UNL     1       0.908  -5.922  -4.416  0.00  0.00    +0.055 A 
ATOM     23  C   UNL     1       0.446  -6.559  -3.260  0.00  0.00    +0.050 A 
ATOM     24  C   UNL     1       0.696  -5.720  -2.212  0.00  0.00    +0.136 A 
ATOM     25  O   UNL     1       1.290  -4.611  -2.682  0.00  0.00    -0.450 OA
BRANCH  24  26
ATOM     26  C   UNL     1       0.370  -5.989  -0.797  0.00  0.00    +0.017 A 
ATOM     27  C   UNL     1      -0.241  -7.192  -0.435  0.00  0.00    +0.012 A 
ATOM     28  C   UNL     1      -0.543  -7.437   0.888  0.00  0.00    +0.016 A 
ATOM     29  C   UNL     1      -0.241  -6.495   1.857  0.00  0.00    +0.018 A 
ATOM     30  C   UNL     1       0.366  -5.301   1.504  0.00  0.00    +0.016 A 
ATOM     31  C   UNL     1       0.678  -5.046   0.185  0.00  0.00    +0.012 A 
ATOM     32 BR   UNL     1      -0.658  -6.840   3.668  0.00  0.00    -0.050 Br
ENDBRANCH  24  26
ENDBRANCH  18  21
ENDBRANCH   6  17
TORSDOF 5
