REMARK  Name = ZINC08781863
REMARK  2 active torsions:
REMARK  status: ('A' for Active; 'I' for Inactive)
REMARK    1  A    between atoms: C_4  and  C_11
REMARK    2  A    between atoms: C_6  and  C_7
REMARK                            x       y       z     vdW  Elec       q    Type
REMARK                         _______ _______ _______ _____ _____    ______ ____
ROOT
ATOM      1  C   UNL     1       5.559   2.163  -0.300  0.00  0.00    +0.092 C 
ATOM      2  C   UNL     1       4.057   2.074  -0.189  0.00  0.00    -0.010 A 
ATOM      3  C   UNL     1       3.444   0.869  -0.499  0.00  0.00    +0.056 A 
ATOM      4  C   UNL     1       2.070   0.735  -0.406  0.00  0.00    +0.167 A 
ATOM      5  C   UNL     1       1.293   1.818  -0.001  0.00  0.00    +0.168 A 
ATOM      6  C   UNL     1       1.901   3.022   0.307  0.00  0.00    +0.073 A 
ATOM      7  C   UNL     1       3.283   3.151   0.213  0.00  0.00    +0.039 A 
ATOM      8  N   UNL     1       3.862   4.392   0.529  0.00  0.00    -0.314 N 
ATOM      9  C   UNL     1       5.157   4.603   0.164  0.00  0.00    +0.057 C 
ATOM     10  C   UNL     1       5.989   3.606  -0.234  0.00  0.00    +0.069 C 
ATOM     11  C   UNL     1       7.243   4.150  -0.547  0.00  0.00    +0.338 C 
ATOM     12  O   UNL     1       8.197   3.503  -0.939  0.00  0.00    -0.245 OA
ATOM     13  O   UNL     1       7.252   5.486  -0.357  0.00  0.00    -0.455 OA
ATOM     14  C   UNL     1       5.949   5.877   0.104  0.00  0.00    +0.283 C 
ATOM     15  O   UNL     1      -0.017   1.436   0.010  0.00  0.00    -0.453 OA
ATOM     16  C   UNL     1       0.002  -0.004   0.002  0.00  0.00    +0.466 C 
ATOM     17  O   UNL     1       1.245  -0.326  -0.650  0.00  0.00    -0.453 OA
ATOM     18  H   UNL     1       3.356   5.077   0.993  0.00  0.00    +0.152 HD
ENDROOT
BRANCH   1  22
ATOM     19  C   UNL     1       7.354  -0.005   2.915  0.00  0.00    +0.015 A 
ATOM     20  C   UNL     1       7.611  -0.372   1.607  0.00  0.00    +0.039 A 
ATOM     21  C   UNL     1       7.030   0.329   0.565  0.00  0.00    +0.127 A 
ATOM     22  C   UNL     1       6.192   1.398   0.833  0.00  0.00    +0.000 A 
ATOM     23  C   UNL     1       5.941   1.767   2.141  0.00  0.00    +0.019 A 
ATOM     24  C   UNL     1       6.516   1.061   3.182  0.00  0.00    +0.055 A 
ATOM     25  F   UNL     1       7.281  -0.029  -0.714  0.00  0.00    -0.205 F 
BRANCH  24  26
ATOM     26  C   UNL     1       6.236   1.460   4.608  0.00  0.00    +0.417 C 
ATOM     27  F   UNL     1       6.929   0.609   5.475  0.00  0.00    -0.166 F 
ATOM     28  F   UNL     1       6.654   2.779   4.814  0.00  0.00    -0.166 F 
ATOM     29  F   UNL     1       4.862   1.362   4.858  0.00  0.00    -0.166 F 
ENDBRANCH  24  26
ENDBRANCH   1  22
TORSDOF 2
