REMARK  Name = ZINC26717317
REMARK  12 active torsions:
REMARK  status: ('A' for Active; 'I' for Inactive)
REMARK    1  A    between atoms: C_1  and  C_2
REMARK    2  A    between atoms: C_2  and  C_3
REMARK    3  A    between atoms: C_2  and  C_4
REMARK    4  A    between atoms: C_5  and  C_23
REMARK    5  A    between atoms: C_6  and  C_16
REMARK    6  A    between atoms: C_8  and  C_10
REMARK    7  A    between atoms: C_24  and  P_25
REMARK    8  A    between atoms: P_25  and  C_27
REMARK    9  A    between atoms: C_27  and  C_28
REMARK   10  A    between atoms: C_28  and  C_30
REMARK   11  A    between atoms: C_28  and  O_34
REMARK   12  A    between atoms: C_30  and  C_31
REMARK                            x       y       z     vdW  Elec       q    Type
REMARK                         _______ _______ _______ _____ _____    ______ ____
ROOT
ATOM      1  C   UNL     1       5.206   2.469  -0.029  0.00  0.00    +0.060 A 
ATOM      2  C   UNL     1       4.124   3.349  -0.019  0.00  0.00    +0.055 A 
ATOM      3  C   UNL     1       4.378   4.736  -0.014  0.00  0.00    +0.001 A 
ATOM      4  C   UNL     1       5.709   5.160  -0.025  0.00  0.00    +0.033 A 
ATOM      5  C   UNL     1       6.715   4.216  -0.040  0.00  0.00    +0.045 A 
ATOM      6  N   UNL     1       6.441   2.924  -0.043  0.00  0.00    -0.255 NA
ENDROOT
BRANCH   3   7
ATOM      7  C   UNL     1       3.266   5.714   0.001  0.00  0.00    -0.016 A 
ATOM      8  C   UNL     1       2.223   5.603  -0.918  0.00  0.00    +0.011 A 
ATOM      9  C   UNL     1       1.187   6.513  -0.896  0.00  0.00    +0.039 A 
ATOM     10  C   UNL     1       1.188   7.544   0.030  0.00  0.00    +0.123 A 
ATOM     11  C   UNL     1       2.225   7.663   0.942  0.00  0.00    +0.039 A 
ATOM     12  C   UNL     1       3.262   6.754   0.931  0.00  0.00    +0.011 A 
ATOM     13  F   UNL     1       0.173   8.437   0.044  0.00  0.00    -0.205 F 
ENDBRANCH   3   7
BRANCH   5  14
ATOM     14  C   UNL     1       8.153   4.667  -0.051  0.00  0.00    +0.038 C 
ATOM     15  C   UNL     1       8.293   5.943   0.782  0.00  0.00    +0.010 C 
ATOM     16  C   UNL     1       9.753   6.401   0.771  0.00  0.00    +0.001 C 
ATOM     17  C   UNL     1      10.188   6.682  -0.669  0.00  0.00    +0.000 C 
ATOM     18  C   UNL     1      10.047   5.406  -1.502  0.00  0.00    +0.001 C 
ATOM     19  C   UNL     1       8.588   4.948  -1.491  0.00  0.00    +0.010 C 
ENDBRANCH   5  14
BRANCH   1  21
ATOM     20  C   UNL     1       5.576   0.362  -1.282  0.00  0.00    +0.014 C 
ATOM     21  C   UNL     1       4.958   0.983  -0.028  0.00  0.00    +0.033 C 
ATOM     22  C   UNL     1       5.596   0.360   1.216  0.00  0.00    +0.014 C 
ENDBRANCH   1  21
BRANCH   2  23
ATOM     23  C   UNL     1       2.781   2.853  -0.009  0.00  0.00    -0.054 C 
ATOM     24  C   UNL     1       1.679   2.447  -0.001  0.00  0.00    -0.003 C 
BRANCH  24  25
ATOM     25  P   UNL     1      -0.023   1.819   0.012  0.00  0.00    +0.307 P 
ATOM     26  O   UNL     1      -0.739   2.309  -1.187  0.00  0.00    -0.274 OA
ATOM     27  O   UNL     1      -0.776   2.338   1.337  0.00  0.00    -0.155 OA
BRANCH  25  28
ATOM     28  C   UNL     1       0.002  -0.004   0.002  0.00  0.00    +0.144 C 
BRANCH  28  29
ATOM     29  C   UNL     1      -1.429  -0.533  -0.113  0.00  0.00    +0.135 C 
BRANCH  29  30
ATOM     30  O   UNL     1      -2.166  -0.171   1.057  0.00  0.00    -0.391 OA
ATOM     31  H   UNL     1      -3.221  -0.467   1.156  0.00  0.00    +0.210 HD
ENDBRANCH  29  30
BRANCH  29  32
ATOM     32  C   UNL     1      -1.400  -2.057  -0.247  0.00  0.00    +0.157 C 
BRANCH  32  33
ATOM     33  C   UNL     1      -2.799  -2.567  -0.483  0.00  0.00    +0.358 C 
ATOM     34  O   UNL     1      -3.723  -1.791  -0.538  0.00  0.00    -0.246 OA
ATOM     35  O   UNL     1      -3.017  -3.883  -0.631  0.00  0.00    -0.246 OA
ENDBRANCH  32  33
ENDBRANCH  29  32
ENDBRANCH  28  29
ENDBRANCH  25  28
ENDBRANCH  24  25
ENDBRANCH   2  23
TORSDOF 10
