REMARK  Name = ZINC31155372
REMARK  16 active torsions:
REMARK  status: ('A' for Active; 'I' for Inactive)
REMARK    1  A    between atoms: C_1  and  C_2
REMARK    2  A    between atoms: C_4  and  O_42
REMARK    3  A    between atoms: C_6  and  O_41
REMARK    4  A    between atoms: C_8  and  O_40
REMARK    5  A    between atoms: C_10  and  O_13
REMARK    6  A    between atoms: O_13  and  C_14
REMARK    7  A    between atoms: C_14  and  C_15
REMARK    8  A    between atoms: C_17  and  O_39
REMARK    9  A    between atoms: C_19  and  O_38
REMARK   10  A    between atoms: C_21  and  O_37
REMARK   11  A    between atoms: C_23  and  O_26
REMARK   12  A    between atoms: O_26  and  C_27
REMARK   13  A    between atoms: C_30  and  O_35
REMARK   14  A    between atoms: C_31  and  O_33
REMARK   15  A    between atoms: O_33  and  C_34
REMARK   16  A    between atoms: O_35  and  C_36
REMARK                            x       y       z     vdW  Elec       q    Type
REMARK                         _______ _______ _______ _____ _____    ______ ____
ROOT
ATOM      1  C   UNL     1      -1.632   3.810  -2.457  0.00  0.00    +0.179 C 
ATOM      2  C   UNL     1      -1.711   5.336  -2.554  0.00  0.00    +0.177 C 
ATOM      3  C   UNL     1      -2.512   5.720  -3.802  0.00  0.00    +0.180 C 
ATOM      4  C   UNL     1      -3.897   5.069  -3.726  0.00  0.00    +0.214 C 
ATOM      5  C   UNL     1      -3.733   3.554  -3.584  0.00  0.00    +0.339 C 
ATOM      6  O   UNL     1      -2.953   3.267  -2.421  0.00  0.00    -0.331 OA
ENDROOT
BRANCH   4   7
ATOM      7  O   UNL     1      -4.604   5.583  -2.596  0.00  0.00    -0.383 OA
ATOM      8  H   UNL     1      -5.623   5.230  -2.378  0.00  0.00    +0.210 HD
ENDBRANCH   4   7
BRANCH   3   9
ATOM      9  O   UNL     1      -1.829   5.257  -4.969  0.00  0.00    -0.386 OA
ATOM     10  H   UNL     1      -2.256   5.441  -5.965  0.00  0.00    +0.210 HD
ENDBRANCH   3   9
BRANCH   2  11
ATOM     11  O   UNL     1      -0.392   5.878  -2.647  0.00  0.00    -0.386 OA
ATOM     12  H   UNL     1      -0.248   6.965  -2.725  0.00  0.00    +0.210 HD
ENDBRANCH   2  11
BRANCH   1  13
ATOM     13  C   UNL     1      -0.885   3.418  -1.180  0.00  0.00    +0.197 C 
BRANCH  13  14
ATOM     14  O   UNL     1      -0.709   2.000  -1.147  0.00  0.00    -0.346 OA
BRANCH  14  20
ATOM     15  C   UNL     1       3.479   2.242  -1.068  0.00  0.00    +0.041 C 
ATOM     16  C   UNL     1       2.076   1.637  -1.152  0.00  0.00    +0.149 C 
ATOM     17  C   UNL     1       2.181   0.111  -1.207  0.00  0.00    +0.174 C 
ATOM     18  C   UNL     1       0.772  -0.490  -1.230  0.00  0.00    +0.179 C 
ATOM     19  C   UNL     1       0.002  -0.004   0.002  0.00  0.00    +0.201 C 
ATOM     20  C   UNL     1      -0.019   1.527   0.010  0.00  0.00    +0.282 C 
ATOM     21  O   UNL     1       1.323   2.020   0.000  0.00  0.00    -0.343 OA
BRANCH  19  22
ATOM     22  O   UNL     1       0.645  -0.479   1.187  0.00  0.00    -0.384 OA
ATOM     23  H   UNL     1       0.231  -0.229   2.175  0.00  0.00    +0.210 HD
ENDBRANCH  19  22
BRANCH  18  24
ATOM     24  O   UNL     1       0.858  -1.916  -1.208  0.00  0.00    -0.386 OA
ATOM     25  H   UNL     1      -0.060  -2.522  -1.220  0.00  0.00    +0.210 HD
ENDBRANCH  18  24
BRANCH  17  26
ATOM     26  O   UNL     1       2.885  -0.277  -2.389  0.00  0.00    -0.387 OA
ATOM     27  H   UNL     1       3.059  -1.343  -2.600  0.00  0.00    +0.210 HD
ENDBRANCH  17  26
ENDBRANCH  14  20
ENDBRANCH  13  14
ENDBRANCH   1  13
BRANCH   5  28
ATOM     28  O   UNL     1      -3.073   3.035  -4.740  0.00  0.00    -0.461 OA
BRANCH  28  29
ATOM     29  C   UNL     1      -3.034   1.683  -4.874  0.00  0.00    +0.128 A 
ATOM     30  C   UNL     1      -3.615   0.874  -3.908  0.00  0.00    +0.049 A 
ATOM     31  C   UNL     1      -3.580  -0.501  -4.045  0.00  0.00    +0.053 A 
ATOM     32  C   UNL     1      -2.957  -1.075  -5.141  0.00  0.00    +0.162 A 
ATOM     33  C   UNL     1      -2.370  -0.266  -6.108  0.00  0.00    +0.165 A 
ATOM     34  C   UNL     1      -2.409   1.113  -5.973  0.00  0.00    +0.095 A 
BRANCH  33  35
ATOM     35  O   UNL     1      -1.758  -0.827  -7.185  0.00  0.00    -0.491 OA
ATOM     36  C   UNL     1      -1.177   0.065  -8.139  0.00  0.00    +0.277 C 
ENDBRANCH  33  35
BRANCH  32  37
ATOM     37  O   UNL     1      -2.919  -2.429  -5.271  0.00  0.00    -0.491 OA
ATOM     38  C   UNL     1      -3.542  -3.198  -4.240  0.00  0.00    +0.277 C 
ENDBRANCH  32  37
ENDBRANCH  28  29
ENDBRANCH   5  28
TORSDOF 13
