REMARK  Name = ZINC39957958
REMARK  7 active torsions:
REMARK  status: ('A' for Active; 'I' for Inactive)
REMARK    1  A    between atoms: C_1  and  C_2
REMARK    2  A    between atoms: C_4  and  C_16
REMARK    3  A    between atoms: C_6  and  C_14
REMARK    4  A    between atoms: C_7  and  N_13
REMARK    5  A    between atoms: C_21  and  O_22
REMARK    6  A    between atoms: O_22  and  C_23
REMARK    7  A    between atoms: C_23  and  C_24
REMARK                            x       y       z     vdW  Elec       q    Type
REMARK                         _______ _______ _______ _____ _____    ______ ____
ROOT
ATOM      1  C   UNL     1      -0.018   1.503   0.010  0.00  0.00    +0.067 C 
ATOM      2  C   UNL     1       0.002  -0.004   0.002  0.00  0.00    +0.066 C 
ATOM      3  C   UNL     1      -1.064  -0.768   0.003  0.00  0.00    +0.030 C 
ATOM      4  C   UNL     1      -2.537  -0.492  -0.122  0.00  0.00    +0.101 C 
ATOM      5  C   UNL     1      -3.075  -1.565  -1.050  0.00  0.00    +0.098 C 
ATOM      6  C   UNL     1      -2.317  -2.612  -1.438  0.00  0.00    +0.195 C 
ATOM      7  O   UNL     1      -1.033  -2.841  -1.107  0.00  0.00    -0.448 OA
ATOM      8  C   UNL     1      -0.528  -2.199   0.066  0.00  0.00    +0.343 C 
ATOM      9  N   UNL     1       0.921  -1.985   0.002  0.00  0.00    -0.138 NA
ATOM     10  N   UNL     1       1.127  -0.765  -0.013  0.00  0.00    -0.155 NA
ENDROOT
BRANCH   4  11
ATOM     11  C   UNL     1      -3.201  -0.585   1.227  0.00  0.00    +0.008 A 
ATOM     12  C   UNL     1      -3.149  -1.765   1.943  0.00  0.00    +0.023 A 
ATOM     13  C   UNL     1      -3.759  -1.851   3.182  0.00  0.00    +0.018 A 
ATOM     14  C   UNL     1      -4.421  -0.755   3.707  0.00  0.00    +0.019 A 
ATOM     15  C   UNL     1      -4.475   0.427   2.994  0.00  0.00    +0.047 A 
ATOM     16  C   UNL     1      -3.860   0.516   1.754  0.00  0.00    +0.126 A 
ATOM     17 BR   UNL     1      -3.687  -3.468   4.160  0.00  0.00    -0.050 Br
BRANCH  16  18
ATOM     18  O   UNL     1      -3.907   1.680   1.053  0.00  0.00    -0.479 OA
BRANCH  18  19
ATOM     19  C   UNL     1      -4.603   2.773   1.657  0.00  0.00    +0.317 C 
BRANCH  19  20
ATOM     20  C   UNL     1      -4.552   3.941   0.763  0.00  0.00    -0.065 C 
ATOM     21  C   UNL     1      -4.511   4.873   0.050  0.00  0.00    +0.007 C 
ENDBRANCH  19  20
ENDBRANCH  18  19
ENDBRANCH  16  18
ENDBRANCH   4  11
BRANCH   6  22
ATOM     22  N   UNL     1      -2.917  -3.538  -2.254  0.00  0.00    -0.329 N 
ATOM     23  H   UNL     1      -3.842  -3.421  -2.523  0.00  0.00    +0.145 HD
ATOM     24  H   UNL     1      -2.417  -4.310  -2.562  0.00  0.00    +0.145 HD
ENDBRANCH   6  22
BRANCH   5  25
ATOM     25  C   UNL     1      -4.422  -1.466  -1.525  0.00  0.00    +0.101 C 
ATOM     26  N   UNL     1      -5.491  -1.387  -1.903  0.00  0.00    -0.191 NA
ENDBRANCH   5  25
TORSDOF 6
