REMARK  Name = ZINC13789453
REMARK  5 active torsions:
REMARK  status: ('A' for Active; 'I' for Inactive)
REMARK    1  A    between atoms: C_1  and  N_2
REMARK    2  A    between atoms: N_13  and  C_14
REMARK    3  A    between atoms: C_14  and  C_16
REMARK    4  A    between atoms: N_19  and  S_22
REMARK    5  A    between atoms: S_22  and  C_25
REMARK                            x       y       z     vdW  Elec       q    Type
REMARK                         _______ _______ _______ _____ _____    ______ ____
ROOT
ATOM      1  C   UNL     1       0.022  -2.688   9.466  0.00  0.00    +0.151 C 
ATOM      2  N   UNL     1       0.074  -1.292   9.907  0.00  0.00    -0.323 N 
ATOM      3  C   UNL     1       0.194  -0.997  11.252  0.00  0.00    +0.077 A 
ATOM      4  C   UNL     1       0.233   0.372  11.556  0.00  0.00    +0.040 A 
ATOM      5  C   UNL     1       0.350   0.840  12.843  0.00  0.00    +0.019 A 
ATOM      6  C   UNL     1       0.434  -0.059  13.892  0.00  0.00    +0.022 A 
ATOM      7  C   UNL     1       0.397  -1.418  13.624  0.00  0.00    +0.061 A 
ATOM      8  C   UNL     1       0.280  -1.887  12.335  0.00  0.00    +0.084 A 
ATOM      9 CL   UNL     1       0.238  -3.598  12.045  0.00  0.00    -0.080 Cl
ATOM     10 CL   UNL     1       0.501  -2.549  14.937  0.00  0.00    -0.082 Cl
ATOM     11  S   UNL     1       0.109   1.145   9.963  0.00  0.00    -0.052 S 
ATOM     12  C   UNL     1       0.004  -0.288   8.993  0.00  0.00    +0.166 A 
ATOM     13  N   UNL     1      -0.111  -0.383   7.670  0.00  0.00    -0.156 NA
ENDROOT
BRANCH  13  14
ATOM     14  C   UNL     1      -0.165   0.717   6.927  0.00  0.00    +0.242 C 
ATOM     15  O   UNL     1      -0.109   1.811   7.455  0.00  0.00    -0.273 OA
BRANCH  14  16
ATOM     16  C   UNL     1      -0.295   0.610   5.429  0.00  0.00    +0.080 C 
ATOM     17  C   UNL     1      -0.335   2.013   4.819  0.00  0.00    +0.030 C 
ATOM     18  C   UNL     1      -0.432   1.900   3.295  0.00  0.00    +0.110 C 
ATOM     19  N   UNL     1      -1.590   1.061   2.956  0.00  0.00    -0.181 NA
ATOM     20  C   UNL     1      -1.700  -0.272   3.565  0.00  0.00    +0.110 C 
ATOM     21  C   UNL     1      -1.585  -0.136   5.082  0.00  0.00    +0.030 C 
BRANCH  19  22
ATOM     22  S   UNL     1      -2.753   1.610   1.913  0.00  0.00    +0.029 S 
ATOM     23  O   UNL     1      -2.696   3.026   2.019  0.00  0.00    -0.158 OA
ATOM     24  O   UNL     1      -3.931   0.904   2.278  0.00  0.00    -0.158 OA
ATOM     25  C   UNL     1      -2.193   1.083   0.270  0.00  0.00    +0.215 C 
ENDBRANCH  19  22
ENDBRANCH  14  16
ENDBRANCH  13  14
TORSDOF 3
