REMARK  Name = ZINC40154885
REMARK  4 active torsions:
REMARK  status: ('A' for Active; 'I' for Inactive)
REMARK    1  A    between atoms: C_1  and  C_2
REMARK    2  A    between atoms: C_5  and  N_9
REMARK    3  A    between atoms: C_10  and  C_12
REMARK    4  A    between atoms: C_13  and  N_26
REMARK                            x       y       z     vdW  Elec       q    Type
REMARK                         _______ _______ _______ _____ _____    ______ ____
ROOT
ATOM      1  C   UNL     1      -0.127  -6.253  -1.190  0.00  0.00    +0.097 A 
ATOM      2  C   UNL     1      -0.226  -7.100  -2.270  0.00  0.00    +0.053 A 
ATOM      3  C   UNL     1      -0.304  -8.532  -2.020  0.00  0.00    +0.030 A 
ATOM      4  C   UNL     1      -0.414  -9.585  -2.953  0.00  0.00    +0.025 A 
ATOM      5  C   UNL     1      -0.471 -10.896  -2.486  0.00  0.00    +0.039 A 
ATOM      6  C   UNL     1      -0.416 -11.163  -1.110  0.00  0.00    +0.053 A 
ATOM      7  N   UNL     1      -0.320 -10.161  -0.257  0.00  0.00    -0.244 NA
ATOM      8  C   UNL     1      -0.264  -8.907  -0.655  0.00  0.00    +0.111 A 
ATOM      9  S   UNL     1      -0.126  -7.359   0.207  0.00  0.00    -0.062 S 
ATOM     10  C   UNL     1      -0.457 -12.570  -0.579  0.00  0.00    +0.056 C 
ATOM     11  C   UNL     1      -1.105 -13.521  -1.582  0.00  0.00    +0.014 C 
ATOM     12  C   UNL     1      -0.380 -13.413  -2.929  0.00  0.00    +0.080 C 
ATOM     13  C   UNL     1      -0.593 -12.006  -3.448  0.00  0.00    +0.165 C 
ATOM     14  O   UNL     1      -0.855 -11.800  -4.614  0.00  0.00    -0.292 OA
ENDROOT
BRANCH   1  16
ATOM     15  N   UNL     1       0.059  -4.170  -0.023  0.00  0.00    -0.280 N 
ATOM     16  C   UNL     1      -0.039  -4.838  -1.189  0.00  0.00    +0.257 C 
ATOM     17  O   UNL     1      -0.053  -4.226  -2.242  0.00  0.00    -0.269 OA
ATOM     18  H   UNL     1       0.151  -4.659   0.810  0.00  0.00    +0.155 HD
BRANCH  15  23
ATOM     19  C   UNL     1      -0.063   1.502   0.015  0.00  0.00    +0.044 C 
ATOM     20  C   UNL     1      -0.031  -0.005   0.006  0.00  0.00    -0.049 A 
ATOM     21  C   UNL     1      -0.622  -0.701  -1.033  0.00  0.00    +0.005 A 
ATOM     22  C   UNL     1      -0.594  -2.082  -1.045  0.00  0.00    +0.025 A 
ATOM     23  C   UNL     1       0.029  -2.772  -0.013  0.00  0.00    +0.048 A 
ATOM     24  C   UNL     1       0.623  -2.069   1.029  0.00  0.00    +0.039 A 
ATOM     25  C   UNL     1       0.595  -0.688   1.032  0.00  0.00    +0.020 A 
ATOM     26 BR   UNL     1       1.472  -3.003   2.437  0.00  0.00    -0.048 Br
ENDBRANCH  15  23
ENDBRANCH   1  16
BRANCH   2  27
ATOM     27  N   UNL     1      -0.253  -6.602  -3.565  0.00  0.00    -0.356 N 
ATOM     28  H   UNL     1      -0.200  -5.646  -3.717  0.00  0.00    +0.142 HD
ATOM     29  H   UNL     1      -0.324  -7.211  -4.317  0.00  0.00    +0.142 HD
ENDBRANCH   2  27
TORSDOF 3
