REMARK  Name = ZINC25258361
REMARK  9 active torsions:
REMARK  status: ('A' for Active; 'I' for Inactive)
REMARK    1  A    between atoms: C_1  and  C_2
REMARK    2  A    between atoms: C_4  and  N_26
REMARK    3  A    between atoms: C_7  and  N_8
REMARK    4  A    between atoms: C_9  and  C_11
REMARK    5  A    between atoms: C_11  and  S_12
REMARK    6  A    between atoms: S_12  and  C_13
REMARK    7  A    between atoms: C_16  and  C_22
REMARK    8  A    between atoms: C_18  and  N_19
REMARK    9  A    between atoms: N_29  and  C_32
REMARK                            x       y       z     vdW  Elec       q    Type
REMARK                         _______ _______ _______ _____ _____    ______ ____
ROOT
ATOM      1  N   UNL     1      -3.228   5.069  -5.797  0.00  0.00    -0.285 N 
ATOM      2  C   UNL     1      -4.097   4.306  -6.489  0.00  0.00    +0.227 C 
ATOM      3  O   UNL     1      -4.421   3.218  -6.062  0.00  0.00    -0.275 OA
ATOM      4  H   UNL     1      -3.003   6.091  -6.135  0.00  0.00    +0.155 HD
ENDROOT
BRANCH   1  11
ATOM      5  C   UNL     1      -2.314   6.915  -3.836  0.00  0.00    +0.046 C 
ATOM      6  C   UNL     1      -2.149   5.427  -3.665  0.00  0.00    -0.028 A 
ATOM      7  C   UNL     1      -1.541   4.926  -2.531  0.00  0.00    +0.028 A 
ATOM      8  C   UNL     1      -1.389   3.554  -2.373  0.00  0.00    +0.030 A 
ATOM      9  C   UNL     1      -1.845   2.687  -3.358  0.00  0.00    +0.025 A 
ATOM     10  C   UNL     1      -2.459   3.189  -4.489  0.00  0.00    +0.025 A 
ATOM     11  C   UNL     1      -2.610   4.560  -4.646  0.00  0.00    +0.036 A 
BRANCH   8  12
ATOM     12  N   UNL     1      -0.773   3.046  -1.225  0.00  0.00    -0.333 N 
ATOM     13  C   UNL     1      -0.718   1.578  -1.263  0.00  0.00    +0.086 C 
ATOM     14  C   UNL     1       0.033   1.067  -0.030  0.00  0.00    -0.060 C 
ATOM     15  N   UNL     1      -0.650   1.534   1.184  0.00  0.00    +0.380 N 
ATOM     16  C   UNL     1      -0.706   3.002   1.222  0.00  0.00    -0.060 C 
ATOM     17  C   UNL     1      -1.456   3.513  -0.010  0.00  0.00    +0.086 C 
ATOM     18  C   UNL     1      -0.002   1.000   2.390  0.00  0.00    -0.096 C 
ATOM     19  H   UNL     1      -1.683   1.155   1.161  0.00  0.00    -0.082 HD
ENDBRANCH   8  12
ENDBRANCH   1  11
BRANCH   2  20
ATOM     20  C   UNL     1      -4.666   4.805  -7.792  0.00  0.00    +0.170 C 
BRANCH  20  21
ATOM     21  S   UNL     1      -5.796   3.560  -8.474  0.00  0.00    -0.114 S 
BRANCH  21  22
ATOM     22  C   UNL     1      -6.370   4.283  -9.975  0.00  0.00    +0.039 A 
ATOM     23  C   UNL     1      -5.923   5.542 -10.358  0.00  0.00    +0.017 A 
ATOM     24  C   UNL     1      -6.374   6.105 -11.535  0.00  0.00    +0.013 A 
ATOM     25  C   UNL     1      -7.271   5.418 -12.333  0.00  0.00    +0.057 A 
ATOM     26  C   UNL     1      -7.718   4.165 -11.956  0.00  0.00    +0.046 A 
ATOM     27  C   UNL     1      -7.266   3.593 -10.782  0.00  0.00    +0.140 A 
BRANCH  25  28
ATOM     28  C   UNL     1      -7.761   6.035 -13.617  0.00  0.00    +0.417 C 
ATOM     29  F   UNL     1      -7.173   7.294 -13.783  0.00  0.00    -0.166 F 
ATOM     30  F   UNL     1      -7.412   5.212 -14.693  0.00  0.00    -0.166 F 
ATOM     31  F   UNL     1      -9.152   6.173 -13.567  0.00  0.00    -0.166 F 
ENDBRANCH  25  28
BRANCH  27  32
ATOM     32  N   UNL     1      -7.740   2.249 -10.383  0.00  0.00    +0.058 N 
ATOM     33  O   UNL     1      -8.526   1.645 -11.090  0.00  0.00    -0.126 OA
ATOM     34  O   UNL     1      -7.345   1.748  -9.345  0.00  0.00    -0.126 OA
ENDBRANCH  27  32
ENDBRANCH  21  22
ENDBRANCH  20  21
ENDBRANCH   2  20
TORSDOF 7
