REMARK  Name = ZINC38501598
REMARK  10 active torsions:
REMARK  status: ('A' for Active; 'I' for Inactive)
REMARK    1  A    between atoms: C_3  and  S_33
REMARK    2  A    between atoms: C_6  and  C_7
REMARK    3  A    between atoms: C_7  and  C_8
REMARK    4  A    between atoms: C_8  and  N_9
REMARK    5  A    between atoms: C_10  and  C_12
REMARK    6  A    between atoms: C_13  and  O_24
REMARK    7  A    between atoms: N_15  and  C_17
REMARK    8  A    between atoms: O_24  and  C_25
REMARK    9  A    between atoms: C_25  and  C_26
REMARK   10  A    between atoms: S_33  and  N_36
REMARK                            x       y       z     vdW  Elec       q    Type
REMARK                         _______ _______ _______ _____ _____    ______ ____
ROOT
ATOM      1  C   UNL     1      -4.861  -2.871  -2.575  0.00  0.00    +0.189 A 
ATOM      2  C   UNL     1      -5.593  -3.301  -3.711  0.00  0.00    +0.171 A 
ATOM      3  C   UNL     1      -6.679  -3.951  -3.218  0.00  0.00    +0.161 A 
ATOM      4  N   UNL     1      -6.589  -3.905  -1.861  0.00  0.00    -0.236 N 
ATOM      5  N   UNL     1      -5.524  -3.279  -1.509  0.00  0.00    -0.158 NA
ENDROOT
BRANCH   4   6
ATOM      6  C   UNL     1      -7.521  -4.464  -0.976  0.00  0.00    +0.066 A 
ATOM      7  C   UNL     1      -8.635  -5.130  -1.468  0.00  0.00    +0.030 A 
ATOM      8  C   UNL     1      -9.552  -5.680  -0.595  0.00  0.00    +0.040 A 
ATOM      9  C   UNL     1      -9.361  -5.567   0.772  0.00  0.00    +0.124 A 
ATOM     10  C   UNL     1      -8.251  -4.903   1.266  0.00  0.00    +0.040 A 
ATOM     11  C   UNL     1      -7.329  -4.356   0.395  0.00  0.00    +0.030 A 
ATOM     12  F   UNL     1     -10.259  -6.106   1.626  0.00  0.00    -0.205 F 
ENDBRANCH   4   6
BRANCH   1  14
ATOM     13  N   UNL     1      -3.004  -1.778  -1.420  0.00  0.00    -0.310 N 
ATOM     14  C   UNL     1      -3.594  -2.117  -2.584  0.00  0.00    +0.268 C 
ATOM     15  O   UNL     1      -3.082  -1.800  -3.640  0.00  0.00    -0.268 OA
ATOM     16  H   UNL     1      -3.412  -2.031  -0.578  0.00  0.00    +0.149 HD
BRANCH  13  17
ATOM     17  C   UNL     1      -1.745  -1.028  -1.429  0.00  0.00    +0.109 C 
BRANCH  17  18
ATOM     18  C   UNL     1      -1.293  -0.775   0.011  0.00  0.00    +0.054 C 
BRANCH  18  24
ATOM     19  C   UNL     1      -0.017   1.378   0.010  0.00  0.00    +0.005 A 
ATOM     20  C   UNL     1       1.171   2.086   0.002  0.00  0.00    +0.029 A 
ATOM     21  C   UNL     1       2.377   1.411  -0.013  0.00  0.00    +0.105 A 
ATOM     22  C   UNL     1       2.396   0.029  -0.020  0.00  0.00    +0.029 A 
ATOM     23  C   UNL     1       1.208  -0.679  -0.012  0.00  0.00    +0.005 A 
ATOM     24  C   UNL     1       0.002  -0.004   0.002  0.00  0.00    -0.046 A 
BRANCH  21  25
ATOM     25  S   UNL     1       3.891   2.312  -0.024  0.00  0.00    +0.056 S 
ATOM     26  O   UNL     1       4.872   1.453  -0.588  0.00  0.00    -0.153 OA
ATOM     27  O   UNL     1       3.597   3.593  -0.566  0.00  0.00    -0.153 OA
BRANCH  25  28
ATOM     28  N   UNL     1       4.327   2.556   1.555  0.00  0.00    -0.204 NA
ATOM     29  H   UNL     1       3.768   2.215   2.271  0.00  0.00    +0.144 HD
ATOM     30  H   UNL     1       5.142   3.039   1.764  0.00  0.00    +0.144 HD
ENDBRANCH  25  28
ENDBRANCH  21  25
ENDBRANCH  18  24
ENDBRANCH  17  18
ENDBRANCH  13  17
ENDBRANCH   1  14
BRANCH   2  31
ATOM     31  O   UNL     1      -5.275  -3.104  -5.019  0.00  0.00    -0.483 OA
BRANCH  31  32
ATOM     32  C   UNL     1      -6.176  -3.635  -5.993  0.00  0.00    +0.264 C 
BRANCH  32  33
ATOM     33  C   UNL     1      -5.663  -3.322  -7.375  0.00  0.00    -0.010 A 
ATOM     34  C   UNL     1      -6.037  -2.147  -8.000  0.00  0.00    +0.010 A 
ATOM     35  C   UNL     1      -5.568  -1.858  -9.268  0.00  0.00    +0.039 A 
ATOM     36  C   UNL     1      -4.722  -2.746  -9.911  0.00  0.00    +0.123 A 
ATOM     37  C   UNL     1      -4.349  -3.922  -9.284  0.00  0.00    +0.039 A 
ATOM     38  C   UNL     1      -4.815  -4.207  -8.015  0.00  0.00    +0.010 A 
ATOM     39  F   UNL     1      -4.263  -2.465 -11.150  0.00  0.00    -0.205 F 
ENDBRANCH  32  33
ENDBRANCH  31  32
ENDBRANCH   2  31
TORSDOF 10
