REMARK  Name = ZINC38995094
REMARK  7 active torsions:
REMARK  status: ('A' for Active; 'I' for Inactive)
REMARK    1  A    between atoms: C_6  and  C_7
REMARK    2  A    between atoms: C_9  and  C_13
REMARK    3  A    between atoms: C_17  and  S_21
REMARK    4  A    between atoms: N_19  and  N_20
REMARK    5  A    between atoms: S_21  and  C_22
REMARK    6  A    between atoms: C_22  and  C_23
REMARK    7  A    between atoms: N_25  and  C_26
REMARK                            x       y       z     vdW  Elec       q    Type
REMARK                         _______ _______ _______ _____ _____    ______ ____
ROOT
ATOM      1  C   UNL     1      -3.281  -3.139  -1.234  0.00  0.00    +0.185 C 
ATOM      2  N   UNL     1      -2.637  -4.478  -1.268  0.00  0.00    -0.234 NA
ATOM      3  N   UNL     1      -3.539  -5.260  -2.127  0.00  0.00    -0.228 NA
ATOM      4  C   UNL     1      -4.896  -4.788  -1.766  0.00  0.00    +0.214 C 
ATOM      5  N   UNL     1      -4.733  -3.431  -1.198  0.00  0.00    -0.197 NA
ATOM      6  H   UNL     1      -2.584  -4.877  -0.342  0.00  0.00    +0.143 HD
ATOM      7  H   UNL     1      -3.441  -6.248  -1.951  0.00  0.00    +0.143 HD
ENDROOT
BRANCH   1  10
ATOM      8  C   UNL     1      -1.271  -0.766   0.011  0.00  0.00    +0.091 C 
ATOM      9  C   UNL     1      -1.363  -2.110   0.010  0.00  0.00    +0.034 C 
ATOM     10  C   UNL     1      -2.858  -2.372   0.020  0.00  0.00    +0.187 C 
ATOM     11  N   UNL     1      -3.437  -1.018   0.026  0.00  0.00    -0.176 NA
ATOM     12  N   UNL     1      -2.509  -0.206   0.026  0.00  0.00    -0.154 NA
BRANCH   8  18
ATOM     13  C   UNL     1      -0.017   1.389   0.010  0.00  0.00    +0.011 A 
ATOM     14  C   UNL     1       1.170   2.093   0.002  0.00  0.00    +0.020 A 
ATOM     15  C   UNL     1       2.378   1.417  -0.013  0.00  0.00    +0.041 A 
ATOM     16  C   UNL     1       2.402   0.033  -0.021  0.00  0.00    +0.020 A 
ATOM     17  C   UNL     1       1.221  -0.680  -0.014  0.00  0.00    +0.011 A 
ATOM     18  C   UNL     1       0.002  -0.004   0.002  0.00  0.00    +0.002 A 
ATOM     19 CL   UNL     1       3.868   2.309  -0.022  0.00  0.00    -0.084 Cl
ENDBRANCH   8  18
ENDBRANCH   1  10
BRANCH   5  20
ATOM     20  N   UNL     1      -5.243  -3.371   0.162  0.00  0.00    -0.264 NA
ATOM     21  H   UNL     1      -6.232  -3.570   0.186  0.00  0.00    +0.137 HD
ATOM     22  H   UNL     1      -4.733  -3.997   0.767  0.00  0.00    +0.137 HD
ENDBRANCH   5  20
BRANCH   4  23
ATOM     23  S   UNL     1      -5.945  -4.720  -3.244  0.00  0.00    -0.115 S 
BRANCH  23  24
ATOM     24  C   UNL     1      -5.068  -3.584  -4.353  0.00  0.00    +0.167 C 
BRANCH  24  25
ATOM     25  C   UNL     1      -5.843  -3.437  -5.637  0.00  0.00    +0.223 C 
ATOM     26  O   UNL     1      -6.885  -4.039  -5.788  0.00  0.00    -0.275 OA
ATOM     27  N   UNL     1      -5.379  -2.635  -6.616  0.00  0.00    -0.312 N 
ATOM     28  H   UNL     1      -4.546  -2.154  -6.495  0.00  0.00    +0.149 HD
BRANCH  27  29
ATOM     29  C   UNL     1      -6.133  -2.492  -7.864  0.00  0.00    +0.073 C 
ATOM     30  C   UNL     1      -5.761  -3.629  -8.818  0.00  0.00    +0.022 C 
ATOM     31  C   UNL     1      -6.548  -3.479 -10.122  0.00  0.00    +0.002 C 
ATOM     32  C   UNL     1      -6.208  -2.136 -10.771  0.00  0.00    +0.000 C 
ATOM     33  C   UNL     1      -6.581  -0.999  -9.817  0.00  0.00    +0.002 C 
ATOM     34  C   UNL     1      -5.793  -1.149  -8.514  0.00  0.00    +0.022 C 
ENDBRANCH  27  29
ENDBRANCH  24  25
ENDBRANCH  23  24
ENDBRANCH   4  23
TORSDOF 7
