REMARK  Name = ZINC02637196
REMARK  6 active torsions:
REMARK  status: ('A' for Active; 'I' for Inactive)
REMARK    1  A    between atoms: C_6  and  S_7
REMARK    2  A    between atoms: S_7  and  N_10
REMARK    3  A    between atoms: C_15  and  C_16
REMARK    4  A    between atoms: C_15  and  N_49
REMARK    5  A    between atoms: N_18  and  C_19
REMARK    6  A    between atoms: C_23  and  C_25
REMARK                            x       y       z     vdW  Elec       q    Type
REMARK                         _______ _______ _______ _____ _____    ______ ____
ROOT
ATOM      1  N   UNL     1       4.710  -0.121   1.383  0.00  0.00    -0.180 NA
ATOM      2  C   UNL     1       4.798   0.629   0.121  0.00  0.00    +0.091 C 
ATOM      3  C   UNL     1       3.681   1.678   0.100  0.00  0.00    -0.061 C 
ATOM      4  C   UNL     1       2.348   0.406   1.677  0.00  0.00    -0.061 C 
ATOM      5  C   UNL     1       3.410  -0.695   1.763  0.00  0.00    +0.091 C 
ATOM      6  N   UNL     1       2.386   0.998   0.322  0.00  0.00    +0.387 N 
ATOM      7  H   UNL     1       2.281   0.249  -0.372  0.00  0.00    -0.081 HD
ENDROOT
BRANCH   1   8
ATOM      8  S   UNL     1       6.039  -0.314   2.352  0.00  0.00    +0.061 S 
ATOM      9  O   UNL     1       5.808  -1.480   3.132  0.00  0.00    -0.153 OA
ATOM     10  O   UNL     1       7.177  -0.173   1.512  0.00  0.00    -0.153 OA
BRANCH   8  16
ATOM     11  C   UNL     1       6.743   2.203   3.137  0.00  0.00    +0.030 A 
ATOM     12  C   UNL     1       6.762   3.272   4.014  0.00  0.00    +0.022 A 
ATOM     13  C   UNL     1       6.115   3.177   5.233  0.00  0.00    +0.041 A 
ATOM     14  C   UNL     1       5.444   2.014   5.572  0.00  0.00    +0.022 A 
ATOM     15  C   UNL     1       5.422   0.949   4.691  0.00  0.00    +0.030 A 
ATOM     16  C   UNL     1       6.069   1.044   3.473  0.00  0.00    +0.106 A 
ATOM     17 CL   UNL     1       6.143   4.516   6.338  0.00  0.00    -0.084 Cl
ENDBRANCH   8  16
ENDBRANCH   1   8
BRANCH   6  18
ATOM     18  C   UNL     1       1.277   1.961   0.161  0.00  0.00    +0.019 C 
BRANCH  18  19
ATOM     19  C   UNL     1      -0.027   1.205   0.175  0.00  0.00    +0.201 C 
ATOM     20  O   UNL     1      -0.028   0.001   0.322  0.00  0.00    -0.278 OA
ATOM     21  N   UNL     1      -1.191   1.867   0.018  0.00  0.00    -0.287 N 
ATOM     22  H   UNL     1      -1.196   2.836  -0.023  0.00  0.00    +0.155 HD
BRANCH  21  23
ATOM     23  C   UNL     1      -2.391   1.155  -0.086  0.00  0.00    +0.034 A 
ATOM     24  C   UNL     1      -2.412  -0.089  -0.704  0.00  0.00    +0.025 A 
ATOM     25  C   UNL     1      -3.597  -0.791  -0.801  0.00  0.00    +0.022 A 
ATOM     26  C   UNL     1      -4.766  -0.252  -0.292  0.00  0.00    +0.053 A 
ATOM     27  C   UNL     1      -4.749   0.990   0.319  0.00  0.00    +0.075 A 
ATOM     28  C   UNL     1      -3.565   1.694   0.423  0.00  0.00    +0.037 A 
ATOM     29 CL   UNL     1      -6.255  -1.134  -0.421  0.00  0.00    -0.083 Cl
BRANCH  27  30
ATOM     30  C   UNL     1      -6.024   1.573   0.872  0.00  0.00    +0.419 C 
ATOM     31  F   UNL     1      -5.756   2.825   1.438  0.00  0.00    -0.166 F 
ATOM     32  F   UNL     1      -6.957   1.718  -0.160  0.00  0.00    -0.166 F 
ATOM     33  F   UNL     1      -6.540   0.720   1.853  0.00  0.00    -0.166 F 
ENDBRANCH  27  30
ENDBRANCH  21  23
ENDBRANCH  18  19
ENDBRANCH   6  18
TORSDOF 6
