REMARK  Name = ZINC58994176
REMARK  8 active torsions:
REMARK  status: ('A' for Active; 'I' for Inactive)
REMARK    1  A    between atoms: C_6  and  N_7
REMARK    2  A    between atoms: C_8  and  C_10
REMARK    3  A    between atoms: C_10  and  S_11
REMARK    4  A    between atoms: S_11  and  C_12
REMARK    5  A    between atoms: N_17  and  N_18
REMARK    6  A    between atoms: C_19  and  C_20
REMARK    7  A    between atoms: C_23  and  O_27
REMARK    8  A    between atoms: C_25  and  O_26
REMARK                            x       y       z     vdW  Elec       q    Type
REMARK                         _______ _______ _______ _____ _____    ______ ____
ROOT
ATOM      1  C   UNL     1      -6.464  -0.738   0.510  0.00  0.00    +0.211 A 
ATOM      2  N   UNL     1      -7.731  -0.325   0.627  0.00  0.00    -0.186 NA
ATOM      3  C   UNL     1      -8.531  -1.367   0.701  0.00  0.00    +0.232 A 
ATOM      4  N   UNL     1      -7.772  -2.482   0.631  0.00  0.00    -0.245 N 
ATOM      5  N   UNL     1      -6.443  -2.049   0.502  0.00  0.00    -0.144 NA
ATOM      6  N   UNL     1      -9.907  -1.327   0.829  0.00  0.00    -0.205 N 
ATOM      7  H   UNL     1     -10.414  -2.153   0.876  0.00  0.00    +0.177 HD
ATOM      8  H   UNL     1      -8.085  -3.399   0.660  0.00  0.00    +0.192 HD
ENDROOT
BRANCH   6   9
ATOM      9  N   UNL     1     -10.570  -0.095   0.890  0.00  0.00    -0.187 NA
ATOM     10  C   UNL     1     -11.862  -0.057   1.010  0.00  0.00    +0.142 C 
BRANCH  10  11
ATOM     11  C   UNL     1     -12.559   1.239   1.074  0.00  0.00    +0.036 A 
ATOM     12  C   UNL     1     -13.949   1.283   1.209  0.00  0.00    +0.016 A 
ATOM     13  C   UNL     1     -14.597   2.497   1.269  0.00  0.00    +0.046 A 
ATOM     14  C   UNL     1     -13.872   3.681   1.196  0.00  0.00    +0.120 A 
ATOM     15  C   UNL     1     -12.492   3.648   1.062  0.00  0.00    +0.091 A 
ATOM     16  C   UNL     1     -11.829   2.435   1.006  0.00  0.00    +0.129 A 
BRANCH  16  17
ATOM     17  O   UNL     1     -10.477   2.401   0.880  0.00  0.00    -0.506 OA
ATOM     18  H   UNL     1     -10.168   2.392  -0.035  0.00  0.00    +0.292 HD
ENDBRANCH  16  17
BRANCH  14  19
ATOM     19  O   UNL     1     -14.518   4.875   1.256  0.00  0.00    -0.507 OA
ATOM     20  H   UNL     1     -14.620   5.222   2.152  0.00  0.00    +0.292 HD
ENDBRANCH  14  19
ENDBRANCH  10  11
ENDBRANCH   6   9
BRANCH   1  21
ATOM     21  S   UNL     1      -5.053   0.310   0.379  0.00  0.00    -0.075 S 
BRANCH  21  22
ATOM     22  C   UNL     1      -3.661  -0.845   0.242  0.00  0.00    +0.173 C 
BRANCH  22  24
ATOM     23  N   UNL     1      -1.201  -0.721   0.008  0.00  0.00    -0.285 N 
ATOM     24  C   UNL     1      -2.375  -0.068   0.122  0.00  0.00    +0.227 C 
ATOM     25  O   UNL     1      -2.396   1.145   0.129  0.00  0.00    -0.275 OA
ATOM     26  H   UNL     1      -1.190  -1.688  -0.075  0.00  0.00    +0.155 HD
BRANCH  23  32
ATOM     27  C   UNL     1       0.120   1.155   0.762  0.00  0.00    +0.027 A 
ATOM     28  C   UNL     1       1.307   1.863   0.761  0.00  0.00    +0.051 A 
ATOM     29  C   UNL     1       2.383   1.419   0.007  0.00  0.00    +0.162 A 
ATOM     30  C   UNL     1       2.268   0.257  -0.747  0.00  0.00    +0.164 A 
ATOM     31  C   UNL     1       1.077  -0.453  -0.747  0.00  0.00    +0.072 A 
ATOM     32  C   UNL     1       0.002  -0.004   0.008  0.00  0.00    +0.037 A 
ATOM     33  O   UNL     1       3.316  -0.199  -1.487  0.00  0.00    -0.485 OA
ATOM     34  C   UNL     1       4.367   0.734  -1.758  0.00  0.00    +0.270 C 
ATOM     35  C   UNL     1       4.716   1.458  -0.451  0.00  0.00    +0.270 C 
ATOM     36  O   UNL     1       3.542   2.132   0.016  0.00  0.00    -0.485 OA
ENDBRANCH  23  32
ENDBRANCH  22  24
ENDBRANCH  21  22
ENDBRANCH   1  21
TORSDOF 8
