REMARK  Name = ZINC08725090
REMARK  6 active torsions:
REMARK  status: ('A' for Active; 'I' for Inactive)
REMARK    1  A    between atoms: C_1  and  C_2
REMARK    2  A    between atoms: C_4  and  C_28
REMARK    3  A    between atoms: N_6  and  C_27
REMARK    4  A    between atoms: N_12  and  C_26
REMARK    5  A    between atoms: N_15  and  C_18
REMARK    6  A    between atoms: C_18  and  C_19
REMARK                            x       y       z     vdW  Elec       q    Type
REMARK                         _______ _______ _______ _____ _____    ______ ____
ROOT
ATOM      1  C   UNL     1       2.790  -0.224   1.998  0.00  0.00    +0.037 C 
ATOM      2  C   UNL     1       2.435  -0.033   0.522  0.00  0.00    +0.133 C 
ATOM      3  C   UNL     1       2.321   1.435   0.221  0.00  0.00    +0.057 C 
ATOM      4  N   UNL     1       1.224   2.035   0.001  0.00  0.00    -0.185 NA
ATOM      5  N   UNL     1      -0.017   1.377   0.010  0.00  0.00    -0.196 N 
ATOM      6  C   UNL     1       0.002  -0.004   0.002  0.00  0.00    +0.221 A 
ATOM      7  N   UNL     1       1.163  -0.696   0.239  0.00  0.00    -0.296 N 
ATOM      8  C   UNL     1       0.851  -2.025   0.154  0.00  0.00    +0.154 A 
ATOM      9  C   UNL     1      -0.522  -2.089  -0.132  0.00  0.00    +0.170 A 
ATOM     10  N   UNL     1      -0.979  -0.849  -0.211  0.00  0.00    -0.195 NA
ATOM     11  N   UNL     1      -1.145  -3.321  -0.277  0.00  0.00    -0.279 N 
ATOM     12  C   UNL     1      -0.376  -4.425  -0.131  0.00  0.00    +0.334 A 
ATOM     13  O   UNL     1      -0.900  -5.515  -0.254  0.00  0.00    -0.246 OA
ATOM     14  N   UNL     1       0.936  -4.375   0.142  0.00  0.00    -0.255 N 
ATOM     15  C   UNL     1       1.606  -3.206   0.295  0.00  0.00    +0.283 A 
ATOM     16  O   UNL     1       2.799  -3.179   0.542  0.00  0.00    -0.265 OA
ATOM     17  C   UNL     1      -2.575  -3.422  -0.576  0.00  0.00    +0.155 C 
ATOM     18  C   UNL     1      -1.277   2.123   0.020  0.00  0.00    +0.161 C 
ATOM     19  C   UNL     1       3.590   2.247   0.176  0.00  0.00    +0.064 C 
ENDROOT
BRANCH  14  20
ATOM     20  C   UNL     1       1.675  -5.632   0.279  0.00  0.00    +0.165 C 
BRANCH  20  21
ATOM     21  C   UNL     1       2.217  -6.046  -1.065  0.00  0.00    -0.027 A 
ATOM     22  C   UNL     1       1.463  -6.854  -1.895  0.00  0.00    +0.006 A 
ATOM     23  C   UNL     1       1.958  -7.229  -3.130  0.00  0.00    +0.015 A 
ATOM     24  C   UNL     1       3.212  -6.805  -3.530  0.00  0.00    +0.018 A 
ATOM     25  C   UNL     1       3.968  -6.001  -2.697  0.00  0.00    +0.015 A 
ATOM     26  C   UNL     1       3.471  -5.622  -1.464  0.00  0.00    +0.006 A 
ATOM     27 BR   UNL     1       3.893  -7.325  -5.216  0.00  0.00    -0.050 Br
ENDBRANCH  20  21
ENDBRANCH  14  20
TORSDOF 2
