REMARK  Name = ZINC11831390
REMARK  4 active torsions:
REMARK  status: ('A' for Active; 'I' for Inactive)
REMARK    1  A    between atoms: C_6  and  N_7
REMARK    2  A    between atoms: C_8  and  C_12
REMARK    3  A    between atoms: C_12  and  N_48
REMARK    4  A    between atoms: N_20  and  C_21
REMARK                            x       y       z     vdW  Elec       q    Type
REMARK                         _______ _______ _______ _____ _____    ______ ____
ROOT
ATOM      1  C   UNL     1       3.459   0.062  -0.191  0.00  0.00    -0.059 C 
ATOM      2  C   UNL     1       2.220  -0.125   0.691  0.00  0.00    +0.091 C 
ATOM      3  N   UNL     1       1.270  -0.999  -0.015  0.00  0.00    -0.289 N 
ATOM      4  C   UNL     1       1.763  -2.281  -0.540  0.00  0.00    +0.091 C 
ATOM      5  C   UNL     1       3.021  -2.007  -1.379  0.00  0.00    -0.059 C 
ATOM      6  C   UNL     1      -0.018  -0.636  -0.172  0.00  0.00    +0.306 C 
ATOM      7  O   UNL     1      -0.380   0.478   0.154  0.00  0.00    -0.252 OA
ATOM      8  N   UNL     1      -0.905  -1.508  -0.689  0.00  0.00    -0.269 N 
ATOM      9  H   UNL     1      -0.599  -2.355  -1.050  0.00  0.00    +0.156 HD
ATOM     10  N   UNL     1       3.995  -1.271  -0.544  0.00  0.00    +0.386 N 
ATOM     11  H   UNL     1       4.162  -1.802   0.319  0.00  0.00    -0.081 HD
ENDROOT
BRANCH   8  12
ATOM     12  C   UNL     1      -2.268  -1.190  -0.711  0.00  0.00    +0.036 A 
ATOM     13  C   UNL     1      -2.673   0.138  -0.701  0.00  0.00    +0.025 A 
ATOM     14  C   UNL     1      -4.018   0.450  -0.729  0.00  0.00    +0.023 A 
ATOM     15  C   UNL     1      -4.963  -0.559  -0.755  0.00  0.00    +0.059 A 
ATOM     16  C   UNL     1      -4.564  -1.885  -0.759  0.00  0.00    +0.061 A 
ATOM     17  C   UNL     1      -3.218  -2.202  -0.737  0.00  0.00    +0.044 A 
ATOM     18 CL   UNL     1      -5.753  -3.150  -0.792  0.00  0.00    -0.082 Cl
ATOM     19 CL   UNL     1      -6.654  -0.164  -0.783  0.00  0.00    -0.082 Cl
ENDBRANCH   8  12
BRANCH  10  20
ATOM     20  C   UNL     1       5.273  -1.123  -1.271  0.00  0.00    +0.001 C 
BRANCH  20  22
ATOM     21  N   UNL     1       6.434  -3.395  -1.265  0.00  0.00    -0.199 N 
ATOM     22  C   UNL     1       5.665  -2.456  -1.856  0.00  0.00    +0.140 A 
ATOM     23  N   UNL     1       5.327  -2.916  -3.033  0.00  0.00    -0.115 NA
ATOM     24  N   UNL     1       5.826  -4.083  -3.223  0.00  0.00    -0.023 NA
ATOM     25  N   UNL     1       6.511  -4.448  -2.193  0.00  0.00    -0.039 NA
BRANCH  21  31
ATOM     26  C   UNL     1       8.228  -3.988   0.243  0.00  0.00    +0.029 A 
ATOM     27  C   UNL     1       8.813  -3.922   1.493  0.00  0.00    +0.022 A 
ATOM     28  C   UNL     1       8.198  -3.214   2.510  0.00  0.00    +0.041 A 
ATOM     29  C   UNL     1       6.998  -2.565   2.276  0.00  0.00    +0.022 A 
ATOM     30  C   UNL     1       6.412  -2.624   1.027  0.00  0.00    +0.029 A 
ATOM     31  C   UNL     1       7.027  -3.334   0.005  0.00  0.00    +0.069 A 
ATOM     32 CL   UNL     1       8.932  -3.139   4.081  0.00  0.00    -0.084 Cl
ENDBRANCH  21  31
ENDBRANCH  20  22
ENDBRANCH  10  20
TORSDOF 4
