REMARK  Name = ZINC09577803
REMARK  8 active torsions:
REMARK  status: ('A' for Active; 'I' for Inactive)
REMARK    1  A    between atoms: C_1  and  C_2
REMARK    2  A    between atoms: C_6  and  N_9
REMARK    3  A    between atoms: C_7  and  C_8
REMARK    4  A    between atoms: C_13  and  C_15
REMARK    5  A    between atoms: C_15  and  N_16
REMARK    6  A    between atoms: C_19  and  C_23
REMARK    7  A    between atoms: C_19  and  C_30
REMARK    8  A    between atoms: C_23  and  C_24
REMARK                            x       y       z     vdW  Elec       q    Type
REMARK                         _______ _______ _______ _____ _____    ______ ____
ROOT
ATOM      1  N   UNL     1       6.196   2.413   5.899  0.00  0.00    -0.215 N 
ATOM      2  C   UNL     1       6.562   3.674   6.204  0.00  0.00    +0.252 C 
ATOM      3  O   UNL     1       6.510   4.647   5.483  0.00  0.00    -0.272 OA
ATOM      4  C   UNL     1       7.049   3.623   7.639  0.00  0.00    +0.142 C 
ATOM      5  N   UNL     1       6.893   2.205   8.007  0.00  0.00    -0.281 N 
ATOM      6  C   UNL     1       6.389   1.580   6.927  0.00  0.00    +0.310 C 
ATOM      7  O   UNL     1       6.138   0.392   6.890  0.00  0.00    -0.252 OA
ATOM      8  H   UNL     1       7.111   1.800   8.861  0.00  0.00    +0.152 HD
ENDROOT
BRANCH   4   9
ATOM      9  C   UNL     1       8.495   4.036   7.722  0.00  0.00    -0.015 A 
ATOM     10  C   UNL     1       8.824   5.346   8.014  0.00  0.00    +0.006 A 
ATOM     11  C   UNL     1      10.151   5.725   8.095  0.00  0.00    +0.000 A 
ATOM     12  C   UNL     1      11.150   4.795   7.874  0.00  0.00    +0.000 A 
ATOM     13  C   UNL     1      10.821   3.485   7.576  0.00  0.00    +0.000 A 
ATOM     14  C   UNL     1       9.494   3.106   7.500  0.00  0.00    +0.006 A 
ENDBRANCH   4   9
BRANCH   1  15
ATOM     15  C   UNL     1       5.659   2.005   4.598  0.00  0.00    +0.214 C 
BRANCH  15  20
ATOM     16  N   UNL     1       1.386   1.593   2.434  0.00  0.00    -0.269 N 
ATOM     17  C   UNL     1       2.100   1.917   3.530  0.00  0.00    +0.310 C 
ATOM     18  O   UNL     1       1.533   2.309   4.531  0.00  0.00    -0.252 OA
ATOM     19  N   UNL     1       3.443   1.806   3.517  0.00  0.00    -0.239 N 
ATOM     20  C   UNL     1       4.157   2.129   4.613  0.00  0.00    +0.238 C 
ATOM     21  O   UNL     1       3.591   2.520   5.611  0.00  0.00    -0.274 OA
ATOM     22  H   UNL     1       1.832   1.219   1.658  0.00  0.00    +0.156 HD
ATOM     23  H   UNL     1       3.896   1.492   2.718  0.00  0.00    +0.159 HD
BRANCH  16  29
ATOM     24  C   UNL     1      -2.682   2.791  -0.054  0.00  0.00    +0.044 C 
ATOM     25  C   UNL     1      -1.996   2.378   1.223  0.00  0.00    -0.046 A 
ATOM     26  C   UNL     1      -2.735   2.201   2.378  0.00  0.00    +0.004 A 
ATOM     27  C   UNL     1      -2.109   1.828   3.553  0.00  0.00    +0.002 A 
ATOM     28  C   UNL     1      -0.743   1.626   3.575  0.00  0.00    +0.023 A 
ATOM     29  C   UNL     1       0.002   1.797   2.415  0.00  0.00    +0.038 A 
ATOM     30  C   UNL     1      -0.630   2.172   1.237  0.00  0.00    -0.026 A 
ATOM     31  C   UNL     1       0.174   2.360  -0.024  0.00  0.00    +0.046 C 
ENDBRANCH  16  29
ENDBRANCH  15  20
ENDBRANCH   1  15
BRANCH   4  32
ATOM     32  C   UNL     1       6.184   4.510   8.537  0.00  0.00    +0.075 C 
BRANCH  32  33
ATOM     33  C   UNL     1       4.756   4.032   8.491  0.00  0.00    -0.045 A 
ATOM     34  C   UNL     1       3.886   4.546   7.548  0.00  0.00    +0.004 A 
ATOM     35  C   UNL     1       2.577   4.104   7.502  0.00  0.00    +0.000 A 
ATOM     36  C   UNL     1       2.135   3.156   8.406  0.00  0.00    +0.000 A 
ATOM     37  C   UNL     1       3.004   2.646   9.352  0.00  0.00    +0.000 A 
ATOM     38  C   UNL     1       4.314   3.084   9.395  0.00  0.00    +0.004 A 
ENDBRANCH  32  33
ENDBRANCH   4  32
TORSDOF 6
