REMARK  Name = ZINC03584838
REMARK  9 active torsions:
REMARK  status: ('A' for Active; 'I' for Inactive)
REMARK    1  A    between atoms: C_1  and  C_2
REMARK    2  A    between atoms: C_2  and  C_3
REMARK    3  A    between atoms: C_3  and  N_47
REMARK    4  A    between atoms: C_4  and  C_5
REMARK    5  A    between atoms: C_4  and  N_47
REMARK    6  A    between atoms: N_7  and  C_8
REMARK    7  A    between atoms: C_15  and  C_16
REMARK    8  A    between atoms: C_15  and  N_47
REMARK    9  A    between atoms: N_18  and  C_19
REMARK                            x       y       z     vdW  Elec       q    Type
REMARK                         _______ _______ _______ _____ _____    ______ ____
ROOT
ATOM      1  N   UNL     1       1.252   2.796  -1.272  0.00  0.00    +0.391 N 
ATOM      2  H   UNL     1       0.702   2.591  -2.114  0.00  0.00    -0.080 HD
ENDROOT
BRANCH   1   3
ATOM      3  C   UNL     1       0.541   2.263  -0.092  0.00  0.00    -0.078 C 
BRANCH   3   5
ATOM      4  C   UNL     1      -1.708   2.001   0.964  0.00  0.00    +0.002 C 
ATOM      5  C   UNL     1      -0.953   2.554  -0.247  0.00  0.00    -0.022 C 
ENDBRANCH   3   5
ENDBRANCH   1   3
BRANCH   1   6
ATOM      6  C   UNL     1       1.410   4.261  -1.148  0.00  0.00    +0.020 C 
BRANCH   6   7
ATOM      7  C   UNL     1       1.631   4.840  -2.521  0.00  0.00    +0.201 C 
ATOM      8  O   UNL     1       1.687   4.108  -3.486  0.00  0.00    -0.278 OA
ATOM      9  N   UNL     1       1.772   6.172  -2.676  0.00  0.00    -0.286 N 
ATOM     10  H   UNL     1       1.813   6.749  -1.897  0.00  0.00    +0.155 HD
BRANCH   9  11
ATOM     11  C   UNL     1       1.858   6.722  -3.960  0.00  0.00    +0.052 A 
ATOM     12  C   UNL     1       1.409   6.000  -5.058  0.00  0.00    +0.025 A 
ATOM     13  C   UNL     1       1.491   6.547  -6.323  0.00  0.00    +0.002 A 
ATOM     14  C   UNL     1       2.028   7.809  -6.500  0.00  0.00    +0.002 A 
ATOM     15  C   UNL     1       2.481   8.529  -5.410  0.00  0.00    +0.022 A 
ATOM     16  C   UNL     1       2.398   7.989  -4.140  0.00  0.00    +0.062 A 
ATOM     17 CL   UNL     1       2.967   8.894  -2.772  0.00  0.00    -0.082 Cl
ENDBRANCH   9  11
ENDBRANCH   6   7
ENDBRANCH   1   6
BRANCH   1  18
ATOM     18  C   UNL     1       2.578   2.154  -1.397  0.00  0.00    +0.020 C 
BRANCH  18  19
ATOM     19  C   UNL     1       2.383   0.700  -1.742  0.00  0.00    +0.201 C 
ATOM     20  O   UNL     1       1.263   0.248  -1.854  0.00  0.00    -0.278 OA
ATOM     21  N   UNL     1       3.453  -0.098  -1.926  0.00  0.00    -0.285 N 
ATOM     22  H   UNL     1       4.346   0.241  -1.756  0.00  0.00    +0.155 HD
BRANCH  21  23
ATOM     23  C   UNL     1       3.276  -1.417  -2.364  0.00  0.00    +0.072 A 
ATOM     24  C   UNL     1       2.089  -1.793  -2.977  0.00  0.00    +0.029 A 
ATOM     25  C   UNL     1       1.917  -3.093  -3.412  0.00  0.00    +0.043 A 
ATOM     26  C   UNL     1       2.924  -4.025  -3.230  0.00  0.00    +0.161 A 
ATOM     27  C   UNL     1       4.109  -3.656  -2.614  0.00  0.00    +0.195 A 
ATOM     28  C   UNL     1       4.288  -2.353  -2.180  0.00  0.00    +0.182 A 
ATOM     29  F   UNL     1       5.443  -1.992  -1.581  0.00  0.00    -0.200 F 
ATOM     30  F   UNL     1       5.091  -4.567  -2.436  0.00  0.00    -0.199 F 
ATOM     31  F   UNL     1       2.750  -5.297  -3.652  0.00  0.00    -0.202 F 
ENDBRANCH  21  23
ENDBRANCH  18  19
ENDBRANCH   1  18
TORSDOF 8
