REMARK  Name = ZINC09359763
REMARK  3 active torsions:
REMARK  status: ('A' for Active; 'I' for Inactive)
REMARK    1  A    between atoms: C_4  and  N_7
REMARK    2  A    between atoms: C_22  and  C_28
REMARK    3  A    between atoms: N_30  and  C_31
REMARK                            x       y       z     vdW  Elec       q    Type
REMARK                         _______ _______ _______ _____ _____    ______ ____
ROOT
ATOM      1  N   UNL     1       2.367   3.915  -0.009  0.00  0.00    -0.210 N 
ATOM      2  C   UNL     1       2.423   5.252  -0.110  0.00  0.00    +0.232 C 
ATOM      3  O   UNL     1       1.482   5.985  -0.322  0.00  0.00    -0.274 OA
ATOM      4  C   UNL     1       3.860   5.691   0.086  0.00  0.00    +0.113 C 
ATOM      5  C   UNL     1       4.286   6.609  -1.061  0.00  0.00    +0.100 C 
ATOM      6  C   UNL     1       5.140   7.745  -0.560  0.00  0.00    -0.021 A 
ATOM      7  C   UNL     1       4.905   8.320   0.667  0.00  0.00    +0.006 A 
ATOM      8  C   UNL     1       5.712   9.354   1.113  0.00  0.00    +0.000 A 
ATOM      9  C   UNL     1       6.755   9.812   0.328  0.00  0.00    +0.001 A 
ATOM     10  C   UNL     1       6.999   9.246  -0.906  0.00  0.00    +0.008 A 
ATOM     11  C   UNL     1       6.189   8.206  -1.365  0.00  0.00    -0.019 A 
ATOM     12  C   UNL     1       6.439   7.598  -2.687  0.00  0.00    +0.022 C 
ATOM     13  C   UNL     1       5.901   6.396  -2.974  0.00  0.00    +0.054 C 
ATOM     14  C   UNL     1       4.998   4.404  -1.642  0.00  0.00    +0.156 C 
ATOM     15  C   UNL     1       4.642   4.364  -0.141  0.00  0.00    +0.118 C 
ATOM     16  C   UNL     1       3.565   3.320   0.085  0.00  0.00    +0.232 C 
ATOM     17  O   UNL     1       3.755   2.144   0.310  0.00  0.00    -0.274 OA
ATOM     18  N   UNL     1       4.788   5.790  -2.134  0.00  0.00    -0.383 NA
ATOM     19  H   UNL     1       4.002   5.716  -2.790  0.00  0.00    +0.127 HD
ENDROOT
BRANCH   1  23
ATOM     20  C   UNL     1      -1.223   1.796   0.031  0.00  0.00    +0.000 A 
ATOM     21  C   UNL     1      -1.238   3.179   0.056  0.00  0.00    +0.002 A 
ATOM     22  C   UNL     1      -0.050   3.883   0.045  0.00  0.00    +0.024 A 
ATOM     23  C   UNL     1       1.159   3.203   0.003  0.00  0.00    +0.044 A 
ATOM     24  C   UNL     1       1.171   1.815  -0.029  0.00  0.00    +0.024 A 
ATOM     25  C   UNL     1      -0.021   1.115  -0.017  0.00  0.00    +0.002 A 
ENDBRANCH   1  23
BRANCH  14  26
ATOM     26  C   UNL     1       3.905   3.757  -2.452  0.00  0.00    +0.237 C 
ATOM     27  O   UNL     1       3.083   4.446  -3.020  0.00  0.00    -0.273 OA
ATOM     28  N   UNL     1       3.840   2.414  -2.546  0.00  0.00    -0.284 N 
ATOM     29  H   UNL     1       4.449   1.862  -2.032  0.00  0.00    +0.155 HD
BRANCH  28  30
ATOM     30  C   UNL     1       2.893   1.817  -3.386  0.00  0.00    +0.034 A 
ATOM     31  C   UNL     1       2.313   0.606  -3.030  0.00  0.00    +0.025 A 
ATOM     32  C   UNL     1       1.375   0.021  -3.859  0.00  0.00    +0.022 A 
ATOM     33  C   UNL     1       1.022   0.635  -5.048  0.00  0.00    +0.041 A 
ATOM     34  C   UNL     1       1.602   1.839  -5.407  0.00  0.00    +0.022 A 
ATOM     35  C   UNL     1       2.536   2.430  -4.580  0.00  0.00    +0.025 A 
ATOM     36 CL   UNL     1      -0.152  -0.106  -6.090  0.00  0.00    -0.084 Cl
ENDBRANCH  28  30
ENDBRANCH  14  26
TORSDOF 3
