REMARK  Name = ZINC02438775
REMARK  6 active torsions:
REMARK  status: ('A' for Active; 'I' for Inactive)
REMARK    1  A    between atoms: C_1  and  C_2
REMARK    2  A    between atoms: C_5  and  S_8
REMARK    3  A    between atoms: S_8  and  C_11
REMARK    4  A    between atoms: N_24  and  C_27
REMARK    5  A    between atoms: C_25  and  N_26
REMARK    6  A    between atoms: C_27  and  C_28
REMARK                            x       y       z     vdW  Elec       q    Type
REMARK                         _______ _______ _______ _____ _____    ______ ____
ROOT
ATOM      1  C   UNL     1      -2.385  -3.967   0.163  0.00  0.00    +0.132 A 
ATOM      2  C   UNL     1      -2.732  -2.661   0.278  0.00  0.00    +0.047 A 
ATOM      3  C   UNL     1      -1.723  -1.686   0.448  0.00  0.00    +0.084 A 
ATOM      4  C   UNL     1      -0.368  -2.072   0.498  0.00  0.00    +0.150 A 
ATOM      5  N   UNL     1       0.569  -1.147   0.659  0.00  0.00    -0.211 NA
ATOM      6  C   UNL     1       0.259   0.144   0.775  0.00  0.00    +0.143 A 
ATOM      7  C   UNL     1       1.294   1.083   0.944  0.00  0.00    +0.047 A 
ATOM      8  C   UNL     1       0.989   2.405   1.063  0.00  0.00    +0.005 A 
ATOM      9  C   UNL     1      -0.352   2.813   1.018  0.00  0.00    +0.018 A 
ATOM     10  C   UNL     1      -1.334   1.899   0.855  0.00  0.00    +0.096 A 
ATOM     11  N   UNL     1      -1.039   0.573   0.734  0.00  0.00    -0.268 N 
ATOM     12  C   UNL     1      -2.045  -0.315   0.572  0.00  0.00    +0.268 A 
ATOM     13  O   UNL     1      -3.205   0.058   0.535  0.00  0.00    -0.267 OA
ATOM     14  N   UNL     1      -0.036  -3.401   0.380  0.00  0.00    -0.308 N 
ATOM     15  C   UNL     1      -1.023  -4.348   0.214  0.00  0.00    +0.124 A 
ENDROOT
BRANCH   1  16
ATOM     16  S   UNL     1      -3.634  -5.192  -0.051  0.00  0.00    +0.028 S 
ATOM     17  O   UNL     1      -4.880  -4.509  -0.030  0.00  0.00    -0.164 OA
ATOM     18  O   UNL     1      -3.226  -6.001  -1.145  0.00  0.00    -0.164 OA
BRANCH  16  23
ATOM     19  C   UNL     1      -3.523  -8.724   4.840  0.00  0.00    +0.044 C 
ATOM     20  C   UNL     1      -3.551  -7.842   3.618  0.00  0.00    -0.050 A 
ATOM     21  C   UNL     1      -4.247  -6.648   3.644  0.00  0.00    +0.005 A 
ATOM     22  C   UNL     1      -4.272  -5.839   2.523  0.00  0.00    +0.027 A 
ATOM     23  C   UNL     1      -3.601  -6.223   1.378  0.00  0.00    +0.094 A 
ATOM     24  C   UNL     1      -2.910  -7.420   1.350  0.00  0.00    +0.027 A 
ATOM     25  C   UNL     1      -2.881  -8.227   2.472  0.00  0.00    +0.005 A 
ENDBRANCH  16  23
ENDBRANCH   1  16
BRANCH  15  26
ATOM     26  N   UNL     1      -0.697  -5.615   0.101  0.00  0.00    -0.343 N 
ATOM     27  H   UNL     1       0.360  -5.917   0.140  0.00  0.00    +0.144 HD
ATOM     28  H   UNL     1      -1.481  -6.375  -0.032  0.00  0.00    +0.144 HD
ENDBRANCH  15  26
BRANCH  14  29
ATOM     29  C   UNL     1       1.370  -3.810   0.430  0.00  0.00    +0.160 C 
BRANCH  29  30
ATOM     30  C   UNL     1       1.758  -4.099   1.858  0.00  0.00    -0.028 A 
ATOM     31  C   UNL     1       2.270  -3.090   2.652  0.00  0.00    +0.007 A 
ATOM     32  C   UNL     1       2.621  -3.353   3.963  0.00  0.00    +0.020 A 
ATOM     33  C   UNL     1       2.471  -4.629   4.476  0.00  0.00    +0.041 A 
ATOM     34  C   UNL     1       1.965  -5.639   3.679  0.00  0.00    +0.020 A 
ATOM     35  C   UNL     1       1.609  -5.374   2.370  0.00  0.00    +0.007 A 
ATOM     36 CL   UNL     1       2.918  -4.961   6.120  0.00  0.00    -0.084 Cl
ENDBRANCH  29  30
ENDBRANCH  14  29
TORSDOF 5
