REMARK  Name = ZINC49305227
REMARK  5 active torsions:
REMARK  status: ('A' for Active; 'I' for Inactive)
REMARK    1  A    between atoms: C_1  and  C_2
REMARK    2  A    between atoms: C_6  and  N_9
REMARK    3  A    between atoms: C_7  and  C_8
REMARK    4  A    between atoms: N_9  and  C_10
REMARK    5  A    between atoms: C_11  and  C_13
REMARK                            x       y       z     vdW  Elec       q    Type
REMARK                         _______ _______ _______ _____ _____    ______ ____
ROOT
ATOM      1  N   UNL     1       0.070  -2.780   2.364  0.00  0.00    -0.269 N 
ATOM      2  C   UNL     1       1.323  -3.159   3.022  0.00  0.00    +0.138 C 
ATOM      3  C   UNL     1      -1.111  -3.117   2.919  0.00  0.00    +0.271 C 
ATOM      4  O   UNL     1      -1.139  -3.654   4.009  0.00  0.00    -0.268 OA
ENDROOT
BRANCH   1  10
ATOM      5  C   UNL     1       0.141   1.528  -0.003  0.00  0.00    +0.044 C 
ATOM      6  C   UNL     1       0.134   0.021  -0.016  0.00  0.00    -0.046 A 
ATOM      7  C   UNL     1       0.157  -0.659  -1.220  0.00  0.00    +0.004 A 
ATOM      8  C   UNL     1       0.151  -2.041  -1.237  0.00  0.00    +0.002 A 
ATOM      9  C   UNL     1       0.122  -2.748  -0.050  0.00  0.00    +0.024 A 
ATOM     10  C   UNL     1       0.100  -2.068   1.161  0.00  0.00    +0.039 A 
ATOM     11  C   UNL     1       0.111  -0.679   1.174  0.00  0.00    -0.026 A 
ATOM     12  C   UNL     1       0.093   0.063   2.486  0.00  0.00    +0.046 C 
ENDBRANCH   1  10
BRANCH   3  13
ATOM     13  C   UNL     1      -2.371  -2.835   2.201  0.00  0.00    +0.155 A 
ATOM     14  C   UNL     1      -3.622  -3.058   2.765  0.00  0.00    +0.155 A 
ATOM     15  N   UNL     1      -4.638  -2.756   1.997  0.00  0.00    -0.198 NA
ATOM     16  S   UNL     1      -3.972  -2.215   0.630  0.00  0.00    +0.116 S 
ATOM     17  N   UNL     1      -2.400  -2.343   0.974  0.00  0.00    -0.186 NA
ENDBRANCH   3  13
TORSDOF 2
