REMARK  Name = ZINC02753584
REMARK  8 active torsions:
REMARK  status: ('A' for Active; 'I' for Inactive)
REMARK    1  A    between atoms: C_1  and  C_2
REMARK    2  A    between atoms: C_3  and  C_8
REMARK    3  A    between atoms: N_5  and  C_7
REMARK    4  A    between atoms: C_8  and  N_9
REMARK    5  A    between atoms: N_9  and  C_10
REMARK    6  A    between atoms: C_11  and  C_13
REMARK    7  A    between atoms: C_19  and  C_26
REMARK    8  A    between atoms: C_21  and  C_22
REMARK                            x       y       z     vdW  Elec       q    Type
REMARK                         _______ _______ _______ _____ _____    ______ ____
ROOT
ATOM      1  C   UNL     1      -3.555   1.888   2.767  0.00  0.00    +0.101 A 
ATOM      2  C   UNL     1      -3.406   3.032   3.571  0.00  0.00    +0.150 A 
ATOM      3  N   UNL     1      -4.292   2.990   4.531  0.00  0.00    -0.172 NA
ATOM      4  N   UNL     1      -5.061   1.828   4.407  0.00  0.00    -0.209 N 
ATOM      5  C   UNL     1      -4.617   1.139   3.314  0.00  0.00    +0.169 A 
ATOM      6  N   UNL     1      -5.180  -0.014   2.956  0.00  0.00    -0.227 NA
ATOM      7  C   UNL     1      -6.187  -0.520   3.650  0.00  0.00    +0.075 A 
ATOM      8  C   UNL     1      -6.674   0.165   4.783  0.00  0.00    +0.060 A 
ATOM      9  C   UNL     1      -6.095   1.333   5.149  0.00  0.00    +0.149 A 
ENDROOT
BRANCH   7  10
ATOM     10  C   UNL     1      -6.801  -1.803   3.238  0.00  0.00    +0.001 A 
ATOM     11  C   UNL     1      -7.859  -2.340   3.972  0.00  0.00    +0.011 A 
ATOM     12  C   UNL     1      -8.431  -3.533   3.580  0.00  0.00    +0.016 A 
ATOM     13  C   UNL     1      -7.950  -4.202   2.468  0.00  0.00    +0.018 A 
ATOM     14  C   UNL     1      -6.896  -3.677   1.739  0.00  0.00    +0.016 A 
ATOM     15  C   UNL     1      -6.321  -2.482   2.118  0.00  0.00    +0.011 A 
ATOM     16 BR   UNL     1      -8.734  -5.841   1.942  0.00  0.00    -0.050 Br
ENDBRANCH   7  10
BRANCH   1  19
ATOM     17  N   UNL     1      -1.667   2.262   1.274  0.00  0.00    -0.296 N 
ATOM     18  C   UNL     1      -1.201   3.315   2.180  0.00  0.00    +0.132 C 
ATOM     19  C   UNL     1      -2.764   1.543   1.583  0.00  0.00    +0.252 C 
ATOM     20  O   UNL     1      -3.096   0.607   0.880  0.00  0.00    -0.270 OA
BRANCH  17  21
ATOM     21  C   UNL     1      -0.940   1.992   0.030  0.00  0.00    +0.146 C 
BRANCH  21  24
ATOM     22  C   UNL     1      -1.125  -1.163   0.261  0.00  0.00    +0.068 C 
ATOM     23  C   UNL     1       0.126  -0.337   0.412  0.00  0.00    +0.065 A 
ATOM     24  C   UNL     1       0.206   1.056   0.312  0.00  0.00    +0.010 A 
ATOM     25  C   UNL     1       1.497   1.413   0.507  0.00  0.00    +0.113 A 
ATOM     26  N   UNL     1       2.208   0.287   0.723  0.00  0.00    -0.274 N 
ATOM     27  N   UNL     1       1.325  -0.799   0.658  0.00  0.00    -0.176 NA
ATOM     28  C   UNL     1       3.648   0.212   0.980  0.00  0.00    +0.172 C 
ENDBRANCH  21  24
ENDBRANCH  17  21
ENDBRANCH   1  19
BRANCH   9  29
ATOM     29  C   UNL     1      -6.597   2.087   6.354  0.00  0.00    +0.434 C 
ATOM     30  F   UNL     1      -7.610   2.969   5.964  0.00  0.00    -0.164 F 
ATOM     31  F   UNL     1      -7.103   1.182   7.293  0.00  0.00    -0.164 F 
ATOM     32  F   UNL     1      -5.543   2.809   6.924  0.00  0.00    -0.164 F 
ENDBRANCH   9  29
TORSDOF 5
