REMARK  Name = ZINC10271898
REMARK  9 active torsions:
REMARK  status: ('A' for Active; 'I' for Inactive)
REMARK    1  A    between atoms: C_1  and  C_2
REMARK    2  A    between atoms: C_5  and  N_9
REMARK    3  A    between atoms: C_10  and  C_31
REMARK    4  A    between atoms: C_11  and  C_30
REMARK    5  A    between atoms: N_19  and  C_24
REMARK    6  A    between atoms: N_22  and  C_23
REMARK    7  A    between atoms: C_24  and  C_26
REMARK    8  A    between atoms: C_24  and  C_27
REMARK    9  A    between atoms: C_27  and  C_29
REMARK                            x       y       z     vdW  Elec       q    Type
REMARK                         _______ _______ _______ _____ _____    ______ ____
ROOT
ATOM      1  N   UNL     1      -3.518   0.876   6.214  0.00  0.00    -0.282 N 
ATOM      2  C   UNL     1      -3.410  -0.493   6.047  0.00  0.00    +0.043 A 
ATOM      3  C   UNL     1      -2.763  -0.722   4.908  0.00  0.00    +0.044 A 
ATOM      4  N   UNL     1      -2.450   0.496   4.331  0.00  0.00    -0.274 N 
ATOM      5  C   UNL     1      -2.916   1.478   5.138  0.00  0.00    +0.223 A 
ATOM      6  N   UNL     1      -2.627   2.656   4.606  0.00  0.00    -0.193 NA
ATOM      7  C   UNL     1      -1.976   2.488   3.458  0.00  0.00    +0.170 A 
ATOM      8  C   UNL     1      -1.844   1.116   3.249  0.00  0.00    +0.157 A 
ATOM      9  C   UNL     1      -1.191   0.660   2.091  0.00  0.00    +0.283 A 
ATOM     10  O   UNL     1      -1.068  -0.534   1.884  0.00  0.00    -0.265 OA
ATOM     11  N   UNL     1      -0.698   1.558   1.213  0.00  0.00    -0.249 N 
ATOM     12  C   UNL     1      -0.831   2.879   1.424  0.00  0.00    +0.334 A 
ATOM     13  O   UNL     1      -0.378   3.658   0.607  0.00  0.00    -0.246 OA
ATOM     14  N   UNL     1      -1.453   3.361   2.516  0.00  0.00    -0.279 N 
ATOM     15  C   UNL     1      -1.577   4.808   2.710  0.00  0.00    +0.155 C 
ATOM     16  C   UNL     1      -2.429  -2.078   4.340  0.00  0.00    +0.066 C 
ATOM     17  C   UNL     1      -3.934  -1.544   6.992  0.00  0.00    +0.066 C 
ENDROOT
BRANCH   1  22
ATOM     18  C   UNL     1      -6.010   3.528  10.569  0.00  0.00    +0.045 C 
ATOM     19  C   UNL     1      -5.348   2.823   9.412  0.00  0.00    -0.032 A 
ATOM     20  C   UNL     1      -5.878   2.938   8.140  0.00  0.00    +0.007 A 
ATOM     21  C   UNL     1      -5.274   2.294   7.078  0.00  0.00    +0.026 A 
ATOM     22  C   UNL     1      -4.133   1.530   7.289  0.00  0.00    +0.051 A 
ATOM     23  C   UNL     1      -3.607   1.411   8.568  0.00  0.00    +0.046 A 
ATOM     24  C   UNL     1      -4.212   2.063   9.626  0.00  0.00    +0.046 A 
ATOM     25 CL   UNL     1      -3.550   1.922  11.225  0.00  0.00    -0.083 Cl
ENDBRANCH   1  22
BRANCH  11  26
ATOM     26  C   UNL     1      -0.013   1.086   0.008  0.00  0.00    +0.158 C 
ATOM     27  C   UNL     1      -0.753   1.593  -1.232  0.00  0.00    +0.039 C 
BRANCH  26  28
ATOM     28  C   UNL     1       1.401   1.607  -0.003  0.00  0.00    +0.153 C 
ATOM     29  O   UNL     1       1.719   2.506   0.739  0.00  0.00    -0.296 OA
ATOM     30  C   UNL     1       2.419   1.007  -0.939  0.00  0.00    +0.088 C 
ENDBRANCH  26  28
ENDBRANCH  11  26
TORSDOF 3
