REMARK  Name = ZINC02275270
REMARK  5 active torsions:
REMARK  status: ('A' for Active; 'I' for Inactive)
REMARK    1  A    between atoms: C_1  and  N_2
REMARK    2  A    between atoms: N_2  and  C_3
REMARK    3  A    between atoms: N_2  and  C_4
REMARK    4  A    between atoms: C_7  and  C_12
REMARK    5  A    between atoms: N_13  and  N_14
REMARK                            x       y       z     vdW  Elec       q    Type
REMARK                         _______ _______ _______ _____ _____    ______ ____
ROOT
ATOM      1  N   UNL     1      -3.423   2.443   0.050  0.00  0.00    -0.184 N 
ATOM      2  C   UNL     1      -2.997   3.733   0.047  0.00  0.00    +0.227 A 
ATOM      3  N   UNL     1      -1.730   4.039   0.036  0.00  0.00    -0.233 NA
ATOM      4  C   UNL     1      -0.783   3.085   0.028  0.00  0.00    +0.103 A 
ATOM      5  C   UNL     1       0.686   3.111   0.017  0.00  0.00    +0.027 A 
ATOM      6  C   UNL     1       1.629   4.140   0.010  0.00  0.00    +0.027 A 
ATOM      7  C   UNL     1       2.972   3.836  -0.000  0.00  0.00    +0.019 A 
ATOM      8  C   UNL     1       3.390   2.512  -0.003  0.00  0.00    +0.017 A 
ATOM      9  C   UNL     1       2.472   1.486   0.003  0.00  0.00    +0.027 A 
ATOM     10  C   UNL     1       1.109   1.771   0.013  0.00  0.00    +0.049 A 
ATOM     11  N   UNL     1      -0.011   0.966   0.022  0.00  0.00    -0.349 N 
ATOM     12  H   UNL     1       0.002  -0.004   0.022  0.00  0.00    +0.166 HD
ATOM     13  C   UNL     1      -1.154   1.742   0.025  0.00  0.00    +0.133 A 
ATOM     14  C   UNL     1      -2.532   1.428   0.043  0.00  0.00    +0.298 A 
ATOM     15  O   UNL     1      -2.908   0.268   0.046  0.00  0.00    -0.263 OA
ATOM     16 BR   UNL     1       4.252   5.228  -0.009  0.00  0.00    -0.050 Br
ENDROOT
BRANCH   1  18
ATOM     17  C   UNL     1      -5.655   3.133   0.173  0.00  0.00    +0.147 C 
ATOM     18  N   UNL     1      -4.796   2.164   0.061  0.00  0.00    -0.170 NA
BRANCH  17  22
ATOM     19  C   UNL     1      -9.799   2.267   0.529  0.00  0.00    +0.106 A 
ATOM     20  C   UNL     1      -9.364   3.589   0.532  0.00  0.00    +0.183 A 
ATOM     21  C   UNL     1      -8.018   3.875   0.416  0.00  0.00    +0.172 A 
ATOM     22  C   UNL     1      -7.090   2.833   0.296  0.00  0.00    +0.071 A 
ATOM     23  C   UNL     1      -7.534   1.504   0.287  0.00  0.00    +0.172 A 
ATOM     24  C   UNL     1      -8.881   1.228   0.409  0.00  0.00    +0.183 A 
ATOM     25  F   UNL     1      -9.309  -0.054   0.406  0.00  0.00    -0.200 F 
ATOM     26  F   UNL     1      -6.644   0.495   0.166  0.00  0.00    -0.202 F 
ATOM     27  F   UNL     1      -7.597   5.159   0.419  0.00  0.00    -0.202 F 
ATOM     28  F   UNL     1     -10.260   4.593   0.649  0.00  0.00    -0.200 F 
BRANCH  19  30
ATOM     29  C   UNL     1     -11.647   1.242  -0.527  0.00  0.00    +0.129 C 
ATOM     30  N   UNL     1     -11.161   1.982   0.646  0.00  0.00    -0.331 N 
ATOM     31  C   UNL     1     -11.440   1.245   1.885  0.00  0.00    +0.129 C 
ENDBRANCH  19  30
ENDBRANCH  17  22
ENDBRANCH   1  18
TORSDOF 3
