REMARK  Name = ZINC27802136
REMARK  7 active torsions:
REMARK  status: ('A' for Active; 'I' for Inactive)
REMARK    1  A    between atoms: C_3  and  C_6
REMARK    2  A    between atoms: C_6  and  N_7
REMARK    3  A    between atoms: N_10  and  C_11
REMARK    4  A    between atoms: C_14  and  N_17
REMARK    5  A    between atoms: N_17  and  S_18
REMARK    6  A    between atoms: S_18  and  C_21
REMARK    7  A    between atoms: C_25  and  N_27
REMARK                            x       y       z     vdW  Elec       q    Type
REMARK                         _______ _______ _______ _____ _____    ______ ____
ROOT
ATOM      1  C   UNL     1       1.195   1.900   0.139  0.00  0.00    +0.035 A 
ATOM      2  C   UNL     1       0.017   1.179  -0.007  0.00  0.00    +0.025 A 
ATOM      3  C   UNL     1       0.055  -0.199  -0.083  0.00  0.00    +0.026 A 
ATOM      4  C   UNL     1       1.272  -0.864  -0.015  0.00  0.00    +0.048 A 
ATOM      5  C   UNL     1       2.450  -0.143   0.131  0.00  0.00    +0.026 A 
ATOM      6  C   UNL     1       2.412   1.235   0.207  0.00  0.00    +0.025 A 
ENDROOT
BRANCH   1  10
ATOM      7  N   UNL     1       0.019   5.257   0.787  0.00  0.00    -0.292 N 
ATOM      8  C   UNL     1       0.109   3.912   0.804  0.00  0.00    +0.304 C 
ATOM      9  O   UNL     1      -0.755   3.252   1.349  0.00  0.00    -0.252 OA
ATOM     10  N   UNL     1       1.155   3.299   0.216  0.00  0.00    -0.269 N 
ATOM     11  H   UNL     1       0.801   5.854   0.294  0.00  0.00    +0.151 HD
ATOM     12  H   UNL     1       1.979   3.896  -0.202  0.00  0.00    +0.156 HD
BRANCH   7  13
ATOM     13  C   UNL     1      -1.118   5.924   1.425  0.00  0.00    +0.180 C 
BRANCH  13  16
ATOM     14  C   UNL     1      -1.107   9.491   0.498  0.00  0.00    +0.041 A 
ATOM     15  C   UNL     1      -1.463   8.146   0.245  0.00  0.00    +0.046 A 
ATOM     16  C   UNL     1      -0.980   7.416   1.266  0.00  0.00    +0.122 A 
ATOM     17  O   UNL     1      -0.359   8.243   2.123  0.00  0.00    -0.466 OA
ATOM     18  C   UNL     1      -0.427   9.502   1.659  0.00  0.00    +0.195 A 
ENDBRANCH  13  16
ENDBRANCH   7  13
ENDBRANCH   1  10
BRANCH   4  19
ATOM     19  N   UNL     1       1.312  -2.260  -0.093  0.00  0.00    -0.216 N 
ATOM     20  H   UNL     1       0.610  -2.865   0.501  0.00  0.00    +0.174 HD
BRANCH  19  21
ATOM     21  S   UNL     1       2.414  -3.004  -1.080  0.00  0.00    +0.072 S 
ATOM     22  O   UNL     1       3.686  -2.465  -0.747  0.00  0.00    -0.150 OA
ATOM     23  O   UNL     1       2.138  -4.396  -1.022  0.00  0.00    -0.150 OA
BRANCH  21  24
ATOM     24  C   UNL     1       2.067  -2.490  -2.729  0.00  0.00    +0.111 A 
ATOM     25  C   UNL     1       1.108  -3.155  -3.472  0.00  0.00    +0.033 A 
ATOM     26  C   UNL     1       0.829  -2.751  -4.763  0.00  0.00    +0.055 A 
ATOM     27  C   UNL     1       1.520  -1.684  -5.319  0.00  0.00    +0.209 A 
ATOM     28  C   UNL     1       2.486  -1.022  -4.574  0.00  0.00    +0.174 A 
ATOM     29  C   UNL     1       2.756  -1.427  -3.281  0.00  0.00    +0.065 A 
ATOM     30  O   UNL     1       1.253  -1.288  -6.591  0.00  0.00    -0.285 OA
BRANCH  28  31
ATOM     31  N   UNL     1       3.224   0.117  -5.164  0.00  0.00    +0.060 N 
ATOM     32  O   UNL     1       4.071   0.698  -4.510  0.00  0.00    -0.126 OA
ATOM     33  O   UNL     1       2.985   0.473  -6.304  0.00  0.00    -0.126 OA
ENDBRANCH  28  31
ENDBRANCH  21  24
ENDBRANCH  19  21
ENDBRANCH   4  19
TORSDOF 7
