REMARK  Name = ZINC14832067
REMARK  15 active torsions:
REMARK  status: ('A' for Active; 'I' for Inactive)
REMARK    1  A    between atoms: C_1  and  C_2
REMARK    2  A    between atoms: C_2  and  C_3
REMARK    3  A    between atoms: C_3  and  C_4
REMARK    4  A    between atoms: C_4  and  C_5
REMARK    5  A    between atoms: C_5  and  C_6
REMARK    6  A    between atoms: C_6  and  O_7
REMARK    7  A    between atoms: O_7  and  C_8
REMARK    8  A    between atoms: C_12  and  N_14
REMARK    9  A    between atoms: C_15  and  C_17
REMARK   10  A    between atoms: C_17  and  O_18
REMARK   11  A    between atoms: O_18  and  C_19
REMARK   12  A    between atoms: C_22  and  C_26
REMARK   13  A    between atoms: C_26  and  C_28
REMARK   14  A    between atoms: C_26  and  C_29
REMARK   15  A    between atoms: C_29  and  C_30
REMARK                            x       y       z     vdW  Elec       q    Type
REMARK                         _______ _______ _______ _____ _____    ______ ____
ROOT
ATOM      1  N   UNL     1      -0.064   5.245   0.029  0.00  0.00    -0.283 N 
ATOM      2  C   UNL     1       1.092   5.931   0.124  0.00  0.00    +0.255 C 
ATOM      3  O   UNL     1       2.151   5.339   0.111  0.00  0.00    -0.272 OA
ATOM      4  H   UNL     1      -0.906   5.721  -0.037  0.00  0.00    +0.155 HD
ENDROOT
BRANCH   1   9
ATOM      5  C   UNL     1      -0.969   1.756  -0.714  0.00  0.00    +0.122 A 
ATOM      6  C   UNL     1      -0.015   1.076   0.030  0.00  0.00    +0.046 A 
ATOM      7  C   UNL     1       0.920   1.778   0.765  0.00  0.00    +0.005 A 
ATOM      8  C   UNL     1       0.906   3.160   0.766  0.00  0.00    +0.023 A 
ATOM      9  C   UNL     1      -0.050   3.846   0.028  0.00  0.00    +0.037 A 
ATOM     10  C   UNL     1      -0.990   3.142  -0.711  0.00  0.00    +0.069 A 
BRANCH   5  11
ATOM     11  O   UNL     1      -1.885   1.064  -1.442  0.00  0.00    -0.492 OA
BRANCH  11  12
ATOM     12  C   UNL     1      -1.807  -0.362  -1.395  0.00  0.00    +0.229 C 
BRANCH  12  13
ATOM     13  C   UNL     1      -2.910  -0.962  -2.269  0.00  0.00    +0.041 C 
BRANCH  13  14
ATOM     14  C   UNL     1      -2.827  -2.489  -2.219  0.00  0.00    +0.003 C 
BRANCH  14  15
ATOM     15  C   UNL     1      -3.930  -3.089  -3.094  0.00  0.00    -0.000 C 
BRANCH  15  17
ATOM     16  C   UNL     1      -4.949  -5.216  -3.917  0.00  0.00    +0.004 C 
ATOM     17  C   UNL     1      -3.846  -4.616  -3.043  0.00  0.00    -0.003 C 
ENDBRANCH  15  17
ENDBRANCH  14  15
ENDBRANCH  13  14
ENDBRANCH  12  13
ENDBRANCH  11  12
ENDBRANCH   5  11
ENDBRANCH   1   9
BRANCH   2  18
ATOM     18  C   UNL     1       1.070   7.433   0.245  0.00  0.00    +0.324 C 
BRANCH  18  19
ATOM     19  O   UNL     1       2.409   7.924   0.330  0.00  0.00    -0.482 OA
BRANCH  19  20
ATOM     20  C   UNL     1       2.567   9.269   0.444  0.00  0.00    +0.135 A 
ATOM     21  C   UNL     1       1.456  10.099   0.469  0.00  0.00    +0.047 A 
ATOM     22  C   UNL     1       1.619  11.466   0.592  0.00  0.00    +0.007 A 
ATOM     23  C   UNL     1       2.888  12.007   0.678  0.00  0.00    -0.043 A 
ATOM     24  C   UNL     1       3.998  11.183   0.648  0.00  0.00    +0.022 A 
ATOM     25  C   UNL     1       3.840   9.815   0.531  0.00  0.00    +0.060 A 
ATOM     26 BR   UNL     1       5.358   8.687   0.490  0.00  0.00    -0.047 Br
BRANCH  23  27
ATOM     27  C   UNL     1       3.063  13.499   0.805  0.00  0.00    +0.016 C 
ATOM     28  C   UNL     1       2.364  13.988   2.075  0.00  0.00    +0.012 C 
BRANCH  27  29
ATOM     29  C   UNL     1       2.447  14.190  -0.413  0.00  0.00    +0.004 C 
ATOM     30  C   UNL     1       2.733  15.691  -0.347  0.00  0.00    +0.004 C 
ENDBRANCH  27  29
ENDBRANCH  23  27
ENDBRANCH  19  20
ENDBRANCH  18  19
ENDBRANCH   2  18
TORSDOF 12
