REMARK  Name = ZINC11634708
REMARK  4 active torsions:
REMARK  status: ('A' for Active; 'I' for Inactive)
REMARK    1  A    between atoms: C_1  and  C_2
REMARK    2  A    between atoms: C_12  and  C_14
REMARK    3  A    between atoms: C_17  and  S_20
REMARK    4  A    between atoms: S_20  and  N_23
REMARK                            x       y       z     vdW  Elec       q    Type
REMARK                         _______ _______ _______ _____ _____    ______ ____
ROOT
ATOM      1  C   UNL     1       1.254   2.100   0.001  0.00  0.00    +0.037 A 
ATOM      2  C   UNL     1       2.474   1.421  -0.008  0.00  0.00    +0.015 A 
ATOM      3  C   UNL     1       3.655   2.134  -0.021  0.00  0.00    +0.029 A 
ATOM      4  C   UNL     1       3.633   3.517  -0.013  0.00  0.00    +0.106 A 
ATOM      5  C   UNL     1       2.427   4.196   0.001  0.00  0.00    +0.029 A 
ATOM      6  C   UNL     1       1.238   3.496   0.009  0.00  0.00    +0.015 A 
ENDROOT
BRANCH   1  18
ATOM      7  C   UNL     1      -1.839  -4.979  -0.009  0.00  0.00    +0.046 C 
ATOM      8  C   UNL     1      -2.935  -3.945   0.008  0.00  0.00    -0.024 A 
ATOM      9  C   UNL     1      -4.245  -4.348   0.018  0.00  0.00    +0.007 A 
ATOM     10  C   UNL     1      -5.286  -3.430   0.033  0.00  0.00    +0.021 A 
ATOM     11  C   UNL     1      -4.995  -2.077   0.037  0.00  0.00    +0.057 A 
ATOM     12  C   UNL     1      -3.686  -1.665   0.027  0.00  0.00    +0.059 A 
ATOM     13  C   UNL     1      -2.601  -2.571   0.013  0.00  0.00    +0.085 A 
ATOM     14  N   UNL     1      -1.372  -2.012  -0.001  0.00  0.00    -0.224 NA
ATOM     15  C   UNL     1      -1.187  -0.713   0.010  0.00  0.00    +0.166 A 
ATOM     16  S   UNL     1      -2.863  -0.090   0.028  0.00  0.00    -0.051 S 
ATOM     17  N   UNL     1       0.002  -0.004   0.002  0.00  0.00    -0.261 N 
ATOM     18  C   UNL     1      -0.016   1.344   0.009  0.00  0.00    +0.250 C 
ATOM     19  O   UNL     1      -1.077   1.937   0.018  0.00  0.00    -0.270 OA
ATOM     20 CL   UNL     1      -6.279  -0.908   0.055  0.00  0.00    -0.082 Cl
ATOM     21  H   UNL     1       0.849  -0.478  -0.009  0.00  0.00    +0.157 HD
ENDBRANCH   1  18
BRANCH   4  22
ATOM     22  S   UNL     1       5.146   4.419  -0.022  0.00  0.00    +0.061 S 
ATOM     23  O   UNL     1       6.128   3.560  -0.587  0.00  0.00    -0.153 OA
ATOM     24  O   UNL     1       4.853   5.699  -0.563  0.00  0.00    -0.153 OA
BRANCH  22  25
ATOM     25  N   UNL     1       5.581   4.660   1.558  0.00  0.00    -0.172 NA
ATOM     26  C   UNL     1       5.144   5.855   2.298  0.00  0.00    +0.114 C 
ATOM     27  C   UNL     1       4.236   5.387   3.441  0.00  0.00    +0.052 C 
ATOM     28  C   UNL     1       4.864   4.240   4.188  0.00  0.00    -0.042 A 
ATOM     29  C   UNL     1       4.399   3.975   5.470  0.00  0.00    +0.004 A 
ATOM     30  C   UNL     1       4.922   2.932   6.205  0.00  0.00    +0.000 A 
ATOM     31  C   UNL     1       5.918   2.141   5.663  0.00  0.00    +0.000 A 
ATOM     32  C   UNL     1       6.385   2.404   4.392  0.00  0.00    +0.005 A 
ATOM     33  C   UNL     1       5.861   3.456   3.652  0.00  0.00    -0.028 A 
ATOM     34  C   UNL     1       6.423   3.695   2.273  0.00  0.00    +0.144 C 
ENDBRANCH  22  25
ENDBRANCH   4  22
TORSDOF 3
