REMARK  Name = ZINC21299512
REMARK  9 active torsions:
REMARK  status: ('A' for Active; 'I' for Inactive)
REMARK    1  A    between atoms: C_1  and  C_2
REMARK    2  A    between atoms: C_5  and  S_8
REMARK    3  A    between atoms: S_8  and  C_11
REMARK    4  A    between atoms: C_11  and  C_13
REMARK    5  A    between atoms: C_11  and  O_34
REMARK    6  A    between atoms: C_15  and  O_33
REMARK    7  A    between atoms: C_17  and  O_32
REMARK    8  A    between atoms: C_19  and  N_22
REMARK    9  A    between atoms: C_30  and  N_31
REMARK                            x       y       z     vdW  Elec       q    Type
REMARK                         _______ _______ _______ _____ _____    ______ ____
ROOT
ATOM      1  C   UNL     1       5.995  -3.180  -0.071  0.00  0.00    +0.203 C 
ATOM      2  C   UNL     1       5.234  -3.530  -1.365  0.00  0.00    +0.180 C 
ATOM      3  C   UNL     1       4.177  -2.407  -1.499  0.00  0.00    +0.195 C 
ATOM      4  C   UNL     1       4.082  -1.875  -0.047  0.00  0.00    +0.253 C 
ATOM      5  O   UNL     1       5.442  -1.951   0.433  0.00  0.00    -0.344 OA
ENDROOT
BRANCH   4   6
ATOM      6  N   UNL     1       3.608  -0.489  -0.035  0.00  0.00    -0.286 N 
ATOM      7  C   UNL     1       4.387   0.630  -0.036  0.00  0.00    +0.203 A 
ATOM      8  N   UNL     1       3.638   1.694  -0.024  0.00  0.00    -0.231 NA
ATOM      9  C   UNL     1       2.334   1.327  -0.013  0.00  0.00    +0.147 A 
ATOM     10  C   UNL     1       2.299  -0.078  -0.020  0.00  0.00    +0.167 A 
ATOM     11  N   UNL     1       1.122  -0.696  -0.012  0.00  0.00    -0.216 NA
ATOM     12  C   UNL     1       0.002  -0.004   0.002  0.00  0.00    +0.225 A 
ATOM     13  N   UNL     1      -0.016   1.316   0.009  0.00  0.00    -0.219 NA
ATOM     14  C   UNL     1       1.112   2.020   0.002  0.00  0.00    +0.147 A 
BRANCH  14  15
ATOM     15  N   UNL     1       1.083   3.404   0.009  0.00  0.00    -0.341 N 
ATOM     16  H   UNL     1       0.119   3.933   0.022  0.00  0.00    +0.144 HD
ATOM     17  H   UNL     1       2.024   3.973   0.003  0.00  0.00    +0.144 HD
ENDBRANCH  14  15
ENDBRANCH   4   6
BRANCH   3  18
ATOM     18  O   UNL     1       2.922  -2.936  -1.932  0.00  0.00    -0.385 OA
ATOM     19  H   UNL     1       2.063  -2.264  -2.076  0.00  0.00    +0.210 HD
ENDBRANCH   3  18
BRANCH   2  20
ATOM     20  O   UNL     1       4.597  -4.804  -1.241  0.00  0.00    -0.386 OA
ATOM     21  H   UNL     1       4.008  -5.208  -2.078  0.00  0.00    +0.210 HD
ENDBRANCH   2  20
BRANCH   1  22
ATOM     22  C   UNL     1       7.483  -2.996  -0.377  0.00  0.00    +0.293 C 
BRANCH  22  23
ATOM     23  S   UNL     1       8.367  -2.584   1.153  0.00  0.00    +0.026 S 
ATOM     24  O   UNL     1       7.980  -1.296   1.610  0.00  0.00    -0.167 OA
ATOM     25  O   UNL     1       8.364  -3.698   2.035  0.00  0.00    -0.167 OA
BRANCH  23  30
ATOM     26  C   UNL     1      14.133  -1.956  -0.512  0.00  0.00    +0.044 C 
ATOM     27  C   UNL     1      12.693  -2.113  -0.096  0.00  0.00    -0.050 A 
ATOM     28  C   UNL     1      11.846  -1.021  -0.112  0.00  0.00    +0.005 A 
ATOM     29  C   UNL     1      10.525  -1.165   0.269  0.00  0.00    +0.027 A 
ATOM     30  C   UNL     1      10.051  -2.401   0.666  0.00  0.00    +0.091 A 
ATOM     31  C   UNL     1      10.899  -3.492   0.686  0.00  0.00    +0.027 A 
ATOM     32  C   UNL     1      12.219  -3.350   0.300  0.00  0.00    +0.005 A 
ENDBRANCH  23  30
ENDBRANCH  22  23
BRANCH  22  33
ATOM     33  O   UNL     1       8.010  -4.207  -0.921  0.00  0.00    -0.369 OA
ATOM     34  H   UNL     1       7.596  -4.617  -1.854  0.00  0.00    +0.212 HD
ENDBRANCH  22  33
ENDBRANCH   1  22
TORSDOF 8
