REMARK  Name = ZINC44645830
REMARK  7 active torsions:
REMARK  status: ('A' for Active; 'I' for Inactive)
REMARK    1  A    between atoms: C_1  and  C_2
REMARK    2  A    between atoms: C_2  and  C_4
REMARK    3  A    between atoms: C_2  and  S_15
REMARK    4  A    between atoms: C_4  and  C_6
REMARK    5  A    between atoms: S_15  and  C_16
REMARK    6  A    between atoms: N_30  and  C_31
REMARK    7  A    between atoms: C_31  and  C_32
REMARK                            x       y       z     vdW  Elec       q    Type
REMARK                         _______ _______ _______ _____ _____    ______ ____
ROOT
ATOM      1  C   UNL     1      -0.166  -0.072   2.855  0.00  0.00    +0.243 C 
ATOM      2  N   UNL     1      -1.533  -0.595   2.702  0.00  0.00    -0.236 N 
ATOM      3  N   UNL     1      -2.369   0.521   2.608  0.00  0.00    -0.152 NA
ATOM      4  C   UNL     1      -1.702   1.634   2.682  0.00  0.00    +0.214 C 
ATOM      5  N   UNL     1      -0.342   1.389   2.837  0.00  0.00    -0.242 N 
ATOM      6  C   UNL     1       0.571   2.427   2.941  0.00  0.00    +0.051 A 
ATOM      7  C   UNL     1       1.927   2.176   3.093  0.00  0.00    +0.024 A 
ATOM      8  C   UNL     1       2.814   3.229   3.193  0.00  0.00    +0.002 A 
ATOM      9  C   UNL     1       2.362   4.539   3.144  0.00  0.00    +0.001 A 
ATOM     10  C   UNL     1       1.018   4.807   2.993  0.00  0.00    +0.015 A 
ATOM     11  C   UNL     1       0.112   3.753   2.890  0.00  0.00    +0.059 A 
ATOM     12  C   UNL     1      -1.332   3.998   2.727  0.00  0.00    +0.255 C 
ATOM     13  O   UNL     1      -1.762   5.135   2.679  0.00  0.00    -0.269 OA
ATOM     14  N   UNL     1      -2.177   2.945   2.628  0.00  0.00    -0.235 N 
ATOM     15  H   UNL     1      -1.800  -1.527   2.673  0.00  0.00    +0.171 HD
ENDROOT
BRANCH   1  16
ATOM     16  S   UNL     1       0.879  -0.605   1.472  0.00  0.00    -0.107 S 
BRANCH  16  18
ATOM     17  C   UNL     1      -0.019   1.526   0.010  0.00  0.00    +0.027 C 
ATOM     18  C   UNL     1       0.002  -0.004   0.002  0.00  0.00    +0.117 C 
BRANCH  18  19
ATOM     19  C   UNL     1       0.707  -0.490  -1.238  0.00  0.00    +0.174 C 
ATOM     20  O   UNL     1       1.890  -0.763  -1.196  0.00  0.00    -0.291 OA
BRANCH  19  21
ATOM     21  C   UNL     1      -0.006  -0.628  -2.447  0.00  0.00    +0.024 C 
ATOM     22  C   UNL     1       0.486  -1.063  -3.664  0.00  0.00    +0.006 A 
ATOM     23  C   UNL     1       1.769  -1.486  -4.088  0.00  0.00    +0.010 A 
ATOM     24  C   UNL     1       1.972  -1.866  -5.369  0.00  0.00    +0.001 A 
ATOM     25  C   UNL     1       0.946  -1.863  -6.328  0.00  0.00    +0.002 A 
ATOM     26  C   UNL     1      -0.313  -1.478  -6.027  0.00  0.00    +0.026 A 
ATOM     27  C   UNL     1      -0.620  -1.048  -4.653  0.00  0.00    +0.043 A 
ATOM     28  N   UNL     1      -1.723  -0.635  -4.097  0.00  0.00    -0.380 N 
ATOM     29  C   UNL     1      -1.472  -0.337  -2.683  0.00  0.00    +0.152 C 
ATOM     30  H   UNL     1      -2.577  -0.542  -4.546  0.00  0.00    +0.160 HD
ENDBRANCH  19  21
ENDBRANCH  18  19
ENDBRANCH  16  18
ENDBRANCH   1  16
BRANCH  14  31
ATOM     31  C   UNL     1      -3.614   3.182   2.467  0.00  0.00    +0.143 C 
BRANCH  31  32
ATOM     32  C   UNL     1      -4.265   3.264   3.823  0.00  0.00    -0.015 C 
ATOM     33  C   UNL     1      -4.976   4.316   4.146  0.00  0.00    +0.005 C 
ENDBRANCH  31  32
ENDBRANCH  14  31
TORSDOF 6
