REMARK  Name = ZINC04767760
REMARK  9 active torsions:
REMARK  status: ('A' for Active; 'I' for Inactive)
REMARK    1  A    between atoms: C_1  and  C_2
REMARK    2  A    between atoms: C_5  and  N_8
REMARK    3  A    between atoms: C_17  and  C_23
REMARK    4  A    between atoms: C_23  and  N_24
REMARK    5  A    between atoms: N_24  and  C_25
REMARK    6  A    between atoms: C_25  and  N_27
REMARK    7  A    between atoms: N_30  and  C_35
REMARK    8  A    between atoms: C_31  and  C_34
REMARK    9  A    between atoms: C_39  and  C_41
REMARK                            x       y       z     vdW  Elec       q    Type
REMARK                         _______ _______ _______ _____ _____    ______ ____
ROOT
ATOM      1  N   UNL     1       0.013  -4.335  -0.220  0.00  0.00    -0.210 N 
ATOM      2  C   UNL     1      -0.112  -5.077  -1.326  0.00  0.00    +0.233 C 
ATOM      3  O   UNL     1      -0.236  -4.642  -2.450  0.00  0.00    -0.274 OA
ATOM      4  C   UNL     1      -0.075  -6.542  -0.957  0.00  0.00    +0.123 C 
ATOM      5  C   UNL     1      -1.510  -7.129  -1.129  0.00  0.00    +0.155 C 
ATOM      6  C   UNL     1      -1.399  -8.592  -0.695  0.00  0.00    +0.004 C 
ATOM      7  C   UNL     1      -1.269  -8.585   0.621  0.00  0.00    +0.008 C 
ATOM      8  C   UNL     1      -1.296  -7.117   1.052  0.00  0.00    +0.116 C 
ATOM      9  C   UNL     1       0.097  -6.515   0.594  0.00  0.00    +0.128 C 
ATOM     10  C   UNL     1       0.141  -5.038   0.910  0.00  0.00    +0.233 C 
ATOM     11  O   UNL     1       0.271  -4.563   2.018  0.00  0.00    -0.274 OA
ATOM     12  O   UNL     1      -2.197  -6.537   0.026  0.00  0.00    -0.359 OA
ENDROOT
BRANCH   1  17
ATOM     13  C   UNL     1       0.019   1.340  -0.323  0.00  0.00    +0.044 C 
ATOM     14  C   UNL     1       0.017  -0.167  -0.296  0.00  0.00    -0.050 A 
ATOM     15  C   UNL     1       1.081  -0.848   0.267  0.00  0.00    +0.005 A 
ATOM     16  C   UNL     1       1.082  -2.228   0.293  0.00  0.00    +0.024 A 
ATOM     17  C   UNL     1       0.014  -2.933  -0.245  0.00  0.00    +0.044 A 
ATOM     18  C   UNL     1      -1.053  -2.246  -0.809  0.00  0.00    +0.024 A 
ATOM     19  C   UNL     1      -1.051  -0.865  -0.828  0.00  0.00    +0.005 A 
ENDBRANCH   1  17
BRANCH   8  20
ATOM     20  C   UNL     1      -1.671  -6.862   2.513  0.00  0.00    +0.143 C 
BRANCH  20  21
ATOM     21  N   UNL     1      -2.941  -7.527   2.814  0.00  0.00    -0.323 N 
ATOM     22  H   UNL     1      -3.400  -8.030   2.124  0.00  0.00    +0.148 HD
BRANCH  21  23
ATOM     23  C   UNL     1      -3.471  -7.440   4.050  0.00  0.00    +0.133 C 
ATOM     24  S   UNL     1      -2.734  -6.441   5.229  0.00  0.00    -0.019 S 
BRANCH  23  25
ATOM     25  N   UNL     1      -4.581  -8.140   4.359  0.00  0.00    -0.309 N 
ATOM     26  C   UNL     1      -5.245  -7.955   5.657  0.00  0.00    +0.125 C 
ATOM     27  C   UNL     1      -6.713  -7.589   5.408  0.00  0.00    +0.124 C 
ATOM     28  N   UNL     1      -7.282  -8.549   4.452  0.00  0.00    -0.324 N 
ATOM     29  C   UNL     1      -6.617  -8.734   3.154  0.00  0.00    +0.088 C 
ATOM     30  C   UNL     1      -5.152  -9.096   3.400  0.00  0.00    +0.129 C 
ATOM     31  C   UNL     1      -7.307  -9.859   2.380  0.00  0.00    +0.029 C 
BRANCH  28  32
ATOM     32  C   UNL     1      -8.432  -9.274   4.772  0.00  0.00    +0.030 A 
ATOM     33  C   UNL     1      -8.401 -10.213   5.795  0.00  0.00    +0.023 A 
ATOM     34  C   UNL     1      -9.541 -10.928   6.109  0.00  0.00    +0.002 A 
ATOM     35  C   UNL     1     -10.711 -10.710   5.405  0.00  0.00    +0.003 A 
ATOM     36  C   UNL     1     -10.745  -9.777   4.385  0.00  0.00    -0.049 A 
ATOM     37  C   UNL     1      -9.610  -9.054   4.070  0.00  0.00    +0.026 A 
ATOM     38  C   UNL     1     -12.022  -9.544   3.620  0.00  0.00    +0.044 C 
ENDBRANCH  28  32
ENDBRANCH  23  25
ENDBRANCH  21  23
ENDBRANCH  20  21
ENDBRANCH   8  20
TORSDOF 6
