REMARK  Name = ZINC08769421
REMARK  12 active torsions:
REMARK  status: ('A' for Active; 'I' for Inactive)
REMARK    1  A    between atoms: C_1  and  C_2
REMARK    2  A    between atoms: C_3  and  C_31
REMARK    3  A    between atoms: N_9  and  C_27
REMARK    4  A    between atoms: C_10  and  S_12
REMARK    5  A    between atoms: S_12  and  C_13
REMARK    6  A    between atoms: C_13  and  C_14
REMARK    7  A    between atoms: N_16  and  C_17
REMARK    8  A    between atoms: C_17  and  C_19
REMARK    9  A    between atoms: C_17  and  C_20
REMARK   10  A    between atoms: C_27  and  C_28
REMARK   11  A    between atoms: C_28  and  O_29
REMARK   12  A    between atoms: O_29  and  C_30
REMARK                            x       y       z     vdW  Elec       q    Type
REMARK                         _______ _______ _______ _____ _____    ______ ____
ROOT
ATOM      1  C   UNL     1      -5.726   2.801  -0.449  0.00  0.00    +0.045 C 
ATOM      2  C   UNL     1      -5.665   1.498   0.305  0.00  0.00    -0.026 A 
ATOM      3  C   UNL     1      -6.777   0.771   0.492  0.00  0.00    -0.008 A 
ATOM      4  S   UNL     1      -6.198  -0.640   1.415  0.00  0.00    -0.073 S 
ATOM      5  C   UNL     1      -4.479  -0.213   1.522  0.00  0.00    +0.117 A 
ATOM      6  C   UNL     1      -4.403   1.015   0.838  0.00  0.00    +0.075 A 
ATOM      7  C   UNL     1      -3.104   1.611   0.770  0.00  0.00    +0.263 A 
ATOM      8  O   UNL     1      -2.943   2.677   0.202  0.00  0.00    -0.267 OA
ATOM      9  N   UNL     1      -2.062   0.977   1.338  0.00  0.00    -0.285 N 
ATOM     10  C   UNL     1      -2.225  -0.215   1.984  0.00  0.00    +0.173 A 
ATOM     11  N   UNL     1      -3.411  -0.783   2.066  0.00  0.00    -0.216 NA
ATOM     12  C   UNL     1      -8.180   1.075   0.033  0.00  0.00    +0.052 C 
ENDROOT
BRANCH  10  13
ATOM     13  S   UNL     1      -0.830  -1.003   2.718  0.00  0.00    -0.078 S 
BRANCH  13  14
ATOM     14  C   UNL     1      -1.626  -2.480   3.397  0.00  0.00    +0.173 C 
BRANCH  14  15
ATOM     15  C   UNL     1      -0.595  -3.331   4.093  0.00  0.00    +0.224 C 
ATOM     16  O   UNL     1       0.564  -2.974   4.127  0.00  0.00    -0.275 OA
ATOM     17  N   UNL     1      -0.960  -4.489   4.678  0.00  0.00    -0.308 N 
ATOM     18  H   UNL     1      -1.887  -4.774   4.652  0.00  0.00    +0.149 HD
BRANCH  17  19
ATOM     19  C   UNL     1       0.042  -5.316   5.355  0.00  0.00    +0.100 C 
ATOM     20  C   UNL     1       0.229  -4.819   6.790  0.00  0.00    +0.033 C 
BRANCH  19  21
ATOM     21  C   UNL     1      -0.421  -6.750   5.375  0.00  0.00    -0.027 A 
ATOM     22  C   UNL     1      -1.750  -7.043   5.619  0.00  0.00    +0.008 A 
ATOM     23  C   UNL     1      -2.176  -8.357   5.632  0.00  0.00    +0.038 A 
ATOM     24  C   UNL     1      -1.270  -9.381   5.414  0.00  0.00    +0.123 A 
ATOM     25  C   UNL     1       0.062  -9.086   5.176  0.00  0.00    +0.038 A 
ATOM     26  C   UNL     1       0.485  -7.771   5.157  0.00  0.00    +0.008 A 
ATOM     27  F   UNL     1      -1.685 -10.667   5.433  0.00  0.00    -0.205 F 
ENDBRANCH  19  21
ENDBRANCH  17  19
ENDBRANCH  14  15
ENDBRANCH  13  14
ENDBRANCH  10  13
BRANCH   9  28
ATOM     28  C   UNL     1      -0.729   1.579   1.267  0.00  0.00    +0.155 C 
BRANCH  28  29
ATOM     29  C   UNL     1      -0.013   1.086   0.008  0.00  0.00    +0.181 C 
BRANCH  29  30
ATOM     30  O   UNL     1      -0.704   1.559  -1.150  0.00  0.00    -0.381 OA
ATOM     31  C   UNL     1      -0.114   1.152  -2.386  0.00  0.00    +0.194 C 
ENDBRANCH  29  30
ENDBRANCH  28  29
ENDBRANCH   9  28
TORSDOF 8
