REMARK  Name = ZINC62557558
REMARK  3 active torsions:
REMARK  status: ('A' for Active; 'I' for Inactive)
REMARK    1  A    between atoms: C_6  and  C_7
REMARK    2  A    between atoms: C_12  and  C_17
REMARK    3  A    between atoms: C_17  and  N_18
REMARK                            x       y       z     vdW  Elec       q    Type
REMARK                         _______ _______ _______ _____ _____    ______ ____
ROOT
ATOM      1  C   UNL     1      -0.017   1.379   0.010  0.00  0.00    +0.036 A 
ATOM      2  C   UNL     1       1.169   2.091   0.002  0.00  0.00    +0.043 A 
ATOM      3  C   UNL     1       2.381   1.424  -0.020  0.00  0.00    +0.047 A 
ATOM      4  C   UNL     1       2.406   0.039  -0.038  0.00  0.00    +0.078 A 
ATOM      5  C   UNL     1       1.211  -0.678  -0.015  0.00  0.00    +0.154 A 
ATOM      6  C   UNL     1       0.002  -0.004   0.002  0.00  0.00    +0.100 A 
ATOM      7  O   UNL     1       1.242  -2.038   0.010  0.00  0.00    -0.479 OA
ATOM      8  C   UNL     1       2.330  -2.675  -0.663  0.00  0.00    +0.242 C 
ATOM      9  C   UNL     1       3.621  -1.982  -0.305  0.00  0.00    +0.256 C 
ATOM     10  O   UNL     1       4.653  -2.616  -0.232  0.00  0.00    -0.271 OA
ATOM     11  N   UNL     1       3.624  -0.654  -0.067  0.00  0.00    -0.280 N 
ATOM     12 CL   UNL     1       1.137   3.827   0.019  0.00  0.00    -0.083 Cl
ATOM     13  H   UNL     1       4.459  -0.184   0.083  0.00  0.00    +0.155 HD
ENDROOT
BRANCH   6  14
ATOM     14  C   UNL     1      -1.292  -0.776   0.013  0.00  0.00    +0.421 C 
ATOM     15  F   UNL     1      -2.368   0.118   0.030  0.00  0.00    -0.166 F 
ATOM     16  F   UNL     1      -1.368  -1.575  -1.133  0.00  0.00    -0.166 F 
ATOM     17  F   UNL     1      -1.341  -1.587   1.152  0.00  0.00    -0.166 F 
ENDBRANCH   6  14
BRANCH   8  18
ATOM     18  C   UNL     1       2.112  -2.595  -2.175  0.00  0.00    -0.032 C 
BRANCH  18  19
ATOM     19  N   UNL     1       0.856  -3.272  -2.525  0.00  0.00    +0.381 N 
ATOM     20  H   UNL     1       0.712  -3.219  -3.522  0.00  0.00    -0.090 HD
ATOM     21  H   UNL     1       0.906  -4.239  -2.243  0.00  0.00    -0.090 HD
ATOM     22  H   UNL     1       0.088  -2.822  -2.050  0.00  0.00    -0.090 HD
ENDBRANCH  18  19
ENDBRANCH   8  18
TORSDOF 3
