REMARK  Name = ZINC66893369
REMARK  5 active torsions:
REMARK  status: ('A' for Active; 'I' for Inactive)
REMARK    1  A    between atoms: C_1  and  C_2
REMARK    2  A    between atoms: C_5  and  N_8
REMARK    3  A    between atoms: C_9  and  C_11
REMARK    4  A    between atoms: C_11  and  N_12
REMARK    5  A    between atoms: C_17  and  C_19
REMARK                            x       y       z     vdW  Elec       q    Type
REMARK                         _______ _______ _______ _____ _____    ______ ____
ROOT
ATOM      1  N   UNL     1      -1.917  -3.058   5.833  0.00  0.00    +0.393 N 
ATOM      2  C   UNL     1      -2.596  -4.341   5.616  0.00  0.00    -0.077 C 
ATOM      3  C   UNL     1      -1.984  -5.407   6.528  0.00  0.00    -0.019 C 
ATOM      4  C   UNL     1      -2.153  -4.979   7.989  0.00  0.00    -0.003 C 
ATOM      5  C   UNL     1      -1.505  -3.605   8.186  0.00  0.00    -0.006 C 
ATOM      6  C   UNL     1      -2.135  -2.606   7.212  0.00  0.00    +0.020 C 
ATOM      7  H   UNL     1      -0.928  -3.172   5.669  0.00  0.00    -0.080 HD
ENDROOT
BRANCH   6   8
ATOM      8  C   UNL     1      -1.500  -1.252   7.403  0.00  0.00    +0.202 C 
ATOM      9  O   UNL     1      -0.533  -0.937   6.742  0.00  0.00    -0.277 OA
ATOM     10  N   UNL     1      -2.007  -0.392   8.307  0.00  0.00    -0.298 N 
ATOM     11  C   UNL     1      -3.104  -0.793   9.203  0.00  0.00    +0.136 C 
ATOM     12  C   UNL     1      -2.708  -0.441  10.641  0.00  0.00    +0.179 C 
ATOM     13  O   UNL     1      -2.312   0.931  10.697  0.00  0.00    -0.377 OA
ATOM     14  C   UNL     1      -1.163   1.242   9.906  0.00  0.00    +0.179 C 
ATOM     15  C   UNL     1      -1.477   0.975   8.434  0.00  0.00    +0.136 C 
ENDBRANCH   6   8
BRANCH   1  16
ATOM     16  C   UNL     1      -2.454  -2.058   4.901  0.00  0.00    +0.020 C 
BRANCH  16  18
ATOM     17  N   UNL     1      -2.468  -1.656   2.460  0.00  0.00    -0.314 N 
ATOM     18  C   UNL     1      -2.080  -2.434   3.490  0.00  0.00    +0.197 C 
ATOM     19  O   UNL     1      -1.431  -3.436   3.282  0.00  0.00    -0.278 OA
ATOM     20  H   UNL     1      -2.988  -0.854   2.627  0.00  0.00    +0.149 HD
BRANCH  17  25
ATOM     21  C   UNL     1      -1.696   2.167   0.081  0.00  0.00    +0.007 C 
ATOM     22  C   UNL     1      -1.706   0.644  -0.061  0.00  0.00    -0.014 C 
ATOM     23  C   UNL     1      -3.105   0.111   0.256  0.00  0.00    +0.005 C 
ATOM     24  C   UNL     1      -3.115  -1.412   0.114  0.00  0.00    +0.022 C 
ATOM     25  C   UNL     1      -2.105  -2.021   1.089  0.00  0.00    +0.073 C 
ATOM     26  C   UNL     1      -0.706  -1.489   0.773  0.00  0.00    +0.022 C 
ATOM     27  C   UNL     1      -0.696   0.034   0.914  0.00  0.00    +0.005 C 
ENDBRANCH  17  25
ENDBRANCH  16  18
ENDBRANCH   1  16
TORSDOF 4
