REMARK  Name = ZINC39593031
REMARK  9 active torsions:
REMARK  status: ('A' for Active; 'I' for Inactive)
REMARK    1  A    between atoms: C_6  and  C_7
REMARK    2  A    between atoms: C_9  and  C_13
REMARK    3  A    between atoms: C_17  and  S_21
REMARK    4  A    between atoms: N_19  and  N_20
REMARK    5  A    between atoms: S_21  and  C_22
REMARK    6  A    between atoms: C_22  and  C_23
REMARK    7  A    between atoms: N_25  and  C_26
REMARK    8  A    between atoms: C_29  and  S_32
REMARK    9  A    between atoms: S_32  and  N_35
REMARK                            x       y       z     vdW  Elec       q    Type
REMARK                         _______ _______ _______ _____ _____    ______ ____
ROOT
ATOM      1  C   UNL     1      -3.295  -3.152  -1.211  0.00  0.00    +0.244 C 
ATOM      2  N   UNL     1      -3.023  -2.348  -2.410  0.00  0.00    -0.167 NA
ATOM      3  N   UNL     1      -3.978  -2.377  -3.193  0.00  0.00    -0.159 NA
ATOM      4  C   UNL     1      -5.071  -3.205  -2.667  0.00  0.00    +0.272 C 
ATOM      5  N   UNL     1      -4.764  -3.368  -1.222  0.00  0.00    -0.183 NA
ENDROOT
BRANCH   1   8
ATOM      6  C   UNL     1      -1.287  -0.786   0.051  0.00  0.00    +0.091 C 
ATOM      7  C   UNL     1      -1.382  -2.130   0.048  0.00  0.00    +0.035 C 
ATOM      8  C   UNL     1      -2.878  -2.388   0.048  0.00  0.00    +0.195 C 
ATOM      9  N   UNL     1      -3.453  -1.033   0.052  0.00  0.00    -0.176 NA
ATOM     10  N   UNL     1      -2.523  -0.223   0.060  0.00  0.00    -0.154 NA
BRANCH   6  16
ATOM     11  C   UNL     1      -0.027   1.366   0.062  0.00  0.00    +0.011 A 
ATOM     12  C   UNL     1       1.162   2.066   0.064  0.00  0.00    +0.020 A 
ATOM     13  C   UNL     1       2.369   1.387   0.056  0.00  0.00    +0.041 A 
ATOM     14  C   UNL     1       2.389   0.003   0.046  0.00  0.00    +0.020 A 
ATOM     15  C   UNL     1       1.206  -0.707   0.044  0.00  0.00    +0.011 A 
ATOM     16  C   UNL     1      -0.011  -0.028   0.053  0.00  0.00    +0.002 A 
ATOM     17 CL   UNL     1       3.861   2.275   0.058  0.00  0.00    -0.084 Cl
ENDBRANCH   6  16
ENDBRANCH   1   8
BRANCH   5  18
ATOM     18  N   UNL     1      -5.097  -4.707  -0.764  0.00  0.00    -0.263 NA
ATOM     19  H   UNL     1      -6.095  -4.854  -0.771  0.00  0.00    +0.137 HD
ATOM     20  H   UNL     1      -4.624  -5.406  -1.317  0.00  0.00    +0.137 HD
ENDBRANCH   5  18
BRANCH   4  21
ATOM     21  S   UNL     1      -6.663  -2.364  -2.888  0.00  0.00    -0.107 S 
BRANCH  21  22
ATOM     22  C   UNL     1      -6.463  -0.802  -1.988  0.00  0.00    +0.168 C 
BRANCH  22  23
ATOM     23  C   UNL     1      -7.731   0.004  -2.093  0.00  0.00    +0.227 C 
ATOM     24  O   UNL     1      -8.678  -0.432  -2.714  0.00  0.00    -0.275 OA
ATOM     25  N   UNL     1      -7.815   1.210  -1.497  0.00  0.00    -0.285 N 
ATOM     26  H   UNL     1      -7.084   1.530  -0.945  0.00  0.00    +0.155 HD
BRANCH  25  27
ATOM     27  C   UNL     1      -8.955   2.001  -1.674  0.00  0.00    +0.034 A 
ATOM     28  C   UNL     1      -8.840   3.383  -1.747  0.00  0.00    +0.025 A 
ATOM     29  C   UNL     1      -9.967   4.161  -1.922  0.00  0.00    +0.030 A 
ATOM     30  C   UNL     1     -11.211   3.565  -2.024  0.00  0.00    +0.105 A 
ATOM     31  C   UNL     1     -11.330   2.189  -1.951  0.00  0.00    +0.030 A 
ATOM     32  C   UNL     1     -10.205   1.405  -1.782  0.00  0.00    +0.025 A 
BRANCH  30  33
ATOM     33  S   UNL     1     -12.648   4.561  -2.247  0.00  0.00    +0.056 S 
ATOM     34  O   UNL     1     -13.748   3.800  -1.767  0.00  0.00    -0.153 OA
ATOM     35  O   UNL     1     -12.332   5.849  -1.737  0.00  0.00    -0.153 OA
BRANCH  33  36
ATOM     36  N   UNL     1     -12.871   4.739  -3.878  0.00  0.00    -0.204 NA
ATOM     37  H   UNL     1     -12.255   4.322  -4.501  0.00  0.00    +0.144 HD
ATOM     38  H   UNL     1     -13.618   5.260  -4.211  0.00  0.00    +0.144 HD
ENDBRANCH  33  36
ENDBRANCH  30  33
ENDBRANCH  25  27
ENDBRANCH  22  23
ENDBRANCH  21  22
ENDBRANCH   4  21
TORSDOF 9
