REMARK  Name = ZINC08874371
REMARK  10 active torsions:
REMARK  status: ('A' for Active; 'I' for Inactive)
REMARK    1  A    between atoms: C_1  and  C_2
REMARK    2  A    between atoms: C_2  and  N_3
REMARK    3  A    between atoms: N_3  and  C_4
REMARK    4  A    between atoms: C_4  and  C_5
REMARK    5  A    between atoms: C_6  and  C_8
REMARK    6  A    between atoms: C_8  and  N_9
REMARK    7  A    between atoms: C_16  and  C_19
REMARK    8  A    between atoms: C_16  and  O_29
REMARK    9  A    between atoms: C_19  and  C_20
REMARK   10  A    between atoms: C_20  and  C_22
REMARK                            x       y       z     vdW  Elec       q    Type
REMARK                         _______ _______ _______ _____ _____    ______ ____
ROOT
ATOM      1  N   UNL     1       3.437   2.340  -0.019  0.00  0.00    -0.260 N 
ATOM      2  C   UNL     1       2.388   1.420  -0.014  0.00  0.00    +0.043 A 
ATOM      3  C   UNL     1       2.399   0.026  -0.021  0.00  0.00    +0.024 A 
ATOM      4  C   UNL     1       1.211  -0.675  -0.013  0.00  0.00    +0.002 A 
ATOM      5  C   UNL     1       0.002  -0.004   0.002  0.00  0.00    +0.000 A 
ATOM      6  C   UNL     1      -0.017   1.380   0.010  0.00  0.00    +0.009 A 
ATOM      7  C   UNL     1       1.167   2.083   0.002  0.00  0.00    +0.015 A 
ATOM      8  C   UNL     1       1.486   3.560   0.007  0.00  0.00    +0.175 C 
ATOM      9  C   UNL     1       2.998   3.610  -0.007  0.00  0.00    +0.257 C 
ATOM     10  O   UNL     1       3.686   4.610  -0.008  0.00  0.00    -0.272 OA
ENDROOT
BRANCH   8  11
ATOM     11  O   UNL     1       0.953   4.191  -1.159  0.00  0.00    -0.374 OA
ATOM     12  H   UNL     1       1.128   5.141  -1.207  0.00  0.00    +0.211 HD
ENDBRANCH   8  11
BRANCH   1  13
ATOM     13  C   UNL     1       4.853   1.965  -0.034  0.00  0.00    +0.209 C 
BRANCH  13  15
ATOM     14  N   UNL     1       6.603   1.504  -1.721  0.00  0.00    -0.301 N 
ATOM     15  C   UNL     1       5.324   1.843  -1.460  0.00  0.00    +0.233 C 
ATOM     16  O   UNL     1       4.554   2.050  -2.374  0.00  0.00    -0.274 OA
BRANCH  14  18
ATOM     17  C   UNL     1       7.488  -0.226  -0.236  0.00  0.00    +0.024 C 
ATOM     18  C   UNL     1       7.534   1.255  -0.617  0.00  0.00    +0.104 C 
ENDBRANCH  14  18
BRANCH  14  19
ATOM     19  C   UNL     1       7.062   1.386  -3.107  0.00  0.00    +0.104 C 
ATOM     20  C   UNL     1       7.591   2.739  -3.586  0.00  0.00    +0.024 C 
ENDBRANCH  14  19
ENDBRANCH  13  15
ENDBRANCH   1  13
BRANCH   8  21
ATOM     21  C   UNL     1       0.936   4.223   1.272  0.00  0.00    +0.129 C 
BRANCH  21  22
ATOM     22  C   UNL     1       1.266   5.693   1.253  0.00  0.00    +0.167 C 
ATOM     23  O   UNL     1       1.880   6.164   0.319  0.00  0.00    -0.292 OA
BRANCH  22  24
ATOM     24  C   UNL     1       0.843   6.556   2.366  0.00  0.00    +0.018 A 
ATOM     25  C   UNL     1       0.129   6.017   3.442  0.00  0.00    +0.012 A 
ATOM     26  C   UNL     1      -0.259   6.831   4.484  0.00  0.00    +0.016 A 
ATOM     27  C   UNL     1       0.047   8.182   4.463  0.00  0.00    +0.018 A 
ATOM     28  C   UNL     1       0.748   8.724   3.398  0.00  0.00    +0.016 A 
ATOM     29  C   UNL     1       1.147   7.921   2.352  0.00  0.00    +0.012 A 
ATOM     30 BR   UNL     1      -0.498   9.292   5.894  0.00  0.00    -0.050 Br
ENDBRANCH  22  24
ENDBRANCH  21  22
ENDBRANCH   8  21
TORSDOF 8
