REMARK  Name = ZINC43907024
REMARK  3 active torsions:
REMARK  status: ('A' for Active; 'I' for Inactive)
REMARK    1  A    between atoms: C_1  and  N_2
REMARK    2  A    between atoms: C_7  and  N_12
REMARK    3  A    between atoms: N_15  and  C_16
REMARK                            x       y       z     vdW  Elec       q    Type
REMARK                         _______ _______ _______ _____ _____    ______ ____
ROOT
ATOM      1  N   UNL     1       2.859  -5.475  -1.584  0.00  0.00    -0.292 N 
ATOM      2  C   UNL     1       2.493  -6.379  -0.654  0.00  0.00    +0.304 C 
ATOM      3  O   UNL     1       3.013  -7.478  -0.637  0.00  0.00    -0.252 OA
ATOM      4  N   UNL     1       1.552  -6.065   0.258  0.00  0.00    -0.269 N 
ATOM      5  H   UNL     1       2.444  -4.598  -1.597  0.00  0.00    +0.151 HD
ATOM      6  H   UNL     1       1.186  -5.167   0.287  0.00  0.00    +0.156 HD
ENDROOT
BRANCH   4   7
ATOM      7  C   UNL     1       1.102  -7.035   1.164  0.00  0.00    +0.038 A 
ATOM      8  C   UNL     1      -0.227  -7.047   1.564  0.00  0.00    +0.027 A 
ATOM      9  C   UNL     1      -0.672  -8.003   2.458  0.00  0.00    +0.051 A 
ATOM     10  C   UNL     1       0.206  -8.951   2.957  0.00  0.00    +0.167 A 
ATOM     11  C   UNL     1       1.541  -8.941   2.557  0.00  0.00    +0.169 A 
ATOM     12  C   UNL     1       1.984  -7.986   1.657  0.00  0.00    +0.073 A 
ATOM     13  O   UNL     1       2.193  -9.964   3.184  0.00  0.00    -0.447 OA
ATOM     14  C   UNL     1       1.338 -10.354   4.268  0.00  0.00    +0.254 C 
ATOM     15  O   UNL     1       0.021  -9.981   3.836  0.00  0.00    -0.448 OA
ATOM     16  C   UNL     1       1.417 -11.860   4.492  0.00  0.00    +0.093 C 
ATOM     17  C   UNL     1       0.474 -12.259   5.630  0.00  0.00    +0.008 C 
ATOM     18  C   UNL     1       0.874 -11.515   6.906  0.00  0.00    +0.000 C 
ATOM     19  C   UNL     1       0.770 -10.007   6.673  0.00  0.00    +0.008 C 
ATOM     20  C   UNL     1       1.713  -9.600   5.539  0.00  0.00    +0.093 C 
ENDBRANCH   4   7
BRANCH   1  27
ATOM     21  C   UNL     1       2.766  -7.158  -7.258  0.00  0.00    +0.172 C 
ATOM     22  N   UNL     1       2.776  -7.100  -5.794  0.00  0.00    -0.271 N 
ATOM     23  C   UNL     1       3.528  -6.281  -5.040  0.00  0.00    +0.044 A 
ATOM     24  C   UNL     1       3.243  -6.536  -3.737  0.00  0.00    +0.013 A 
ATOM     25  C   UNL     1       2.286  -7.547  -3.697  0.00  0.00    +0.140 A 
ATOM     26  N   UNL     1       1.998  -7.885  -4.930  0.00  0.00    -0.179 NA
ATOM     27  C   UNL     1       3.882  -5.817  -2.575  0.00  0.00    +0.108 C 
ATOM     28  C   UNL     1       4.540  -4.536  -3.102  0.00  0.00    +0.027 C 
ATOM     29  C   UNL     1       5.418  -4.872  -4.311  0.00  0.00    +0.008 C 
ATOM     30  C   UNL     1       4.526  -5.248  -5.501  0.00  0.00    +0.055 C 
ENDBRANCH   1  27
TORSDOF 2
