REMARK  Name = ZINC66106957
REMARK  7 active torsions:
REMARK  status: ('A' for Active; 'I' for Inactive)
REMARK    1  A    between atoms: C_3  and  C_19
REMARK    2  A    between atoms: C_5  and  N_7
REMARK    3  A    between atoms: N_7  and  C_8
REMARK    4  A    between atoms: C_8  and  C_9
REMARK    5  A    between atoms: N_11  and  C_12
REMARK    6  A    between atoms: N_21  and  C_22
REMARK    7  A    between atoms: C_26  and  C_28
REMARK                            x       y       z     vdW  Elec       q    Type
REMARK                         _______ _______ _______ _____ _____    ______ ____
ROOT
ATOM      1  C   UNL     1      -0.008   1.557   0.052  0.00  0.00    +0.003 A 
ATOM      2  C   UNL     1       1.172   2.272   0.032  0.00  0.00    +0.013 A 
ATOM      3  C   UNL     1       2.392   1.608   0.173  0.00  0.00    +0.039 A 
ATOM      4  C   UNL     1       2.413   0.223   0.335  0.00  0.00    +0.036 A 
ATOM      5  C   UNL     1       1.222  -0.486   0.355  0.00  0.00    +0.028 A 
ATOM      6  C   UNL     1       0.012   0.184   0.213  0.00  0.00    +0.023 A 
ENDROOT
BRANCH   3   7
ATOM      7  C   UNL     1       3.658   2.371   0.150  0.00  0.00    +0.248 C 
ATOM      8  O   UNL     1       4.720   1.791   0.273  0.00  0.00    -0.270 OA
ATOM      9  N   UNL     1       3.636   3.709  -0.007  0.00  0.00    -0.281 N 
ATOM     10  H   UNL     1       2.788   4.181  -0.031  0.00  0.00    +0.155 HD
BRANCH   9  11
ATOM     11  C   UNL     1       4.834   4.419  -0.136  0.00  0.00    +0.034 A 
ATOM     12  C   UNL     1       4.942   5.704   0.381  0.00  0.00    +0.023 A 
ATOM     13  C   UNL     1       6.127   6.401   0.252  0.00  0.00    +0.002 A 
ATOM     14  C   UNL     1       7.206   5.822  -0.390  0.00  0.00    +0.012 A 
ATOM     15  C   UNL     1       7.102   4.543  -0.906  0.00  0.00    +0.057 A 
ATOM     16  C   UNL     1       5.921   3.838  -0.776  0.00  0.00    +0.035 A 
BRANCH  15  17
ATOM     17  C   UNL     1       8.280   3.916  -1.605  0.00  0.00    +0.417 C 
ATOM     18  F   UNL     1       9.354   4.813  -1.606  0.00  0.00    -0.166 F 
ATOM     19  F   UNL     1       8.652   2.745  -0.934  0.00  0.00    -0.166 F 
ATOM     20  F   UNL     1       7.929   3.606  -2.924  0.00  0.00    -0.166 F 
ENDBRANCH  15  17
ENDBRANCH   9  11
ENDBRANCH   3   7
BRANCH   5  21
ATOM     21  N   UNL     1       1.237  -1.873   0.516  0.00  0.00    -0.335 N 
ATOM     22  H   UNL     1       2.081  -2.341   0.614  0.00  0.00    +0.147 HD
BRANCH  21  23
ATOM     23  C   UNL     1      -0.022  -2.622   0.537  0.00  0.00    +0.198 C 
BRANCH  23  24
ATOM     24  C   UNL     1       0.269  -4.089   0.723  0.00  0.00    +0.234 C 
ATOM     25  O   UNL     1       1.415  -4.472   0.827  0.00  0.00    -0.274 OA
ATOM     26  N   UNL     1      -0.745  -4.976   0.772  0.00  0.00    -0.284 N 
ATOM     27  H   UNL     1      -1.663  -4.665   0.756  0.00  0.00    +0.155 HD
BRANCH  26  28
ATOM     28  C   UNL     1      -0.472  -6.348   0.848  0.00  0.00    +0.034 A 
ATOM     29  C   UNL     1      -1.295  -7.257   0.196  0.00  0.00    +0.026 A 
ATOM     30  C   UNL     1      -1.024  -8.609   0.272  0.00  0.00    +0.040 A 
ATOM     31  C   UNL     1       0.067  -9.058   0.996  0.00  0.00    +0.124 A 
ATOM     32  C   UNL     1       0.889  -8.153   1.647  0.00  0.00    +0.040 A 
ATOM     33  C   UNL     1       0.625  -6.800   1.569  0.00  0.00    +0.026 A 
ATOM     34  F   UNL     1       0.330 -10.382   1.069  0.00  0.00    -0.205 F 
ENDBRANCH  26  28
ENDBRANCH  23  24
ENDBRANCH  21  23
ENDBRANCH   5  21
TORSDOF 7
