REMARK  Name = ZINC31159348
REMARK  11 active torsions:
REMARK  status: ('A' for Active; 'I' for Inactive)
REMARK    1  A    between atoms: C_1  and  C_2
REMARK    2  A    between atoms: C_4  and  O_39
REMARK    3  A    between atoms: C_6  and  O_38
REMARK    4  A    between atoms: C_8  and  O_37
REMARK    5  A    between atoms: C_10  and  O_13
REMARK    6  A    between atoms: O_13  and  C_14
REMARK    7  A    between atoms: C_17  and  C_21
REMARK    8  A    between atoms: C_19  and  O_20
REMARK    9  A    between atoms: C_23  and  O_36
REMARK   10  A    between atoms: C_28  and  O_35
REMARK   11  A    between atoms: C_30  and  O_34
REMARK                            x       y       z     vdW  Elec       q    Type
REMARK                         _______ _______ _______ _____ _____    ______ ____
ROOT
ATOM      1  C   UNL     1      -1.346  -2.104   2.370  0.00  0.00    +0.165 A 
ATOM      2  C   UNL     1      -0.835  -1.290   3.368  0.00  0.00    +0.050 A 
ATOM      3  C   UNL     1      -1.617  -0.959   4.458  0.00  0.00    +0.011 A 
ATOM      4  C   UNL     1      -2.910  -1.440   4.557  0.00  0.00    -0.001 A 
ATOM      5  C   UNL     1      -3.426  -2.253   3.565  0.00  0.00    +0.056 A 
ATOM      6  C   UNL     1      -2.649  -2.583   2.466  0.00  0.00    +0.159 A 
ENDROOT
BRANCH   4   7
ATOM      7  C   UNL     1      -3.758  -1.077   5.749  0.00  0.00    +0.240 C 
ATOM      8  C   UNL     1      -3.376  -1.967   6.940  0.00  0.00    +0.230 C 
ATOM      9  C   UNL     1      -4.233  -1.536   8.117  0.00  0.00    +0.202 C 
ATOM     10  O   UNL     1      -4.716  -2.343   8.884  0.00  0.00    -0.289 OA
ATOM     11  C   UNL     1      -4.448  -0.093   8.278  0.00  0.00    +0.103 A 
ATOM     12  C   UNL     1      -5.003   0.419   9.461  0.00  0.00    +0.134 A 
ATOM     13  C   UNL     1      -5.207   1.782   9.584  0.00  0.00    +0.091 A 
ATOM     14  C   UNL     1      -4.860   2.634   8.541  0.00  0.00    +0.124 A 
ATOM     15  C   UNL     1      -4.305   2.133   7.371  0.00  0.00    +0.092 A 
ATOM     16  C   UNL     1      -4.091   0.773   7.229  0.00  0.00    +0.139 A 
ATOM     17  O   UNL     1      -3.539   0.291   6.090  0.00  0.00    -0.480 OA
BRANCH  14  18
ATOM     18  O   UNL     1      -5.067   3.969   8.668  0.00  0.00    -0.507 OA
ATOM     19  H   UNL     1      -4.318   4.448   9.050  0.00  0.00    +0.292 HD
ENDBRANCH  14  18
BRANCH  12  20
ATOM     20  O   UNL     1      -5.339  -0.415  10.477  0.00  0.00    -0.506 OA
ATOM     21  H   UNL     1      -4.626  -0.567  11.112  0.00  0.00    +0.292 HD
ENDBRANCH  12  20
BRANCH   8  22
ATOM     22  O   UNL     1      -3.631  -3.337   6.626  0.00  0.00    -0.380 OA
ATOM     23  H   UNL     1      -3.410  -3.952   7.339  0.00  0.00    +0.211 HD
ENDBRANCH   8  22
ENDBRANCH   4   7
BRANCH   6  24
ATOM     24  O   UNL     1      -3.157  -3.378   1.487  0.00  0.00    -0.503 OA
ATOM     25  H   UNL     1      -3.010  -4.323   1.631  0.00  0.00    +0.292 HD
ENDBRANCH   6  24
BRANCH   1  26
ATOM     26  O   UNL     1      -0.578  -2.430   1.296  0.00  0.00    -0.457 OA
BRANCH  26  32
ATOM     27  C   UNL     1      -0.019   1.526   0.010  0.00  0.00    +0.041 C 
ATOM     28  C   UNL     1       0.002  -0.004   0.002  0.00  0.00    +0.150 C 
ATOM     29  C   UNL     1       0.719  -0.498  -1.257  0.00  0.00    +0.174 C 
ATOM     30  C   UNL     1       0.789  -2.028  -1.229  0.00  0.00    +0.180 C 
ATOM     31  C   UNL     1       1.496  -2.472   0.055  0.00  0.00    +0.214 C 
ATOM     32  C   UNL     1       0.749  -1.902   1.264  0.00  0.00    +0.339 C 
ATOM     33  O   UNL     1       0.694  -0.478   1.159  0.00  0.00    -0.334 OA
BRANCH  31  34
ATOM     34  O   UNL     1       2.841  -1.988   0.051  0.00  0.00    -0.383 OA
ATOM     35  H   UNL     1       3.349  -2.232   0.837  0.00  0.00    +0.210 HD
ENDBRANCH  31  34
BRANCH  30  36
ATOM     36  O   UNL     1       1.519  -2.494  -2.365  0.00  0.00    -0.386 OA
ATOM     37  H   UNL     1       1.603  -3.457  -2.411  0.00  0.00    +0.210 HD
ENDBRANCH  30  36
BRANCH  29  38
ATOM     38  O   UNL     1      -0.002  -0.073  -2.415  0.00  0.00    -0.387 OA
ATOM     39  H   UNL     1      -0.089   0.887  -2.495  0.00  0.00    +0.210 HD
ENDBRANCH  29  38
ENDBRANCH  26  32
ENDBRANCH   1  26
TORSDOF 10
