REMARK  Name = ZINC63182865
REMARK  6 active torsions:
REMARK  status: ('A' for Active; 'I' for Inactive)
REMARK    1  A    between atoms: C_1  and  C_2
REMARK    2  A    between atoms: C_5  and  C_22
REMARK    3  A    between atoms: C_6  and  S_8
REMARK    4  A    between atoms: S_8  and  N_11
REMARK    5  A    between atoms: N_11  and  C_12
REMARK    6  A    between atoms: C_17  and  C_18
REMARK                            x       y       z     vdW  Elec       q    Type
REMARK                         _______ _______ _______ _____ _____    ______ ____
ROOT
ATOM      1  N   UNL     1      -1.366  -3.816   2.801  0.00  0.00    -0.097 NA
ENDROOT
BRANCH   1   2
ATOM      2  C   UNL     1      -1.629  -4.616   3.906  0.00  0.00    +0.086 A 
ATOM      3  C   UNL     1      -0.703  -4.706   4.939  0.00  0.00    +0.029 A 
ATOM      4  C   UNL     1      -0.966  -5.501   6.035  0.00  0.00    +0.022 A 
ATOM      5  C   UNL     1      -2.153  -6.214   6.117  0.00  0.00    +0.042 A 
ATOM      6  C   UNL     1      -3.083  -6.136   5.103  0.00  0.00    +0.035 A 
ATOM      7  C   UNL     1      -2.833  -5.331   3.988  0.00  0.00    +0.062 A 
ATOM      8 CL   UNL     1      -2.468  -7.211   7.503  0.00  0.00    -0.084 Cl
BRANCH   7   9
ATOM      9  C   UNL     1      -3.826  -5.238   2.903  0.00  0.00    +0.243 C 
ATOM     10  O   UNL     1      -3.603  -4.540   1.932  0.00  0.00    -0.270 OA
ATOM     11  N   UNL     1      -4.982  -5.928   2.986  0.00  0.00    -0.325 N 
ATOM     12  H   UNL     1      -5.160  -6.484   3.760  0.00  0.00    +0.145 HD
ATOM     13  H   UNL     1      -5.635  -5.867   2.271  0.00  0.00    +0.145 HD
ENDBRANCH   7   9
ENDBRANCH   1   2
BRANCH   1  14
ATOM     14  S   UNL     1       0.057  -2.973   2.709  0.00  0.00    +0.092 S 
ATOM     15  O   UNL     1       1.094  -3.938   2.602  0.00  0.00    -0.148 OA
ATOM     16  O   UNL     1       0.022  -2.003   3.747  0.00  0.00    -0.148 OA
BRANCH  14  22
ATOM     17  C   UNL     1      -0.018   1.503   0.010  0.00  0.00    +0.044 C 
ATOM     18  C   UNL     1       0.002  -0.004   0.002  0.00  0.00    -0.049 A 
ATOM     19  C   UNL     1       0.006  -0.689  -1.199  0.00  0.00    +0.004 A 
ATOM     20  C   UNL     1       0.025  -2.071  -1.207  0.00  0.00    +0.005 A 
ATOM     21  C   UNL     1       0.040  -2.768  -0.013  0.00  0.00    -0.024 A 
ATOM     22  C   UNL     1       0.037  -2.084   1.188  0.00  0.00    +0.114 A 
ATOM     23  C   UNL     1       0.023  -0.702   1.195  0.00  0.00    +0.032 A 
ATOM     24  C   UNL     1       0.059  -4.275  -0.021  0.00  0.00    +0.046 C 
ENDBRANCH  14  22
ENDBRANCH   1  14
TORSDOF 4
