REMARK  Name = ZINC58935788
REMARK  9 active torsions:
REMARK  status: ('A' for Active; 'I' for Inactive)
REMARK    1  A    between atoms: C_1  and  C_2
REMARK    2  A    between atoms: C_2  and  C_4
REMARK    3  A    between atoms: C_2  and  S_14
REMARK    4  A    between atoms: N_6  and  C_7
REMARK    5  A    between atoms: S_14  and  C_17
REMARK    6  A    between atoms: C_17  and  C_18
REMARK    7  A    between atoms: C_21  and  C_23
REMARK    8  A    between atoms: C_23  and  O_24
REMARK    9  A    between atoms: O_24  and  C_25
REMARK                            x       y       z     vdW  Elec       q    Type
REMARK                         _______ _______ _______ _____ _____    ______ ____
ROOT
ATOM      1  S   UNL     1       0.875  -0.578   1.476  0.00  0.00    -0.015 S 
ATOM      2  O   UNL     1       0.191  -0.106   2.629  0.00  0.00    -0.173 OA
ATOM      3  O   UNL     1       1.104  -1.973   1.332  0.00  0.00    -0.173 OA
ENDROOT
BRANCH   1   5
ATOM      4  C   UNL     1      -0.038   1.544   0.012  0.00  0.00    +0.042 C 
ATOM      5  C   UNL     1      -0.005   0.014   0.005  0.00  0.00    +0.213 C 
BRANCH   5   6
ATOM      6  C   UNL     1      -1.415  -0.519   0.014  0.00  0.00    +0.241 C 
ATOM      7  O   UNL     1      -1.941  -0.824   1.063  0.00  0.00    -0.273 OA
ATOM      8  N   UNL     1      -2.090  -0.657  -1.144  0.00  0.00    -0.282 N 
ATOM      9  H   UNL     1      -1.694  -0.354  -1.976  0.00  0.00    +0.155 HD
BRANCH   8  10
ATOM     10  C   UNL     1      -3.364  -1.239  -1.147  0.00  0.00    +0.069 A 
ATOM     11  C   UNL     1      -4.225  -1.033  -0.078  0.00  0.00    +0.026 A 
ATOM     12  C   UNL     1      -5.481  -1.608  -0.083  0.00  0.00    +0.002 A 
ATOM     13  C   UNL     1      -5.882  -2.389  -1.151  0.00  0.00    +0.003 A 
ATOM     14  C   UNL     1      -5.028  -2.598  -2.218  0.00  0.00    +0.040 A 
ATOM     15  C   UNL     1      -3.771  -2.020  -2.223  0.00  0.00    +0.144 A 
ATOM     16  F   UNL     1      -2.939  -2.220  -3.268  0.00  0.00    -0.204 F 
ENDBRANCH   8  10
ENDBRANCH   5   6
ENDBRANCH   1   5
BRANCH   1  17
ATOM     17  C   UNL     1       2.469   0.280   1.363  0.00  0.00    +0.222 C 
BRANCH  17  18
ATOM     18  C   UNL     1       3.334  -0.110   2.534  0.00  0.00    +0.070 A 
ATOM     19  C   UNL     1       3.306   0.585   3.700  0.00  0.00    +0.072 A 
ATOM     20  S   UNL     1       4.503  -0.331   4.657  0.00  0.00    -0.077 S 
ATOM     21  C   UNL     1       4.902  -1.478   3.492  0.00  0.00    +0.116 A 
ATOM     22  N   UNL     1       4.148  -1.145   2.474  0.00  0.00    -0.244 NA
BRANCH  21  23
ATOM     23  C   UNL     1       5.884  -2.616   3.596  0.00  0.00    +0.291 C 
BRANCH  23  24
ATOM     24  O   UNL     1       7.175  -2.172   3.174  0.00  0.00    -0.485 OA
BRANCH  24  25
ATOM     25  C   UNL     1       8.182  -3.084   3.207  0.00  0.00    +0.121 A 
ATOM     26  C   UNL     1       7.932  -4.380   3.632  0.00  0.00    +0.048 A 
ATOM     27  C   UNL     1       8.957  -5.306   3.665  0.00  0.00    +0.042 A 
ATOM     28  C   UNL     1      10.234  -4.939   3.275  0.00  0.00    +0.124 A 
ATOM     29  C   UNL     1      10.486  -3.645   2.851  0.00  0.00    +0.042 A 
ATOM     30  C   UNL     1       9.461  -2.720   2.811  0.00  0.00    +0.048 A 
ATOM     31  F   UNL     1      11.236  -5.845   3.309  0.00  0.00    -0.205 F 
ENDBRANCH  24  25
ENDBRANCH  23  24
ENDBRANCH  21  23
ENDBRANCH  17  18
ENDBRANCH   1  17
TORSDOF 8
