REMARK  Name = ZINC03128258
REMARK  6 active torsions:
REMARK  status: ('A' for Active; 'I' for Inactive)
REMARK    1  A    between atoms: C_4  and  S_7
REMARK    2  A    between atoms: S_7  and  C_10
REMARK    3  A    between atoms: C_10  and  C_12
REMARK    4  A    between atoms: C_10  and  N_36
REMARK    5  A    between atoms: N_25  and  C_26
REMARK    6  A    between atoms: C_30  and  C_32
REMARK                            x       y       z     vdW  Elec       q    Type
REMARK                         _______ _______ _______ _____ _____    ______ ____
ROOT
ATOM      1  C   UNL     1      -2.845   2.973   0.375  0.00  0.00    +0.159 C 
ATOM      2  C   UNL     1      -1.421   2.478   0.336  0.00  0.00    -0.020 A 
ATOM      3  C   UNL     1      -1.207   1.111   0.454  0.00  0.00    +0.006 A 
ATOM      4  C   UNL     1       0.073   0.597   0.415  0.00  0.00    +0.000 A 
ATOM      5  C   UNL     1       1.149   1.449   0.247  0.00  0.00    +0.000 A 
ATOM      6  C   UNL     1       0.938   2.807   0.131  0.00  0.00    +0.004 A 
ATOM      7  C   UNL     1      -0.350   3.328   0.176  0.00  0.00    -0.041 A 
ATOM      8  C   UNL     1      -0.503   4.822   0.056  0.00  0.00    +0.054 C 
ATOM      9  C   UNL     1      -1.926   5.191  -0.357  0.00  0.00    +0.115 C 
ATOM     10  N   UNL     1      -2.857   4.435   0.497  0.00  0.00    -0.274 N 
ATOM     11  C   UNL     1      -3.685   5.060   1.357  0.00  0.00    +0.307 C 
ATOM     12  O   UNL     1      -4.509   4.420   1.981  0.00  0.00    -0.252 OA
ATOM     13  N   UNL     1      -3.600   6.395   1.524  0.00  0.00    -0.269 N 
ATOM     14  H   UNL     1      -2.988   6.914   0.980  0.00  0.00    +0.156 HD
ENDROOT
BRANCH  13  15
ATOM     15  C   UNL     1      -4.396   7.031   2.484  0.00  0.00    +0.035 A 
ATOM     16  C   UNL     1      -3.898   8.119   3.189  0.00  0.00    +0.023 A 
ATOM     17  C   UNL     1      -4.685   8.745   4.136  0.00  0.00    +0.002 A 
ATOM     18  C   UNL     1      -5.968   8.290   4.381  0.00  0.00    +0.012 A 
ATOM     19  C   UNL     1      -6.466   7.208   3.679  0.00  0.00    +0.057 A 
ATOM     20  C   UNL     1      -5.686   6.580   2.728  0.00  0.00    +0.035 A 
BRANCH  19  21
ATOM     21  C   UNL     1      -7.865   6.717   3.949  0.00  0.00    +0.417 C 
ATOM     22  F   UNL     1      -8.455   7.508   4.940  0.00  0.00    -0.166 F 
ATOM     23  F   UNL     1      -8.623   6.798   2.775  0.00  0.00    -0.166 F 
ATOM     24  F   UNL     1      -7.817   5.387   4.381  0.00  0.00    -0.166 F 
ENDBRANCH  19  21
ENDBRANCH  13  15
BRANCH   1  25
ATOM     25  C   UNL     1      -3.562   2.563  -0.913  0.00  0.00    +0.339 C 
BRANCH  25  26
ATOM     26  S   UNL     1      -4.716   1.210  -0.558  0.00  0.00    +0.026 S 
ATOM     27  O   UNL     1      -4.000   0.006  -0.321  0.00  0.00    -0.167 OA
ATOM     28  O   UNL     1      -5.720   1.647   0.348  0.00  0.00    -0.167 OA
BRANCH  26  32
ATOM     29  C   UNL     1      -6.909   0.500  -4.454  0.00  0.00    +0.000 A 
ATOM     30  C   UNL     1      -5.740  -0.187  -4.184  0.00  0.00    +0.002 A 
ATOM     31  C   UNL     1      -5.071   0.030  -2.994  0.00  0.00    +0.027 A 
ATOM     32  C   UNL     1      -5.570   0.934  -2.075  0.00  0.00    +0.091 A 
ATOM     33  C   UNL     1      -6.741   1.617  -2.343  0.00  0.00    +0.027 A 
ATOM     34  C   UNL     1      -7.407   1.405  -3.535  0.00  0.00    +0.002 A 
ENDBRANCH  26  32
ENDBRANCH  25  26
BRANCH  25  35
ATOM     35  N   UNL     1      -2.575   2.118  -1.900  0.00  0.00    +0.050 N 
ATOM     36  O   UNL     1      -2.429   0.929  -2.121  0.00  0.00    -0.130 OA
ATOM     37  O   UNL     1      -1.901   2.936  -2.499  0.00  0.00    -0.130 OA
ENDBRANCH  25  35
ENDBRANCH   1  25
TORSDOF 6
