REMARK  Name = ZINC14010802
REMARK  2 active torsions:
REMARK  status: ('A' for Active; 'I' for Inactive)
REMARK    1  A    between atoms: C_6  and  C_7
REMARK    2  A    between atoms: N_14  and  C_17
REMARK                            x       y       z     vdW  Elec       q    Type
REMARK                         _______ _______ _______ _____ _____    ______ ____
ROOT
ATOM      1  C   UNL     1      -0.049  -0.141   1.030  0.00  0.00    +0.026 C 
ATOM      2  C   UNL     1      -1.204  -0.779   0.625  0.00  0.00    +0.100 C 
ATOM      3  C   UNL     1      -1.185  -2.174   0.139  0.00  0.00    +0.257 C 
ATOM      4  O   UNL     1      -0.145  -2.803   0.083  0.00  0.00    -0.270 OA
ATOM      5  N   UNL     1      -2.353  -2.732  -0.240  0.00  0.00    -0.235 N 
ATOM      6  C   UNL     1      -3.506  -2.051  -0.184  0.00  0.00    +0.320 C 
ATOM      7  O   UNL     1      -4.523  -2.612  -0.541  0.00  0.00    -0.251 OA
ATOM      8  N   UNL     1      -3.599  -0.785   0.245  0.00  0.00    -0.190 N 
ATOM      9  C   UNL     1      -2.514  -0.100   0.663  0.00  0.00    +0.263 C 
ATOM     10  O   UNL     1      -2.612   1.047   1.055  0.00  0.00    -0.269 OA
ATOM     11  H   UNL     1      -2.359  -3.647  -0.561  0.00  0.00    +0.159 HD
ENDROOT
BRANCH   1  17
ATOM     12  C   UNL     1      -0.654   2.171   0.351  0.00  0.00    +0.011 A 
ATOM     13  C   UNL     1      -0.663   3.526   0.592  0.00  0.00    +0.039 A 
ATOM     14  C   UNL     1      -0.073   4.035   1.740  0.00  0.00    +0.123 A 
ATOM     15  C   UNL     1       0.525   3.182   2.657  0.00  0.00    +0.039 A 
ATOM     16  C   UNL     1       0.537   1.824   2.434  0.00  0.00    +0.011 A 
ATOM     17  C   UNL     1      -0.057   1.302   1.276  0.00  0.00    -0.024 A 
ATOM     18  F   UNL     1      -0.080   5.367   1.966  0.00  0.00    -0.205 F 
ENDBRANCH   1  17
BRANCH   8  19
ATOM     19  C   UNL     1      -4.853  -0.160   0.267  0.00  0.00    +0.046 A 
ATOM     20  C   UNL     1      -5.305   0.532  -0.849  0.00  0.00    +0.025 A 
ATOM     21  C   UNL     1      -6.543   1.143  -0.827  0.00  0.00    +0.017 A 
ATOM     22  C   UNL     1      -7.329   1.075   0.310  0.00  0.00    +0.018 A 
ATOM     23  C   UNL     1      -6.879   0.391   1.426  0.00  0.00    +0.017 A 
ATOM     24  C   UNL     1      -5.643  -0.226   1.407  0.00  0.00    +0.025 A 
ATOM     25 BR   UNL     1      -9.022   1.918   0.340  0.00  0.00    -0.050 Br
ENDBRANCH   8  19
TORSDOF 2
