REMARK  Name = ZINC36288781
REMARK  5 active torsions:
REMARK  status: ('A' for Active; 'I' for Inactive)
REMARK    1  A    between atoms: C_1  and  C_2
REMARK    2  A    between atoms: C_5  and  N_9
REMARK    3  A    between atoms: C_7  and  N_8
REMARK    4  A    between atoms: N_9  and  S_10
REMARK    5  A    between atoms: S_10  and  C_13
REMARK                            x       y       z     vdW  Elec       q    Type
REMARK                         _______ _______ _______ _____ _____    ______ ____
ROOT
ATOM      1  N   UNL     1       0.058  -4.172  -0.027  0.00  0.00    -0.098 NA
ENDROOT
BRANCH   1   6
ATOM      2  C   UNL     1      -0.018   1.503   0.010  0.00  0.00    +0.045 C 
ATOM      3  C   UNL     1       0.002  -0.004   0.002  0.00  0.00    -0.030 A 
ATOM      4  C   UNL     1       0.006  -0.688  -1.199  0.00  0.00    +0.007 A 
ATOM      5  C   UNL     1       0.024  -2.069  -1.211  0.00  0.00    +0.027 A 
ATOM      6  C   UNL     1       0.040  -2.776  -0.014  0.00  0.00    +0.076 A 
ATOM      7  C   UNL     1       0.036  -2.092   1.193  0.00  0.00    +0.049 A 
ATOM      8  C   UNL     1       0.023  -0.704   1.202  0.00  0.00    +0.029 A 
BRANCH   8   9
ATOM      9  N   UNL     1       0.025  -0.013   2.415  0.00  0.00    -0.358 N 
ATOM     10  H   UNL     1       0.013   0.957   2.421  0.00  0.00    +0.142 HD
ATOM     11  H   UNL     1       0.040  -0.502   3.253  0.00  0.00    +0.142 HD
ENDBRANCH   8   9
ENDBRANCH   1   6
BRANCH   1  12
ATOM     12  S   UNL     1       0.062  -4.987  -1.469  0.00  0.00    +0.093 S 
ATOM     13  O   UNL     1      -1.190  -4.723  -2.087  0.00  0.00    -0.148 OA
ATOM     14  O   UNL     1       1.300  -4.690  -2.100  0.00  0.00    -0.148 OA
BRANCH  12  15
ATOM     15  C   UNL     1       0.086  -6.708  -1.095  0.00  0.00    +0.129 A 
ATOM     16  C   UNL     1      -0.988  -7.506  -1.442  0.00  0.00    +0.033 A 
ATOM     17  C   UNL     1      -0.970  -8.857  -1.149  0.00  0.00    +0.040 A 
ATOM     18  C   UNL     1       0.125  -9.411  -0.507  0.00  0.00    +0.125 A 
ATOM     19  C   UNL     1       1.201  -8.612  -0.160  0.00  0.00    +0.060 A 
ATOM     20  C   UNL     1       1.183  -7.262  -0.458  0.00  0.00    +0.070 A 
ATOM     21 CL   UNL     1       2.534  -6.260  -0.028  0.00  0.00    -0.081 Cl
ATOM     22  F   UNL     1       0.143 -10.731  -0.220  0.00  0.00    -0.205 F 
ENDBRANCH  12  15
ENDBRANCH   1  12
TORSDOF 4
