REMARK  Name = ZINC63562501
REMARK  2 active torsions:
REMARK  status: ('A' for Active; 'I' for Inactive)
REMARK    1  A    between atoms: C_8  and  C_26
REMARK    2  A    between atoms: C_16  and  C_18
REMARK                            x       y       z     vdW  Elec       q    Type
REMARK                         _______ _______ _______ _____ _____    ______ ____
ROOT
ATOM      1  C   UNL     1      -0.080   1.330  -1.521  0.00  0.00    +0.001 A 
ATOM      2  C   UNL     1       1.059   2.114  -1.292  0.00  0.00    +0.002 A 
ATOM      3  C   UNL     1       2.253   1.581  -0.955  0.00  0.00    +0.026 A 
ATOM      4  C   UNL     1       2.402   0.175  -0.817  0.00  0.00    +0.043 A 
ATOM      5  N   UNL     1       3.445  -0.568  -0.524  0.00  0.00    -0.375 N 
ATOM      6  C   UNL     1       3.014  -1.961  -0.441  0.00  0.00    +0.131 C 
ATOM      7  C   UNL     1       3.798  -2.861  -1.403  0.00  0.00    +0.133 C 
ATOM      8  N   UNL     1       3.052  -4.120  -1.554  0.00  0.00    -0.288 N 
ATOM      9  C   UNL     1       1.681  -4.117  -2.075  0.00  0.00    +0.113 C 
ATOM     10  C   UNL     1       0.796  -3.234  -1.177  0.00  0.00    +0.052 C 
ATOM     11  C   UNL     1       1.562  -1.962  -0.891  0.00  0.00    -0.035 C 
ATOM     12  C   UNL     1       1.213  -0.679  -1.060  0.00  0.00    -0.001 A 
ATOM     13  C   UNL     1      -0.049  -0.018  -1.419  0.00  0.00    +0.010 A 
ATOM     14  C   UNL     1       3.634  -5.286  -1.210  0.00  0.00    +0.249 C 
ATOM     15  O   UNL     1       4.729  -5.287  -0.682  0.00  0.00    -0.270 OA
ATOM     16  H   UNL     1       4.349  -0.246  -0.386  0.00  0.00    +0.160 HD
ENDROOT
BRANCH   7  17
ATOM     17  C   UNL     1       3.932  -2.182  -2.741  0.00  0.00    -0.021 A 
ATOM     18  C   UNL     1       2.800  -1.844  -3.459  0.00  0.00    +0.009 A 
ATOM     19  C   UNL     1       2.917  -1.221  -4.688  0.00  0.00    +0.050 A 
ATOM     20  C   UNL     1       4.170  -0.934  -5.203  0.00  0.00    +0.166 A 
ATOM     21  C   UNL     1       5.311  -1.274  -4.480  0.00  0.00    +0.167 A 
ATOM     22  C   UNL     1       5.186  -1.894  -3.247  0.00  0.00    +0.055 A 
ATOM     23  O   UNL     1       6.410  -0.891  -5.193  0.00  0.00    -0.453 OA
ATOM     24  C   UNL     1       5.942  -0.683  -6.538  0.00  0.00    +0.466 C 
ATOM     25  O   UNL     1       4.555  -0.337  -6.368  0.00  0.00    -0.453 OA
ENDBRANCH   7  17
BRANCH  14  26
ATOM     26  C   UNL     1       2.941  -6.563  -1.476  0.00  0.00    +0.055 A 
ATOM     27  C   UNL     1       2.441  -6.838  -2.750  0.00  0.00    +0.016 A 
ATOM     28  C   UNL     1       1.795  -8.032  -2.992  0.00  0.00    +0.021 A 
ATOM     29  C   UNL     1       1.641  -8.959  -1.974  0.00  0.00    +0.042 A 
ATOM     30  C   UNL     1       2.134  -8.694  -0.708  0.00  0.00    +0.040 A 
ATOM     31  C   UNL     1       2.788  -7.505  -0.454  0.00  0.00    +0.054 A 
ATOM     32 CL   UNL     1       3.413  -7.176   1.132  0.00  0.00    -0.083 Cl
ATOM     33 CL   UNL     1       0.826 -10.459  -2.288  0.00  0.00    -0.083 Cl
ENDBRANCH  14  26
TORSDOF 2
