REMARK  Name = ZINC64651480
REMARK  3 active torsions:
REMARK  status: ('A' for Active; 'I' for Inactive)
REMARK    1  A    between atoms: C_5  and  C_7
REMARK    2  A    between atoms: C_22  and  C_24
REMARK    3  A    between atoms: C_29  and  C_30
REMARK                            x       y       z     vdW  Elec       q    Type
REMARK                         _______ _______ _______ _____ _____    ______ ____
ROOT
ATOM      1  C   UNL     1       1.318  -2.214   0.074  0.00  0.00    +0.136 C 
ATOM      2  C   UNL     1       1.546  -2.794  -1.326  0.00  0.00    +0.131 C 
ATOM      3  C   UNL     1       0.245  -2.601  -2.094  0.00  0.00    -0.035 C 
ATOM      4  C   UNL     1       0.556  -1.919  -3.191  0.00  0.00    -0.001 A 
ATOM      5  C   UNL     1      -0.257  -1.495  -4.343  0.00  0.00    +0.010 A 
ATOM      6  C   UNL     1       0.392  -0.787  -5.305  0.00  0.00    +0.001 A 
ATOM      7  C   UNL     1       1.750  -0.463  -5.237  0.00  0.00    +0.002 A 
ATOM      8  C   UNL     1       2.574  -0.815  -4.218  0.00  0.00    +0.026 A 
ATOM      9  C   UNL     1       2.008  -1.567  -3.148  0.00  0.00    +0.043 A 
ATOM     10  N   UNL     1       2.576  -2.056  -2.059  0.00  0.00    -0.375 N 
ATOM     11  C   UNL     1      -1.087  -3.070  -1.563  0.00  0.00    +0.052 C 
ATOM     12  C   UNL     1      -1.207  -2.527  -0.127  0.00  0.00    +0.113 C 
ATOM     13  N   UNL     1       0.052  -2.760   0.589  0.00  0.00    -0.288 N 
ATOM     14  C   UNL     1       0.051  -3.481   1.728  0.00  0.00    +0.248 C 
ATOM     15  O   UNL     1       1.080  -3.624   2.358  0.00  0.00    -0.270 OA
ATOM     16  H   UNL     1       3.500  -1.947  -1.785  0.00  0.00    +0.160 HD
ENDROOT
BRANCH   1  21
ATOM     17  C   UNL     1       0.138   1.263  -0.802  0.00  0.00    +0.000 A 
ATOM     18  C   UNL     1       1.072   2.046  -0.149  0.00  0.00    +0.003 A 
ATOM     19  C   UNL     1       2.086   1.452   0.577  0.00  0.00    +0.039 A 
ATOM     20  C   UNL     1       2.167   0.071   0.650  0.00  0.00    +0.128 A 
ATOM     21  C   UNL     1       1.231  -0.712  -0.004  0.00  0.00    +0.010 A 
ATOM     22  C   UNL     1       0.218  -0.115  -0.730  0.00  0.00    +0.008 A 
ATOM     23  F   UNL     1       3.158  -0.511   1.360  0.00  0.00    -0.205 F 
ENDBRANCH   1  21
BRANCH  14  24
ATOM     24  C   UNL     1      -1.201  -4.098   2.208  0.00  0.00    +0.048 A 
ATOM     25  C   UNL     1      -2.302  -3.301   2.520  0.00  0.00    +0.014 A 
ATOM     26  C   UNL     1      -3.470  -3.883   2.968  0.00  0.00    +0.001 A 
ATOM     27  C   UNL     1      -3.558  -5.258   3.113  0.00  0.00    +0.001 A 
ATOM     28  C   UNL     1      -2.480  -6.064   2.811  0.00  0.00    +0.012 A 
ATOM     29  C   UNL     1      -1.293  -5.496   2.350  0.00  0.00    +0.029 A 
BRANCH  29  30
ATOM     30  C   UNL     1      -0.138  -6.355   2.020  0.00  0.00    +0.139 A 
ATOM     31  N   UNL     1       0.988  -5.953   1.470  0.00  0.00    -0.236 NA
ATOM     32  C   UNL     1       1.803  -7.002   1.319  0.00  0.00    +0.130 A 
ATOM     33  C   UNL     1       1.174  -8.101   1.786  0.00  0.00    +0.104 A 
ATOM     34  N   UNL     1      -0.053  -7.700   2.237  0.00  0.00    -0.344 N 
ATOM     35  H   UNL     1      -0.735  -8.264   2.634  0.00  0.00    +0.167 HD
ENDBRANCH  29  30
ENDBRANCH  14  24
TORSDOF 3
