REMARK  Name = ZINC43314010
REMARK  11 active torsions:
REMARK  status: ('A' for Active; 'I' for Inactive)
REMARK    1  A    between atoms: C_1  and  C_2
REMARK    2  A    between atoms: C_6  and  C_28
REMARK    3  A    between atoms: C_7  and  N_8
REMARK    4  A    between atoms: N_11  and  C_12
REMARK    5  A    between atoms: C_12  and  C_13
REMARK    6  A    between atoms: C_13  and  C_15
REMARK    7  A    between atoms: C_13  and  N_23
REMARK    8  A    between atoms: C_20  and  O_21
REMARK    9  A    between atoms: O_21  and  C_22
REMARK   10  A    between atoms: C_28  and  C_29
REMARK   11  A    between atoms: C_28  and  C_30
REMARK                            x       y       z     vdW  Elec       q    Type
REMARK                         _______ _______ _______ _____ _____    ______ ____
ROOT
ATOM      1  N   UNL     1       0.751   0.117   2.461  0.00  0.00    -0.269 N 
ATOM      2  C   UNL     1       0.173   1.334   2.453  0.00  0.00    +0.304 C 
ATOM      3  O   UNL     1      -0.405   1.727   1.458  0.00  0.00    -0.253 OA
ATOM      4  N   UNL     1       0.236   2.117   3.549  0.00  0.00    -0.300 N 
ATOM      5  H   UNL     1       1.166  -0.219   3.271  0.00  0.00    +0.156 HD
ATOM      6  H   UNL     1       0.698   1.803   4.343  0.00  0.00    +0.150 HD
ENDROOT
BRANCH   1  13
ATOM      7  C   UNL     1      -1.734  -0.906   1.525  0.00  0.00    +0.045 C 
ATOM      8  C   UNL     1      -0.438  -1.183   0.808  0.00  0.00    -0.029 A 
ATOM      9  C   UNL     1      -0.434  -1.948  -0.342  0.00  0.00    +0.005 A 
ATOM     10  C   UNL     1       0.755  -2.202  -1.001  0.00  0.00    +0.001 A 
ATOM     11  C   UNL     1       1.944  -1.692  -0.510  0.00  0.00    +0.006 A 
ATOM     12  C   UNL     1       1.946  -0.926   0.638  0.00  0.00    -0.023 A 
ATOM     13  C   UNL     1       0.753  -0.664   1.299  0.00  0.00    +0.041 A 
BRANCH  12  14
ATOM     14  C   UNL     1       3.241  -0.371   1.172  0.00  0.00    +0.015 C 
ATOM     15  C   UNL     1       4.196  -1.523   1.494  0.00  0.00    +0.012 C 
ATOM     16  C   UNL     1       3.878   0.540   0.120  0.00  0.00    +0.012 C 
ENDBRANCH  12  14
ENDBRANCH   1  13
BRANCH   4  17
ATOM     17  C   UNL     1      -0.392   3.440   3.541  0.00  0.00    +0.095 C 
BRANCH  17  18
ATOM     18  C   UNL     1      -0.285   4.064   4.934  0.00  0.00    -0.017 C 
BRANCH  18  19
ATOM     19  C   UNL     1       1.164   4.324   5.258  0.00  0.00    -0.018 A 
ATOM     20  C   UNL     1       1.891   3.393   5.974  0.00  0.00    +0.005 A 
ATOM     21  C   UNL     1       3.219   3.631   6.272  0.00  0.00    +0.000 A 
ATOM     22  C   UNL     1       3.825   4.802   5.854  0.00  0.00    +0.004 A 
ATOM     23  C   UNL     1       3.103   5.737   5.137  0.00  0.00    +0.046 A 
ATOM     24  C   UNL     1       1.770   5.497   4.833  0.00  0.00    +0.122 A 
BRANCH  24  25
ATOM     25  O   UNL     1       1.059   6.412   4.123  0.00  0.00    -0.495 OA
ATOM     26  C   UNL     1       1.748   7.596   3.717  0.00  0.00    +0.277 C 
ENDBRANCH  24  25
ENDBRANCH  18  19
BRANCH  18  27
ATOM     27  N   UNL     1      -0.850   3.142   5.928  0.00  0.00    +0.385 N 
ATOM     28  C   UNL     1      -0.843   3.771   7.274  0.00  0.00    -0.078 C 
ATOM     29  C   UNL     1      -1.927   2.976   8.043  0.00  0.00    -0.020 C 
ATOM     30  C   UNL     1      -3.007   2.731   6.964  0.00  0.00    -0.020 C 
ATOM     31  C   UNL     1      -2.270   2.867   5.619  0.00  0.00    -0.078 C 
ATOM     32  H   UNL     1      -0.325   2.280   5.943  0.00  0.00    -0.081 HD
ENDBRANCH  18  27
ENDBRANCH  17  18
ENDBRANCH   4  17
TORSDOF 7
