REMARK  Name = ZINC26460748
REMARK  5 active torsions:
REMARK  status: ('A' for Active; 'I' for Inactive)
REMARK    1  A    between atoms: C_3  and  C_22
REMARK    2  A    between atoms: C_4  and  C_19
REMARK    3  A    between atoms: C_6  and  N_7
REMARK    4  A    between atoms: N_7  and  S_8
REMARK    5  A    between atoms: S_8  and  C_11
REMARK                            x       y       z     vdW  Elec       q    Type
REMARK                         _______ _______ _______ _____ _____    ______ ____
ROOT
ATOM      1  C   UNL     1      -2.777   0.683   1.060  0.00  0.00    +0.027 A 
ATOM      2  C   UNL     1      -3.856  -0.071   1.469  0.00  0.00    +0.016 A 
ATOM      3  C   UNL     1      -3.937  -0.518   2.787  0.00  0.00    +0.049 A 
ATOM      4  C   UNL     1      -2.910  -0.200   3.697  0.00  0.00    +0.050 A 
ATOM      5  C   UNL     1      -1.825   0.556   3.273  0.00  0.00    +0.040 A 
ATOM      6  C   UNL     1      -1.758   0.995   1.955  0.00  0.00    +0.075 A 
ENDROOT
BRANCH   4   7
ATOM      7  C   UNL     1      -2.986  -0.670   5.098  0.00  0.00    +0.242 C 
ATOM      8  O   UNL     1      -3.988  -1.231   5.497  0.00  0.00    -0.270 OA
ATOM      9  N   UNL     1      -1.945  -0.477   5.932  0.00  0.00    -0.325 N 
ATOM     10  H   UNL     1      -2.002  -0.827   6.973  0.00  0.00    +0.145 HD
ATOM     11  H   UNL     1      -1.038   0.030   5.571  0.00  0.00    +0.145 HD
ENDBRANCH   4   7
BRANCH   3  12
ATOM     12  C   UNL     1      -5.095  -1.322   3.227  0.00  0.00    +0.242 C 
ATOM     13  O   UNL     1      -4.919  -2.408   3.744  0.00  0.00    -0.270 OA
ATOM     14  N   UNL     1      -6.346  -0.851   3.056  0.00  0.00    -0.325 N 
ATOM     15  H   UNL     1      -7.208  -1.449   3.384  0.00  0.00    +0.145 HD
ATOM     16  H   UNL     1      -6.504   0.133   2.589  0.00  0.00    +0.145 HD
ENDBRANCH   3  12
BRANCH   6  17
ATOM     17  N   UNL     1      -0.671   1.752   1.531  0.00  0.00    -0.098 NA
BRANCH  17  18
ATOM     18  S   UNL     1       0.081   1.393   0.100  0.00  0.00    +0.093 S 
ATOM     19  O   UNL     1       1.201   2.262   0.000  0.00  0.00    -0.148 OA
ATOM     20  O   UNL     1      -0.936   1.345  -0.892  0.00  0.00    -0.148 OA
BRANCH  18  21
ATOM     21  C   UNL     1       0.722  -0.241   0.244  0.00  0.00    +0.125 A 
ATOM     22  C   UNL     1       0.231  -1.250  -0.564  0.00  0.00    +0.045 A 
ATOM     23  C   UNL     1       0.735  -2.534  -0.450  0.00  0.00    +0.020 A 
ATOM     24  C   UNL     1       1.730  -2.807   0.470  0.00  0.00    +0.016 A 
ATOM     25  C   UNL     1       2.221  -1.799   1.278  0.00  0.00    +0.018 A 
ATOM     26  C   UNL     1       1.721  -0.514   1.161  0.00  0.00    +0.045 A 
ATOM     27 BR   UNL     1       2.399   0.868   2.259  0.00  0.00    -0.048 Br
ATOM     28 BR   UNL     1       0.063  -3.914  -1.555  0.00  0.00    -0.050 Br
ENDBRANCH  18  21
ENDBRANCH  17  18
ENDBRANCH   6  17
TORSDOF 5
