REMARK  Name = ZINC39480359
REMARK  4 active torsions:
REMARK  status: ('A' for Active; 'I' for Inactive)
REMARK    1  A    between atoms: C_1  and  C_2
REMARK    2  A    between atoms: C_2  and  O_3
REMARK    3  A    between atoms: O_3  and  C_4
REMARK    4  A    between atoms: N_13  and  C_23
REMARK                            x       y       z     vdW  Elec       q    Type
REMARK                         _______ _______ _______ _____ _____    ______ ____
ROOT
ATOM      1  C   UNL     1      -1.497  -1.839   0.006  0.00  0.00    +0.195 C 
ATOM      2  N   UNL     1      -0.471  -2.570  -0.002  0.00  0.00    -0.211 NA
ATOM      3  C   UNL     1       0.016  -3.801   0.076  0.00  0.00    +0.144 A 
ATOM      4  C   UNL     1      -0.691  -4.971   0.406  0.00  0.00    +0.156 A 
ATOM      5  N   UNL     1      -0.040  -6.121   0.545  0.00  0.00    -0.218 NA
ATOM      6  C   UNL     1       1.255  -6.207   0.322  0.00  0.00    +0.225 A 
ATOM      7  N   UNL     1       1.955  -5.154  -0.047  0.00  0.00    -0.222 NA
ATOM      8  C   UNL     1       1.395  -3.967  -0.175  0.00  0.00    +0.160 A 
ATOM      9 CL   UNL     1       2.357  -2.604  -0.654  0.00  0.00    -0.060 Cl
ATOM     10  N   UNL     1      -2.068  -4.969   0.539  0.00  0.00    -0.285 N 
ATOM     11  C   UNL     1      -2.688  -4.304   1.602  0.00  0.00    +0.053 A 
ATOM     12  C   UNL     1      -3.149  -3.024   1.365  0.00  0.00    -0.015 A 
ATOM     13  C   UNL     1      -3.796  -2.324   2.361  0.00  0.00    +0.020 A 
ATOM     14  C   UNL     1      -3.963  -2.910   3.606  0.00  0.00    +0.015 A 
ATOM     15  C   UNL     1      -3.486  -4.185   3.850  0.00  0.00    +0.031 A 
ATOM     16  C   UNL     1      -2.845  -4.891   2.847  0.00  0.00    +0.040 A 
ATOM     17 BR   UNL     1      -2.191  -6.636   3.171  0.00  0.00    -0.048 Br
ATOM     18  I   UNL     1      -4.944  -1.856   5.129  0.00  0.00    -0.044 I 
ATOM     19  C   UNL     1      -2.898  -2.404   0.017  0.00  0.00    +0.132 C 
ATOM     20  C   UNL     1      -2.889  -5.673  -0.449  0.00  0.00    +0.137 C 
ENDROOT
BRANCH   1  21
ATOM     21  O   UNL     1      -1.339  -0.499   0.012  0.00  0.00    -0.479 OA
BRANCH  21  23
ATOM     22  C   UNL     1      -0.019   1.526   0.010  0.00  0.00    +0.048 C 
ATOM     23  C   UNL     1       0.002  -0.004   0.002  0.00  0.00    +0.227 C 
ENDBRANCH  21  23
ENDBRANCH   1  21
TORSDOF 2
