REMARK  Name = ZINC66182509
REMARK  20 active torsions:
REMARK  status: ('A' for Active; 'I' for Inactive)
REMARK    1  A    between atoms: C_1  and  C_2
REMARK    2  A    between atoms: C_2  and  C_3
REMARK    3  A    between atoms: C_3  and  C_4
REMARK    4  A    between atoms: C_4  and  C_5
REMARK    5  A    between atoms: C_5  and  C_6
REMARK    6  A    between atoms: C_6  and  O_7
REMARK    7  A    between atoms: O_7  and  C_8
REMARK    8  A    between atoms: C_11  and  C_21
REMARK    9  A    between atoms: C_12  and  O_14
REMARK   10  A    between atoms: O_14  and  C_15
REMARK   11  A    between atoms: C_15  and  C_16
REMARK   12  A    between atoms: C_16  and  C_17
REMARK   13  A    between atoms: C_17  and  C_18
REMARK   14  A    between atoms: C_18  and  C_19
REMARK   15  A    between atoms: C_19  and  C_20
REMARK   16  A    between atoms: C_21  and  N_22
REMARK   17  A    between atoms: N_22  and  C_23
REMARK   18  A    between atoms: C_23  and  C_24
REMARK   19  A    between atoms: C_24  and  C_25
REMARK   20  A    between atoms: C_30  and  C_31
REMARK                            x       y       z     vdW  Elec       q    Type
REMARK                         _______ _______ _______ _____ _____    ______ ____
ROOT
ATOM      1  C   UNL     1       2.251  -5.856  -3.871  0.00  0.00    +0.124 A 
ATOM      2  C   UNL     1       1.716  -6.715  -2.920  0.00  0.00    +0.046 A 
ATOM      3  C   UNL     1       1.823  -8.083  -3.085  0.00  0.00    +0.009 A 
ATOM      4  C   UNL     1       2.463  -8.599  -4.195  0.00  0.00    -0.022 A 
ATOM      5  C   UNL     1       2.999  -7.745  -5.148  0.00  0.00    +0.125 A 
ATOM      6  C   UNL     1       2.887  -6.372  -4.989  0.00  0.00    +0.091 A 
ENDROOT
BRANCH   4   7
ATOM      7  C   UNL     1       2.579 -10.091  -4.371  0.00  0.00    -0.043 C 
BRANCH   7   8
ATOM      8  N   UNL     1       3.919 -10.530  -3.959  0.00  0.00    +0.382 N 
ATOM      9  H   UNL     1       4.614 -10.069  -4.527  0.00  0.00    -0.085 HD
ATOM     10  H   UNL     1       4.067 -10.293  -2.989  0.00  0.00    -0.085 HD
BRANCH   8  11
ATOM     11  C   UNL     1       4.032 -11.985  -4.130  0.00  0.00    -0.077 C 
BRANCH  11  12
ATOM     12  C   UNL     1       5.428 -12.442  -3.701  0.00  0.00    +0.016 C 
BRANCH  12  13
ATOM     13  C   UNL     1       5.544 -13.934  -3.877  0.00  0.00    -0.046 A 
ATOM     14  C   UNL     1       5.294 -14.777  -2.810  0.00  0.00    +0.004 A 
ATOM     15  C   UNL     1       5.401 -16.146  -2.971  0.00  0.00    +0.000 A 
ATOM     16  C   UNL     1       5.757 -16.672  -4.199  0.00  0.00    +0.000 A 
ATOM     17  C   UNL     1       6.006 -15.829  -5.266  0.00  0.00    +0.003 A 
ATOM     18  C   UNL     1       5.895 -14.460  -5.106  0.00  0.00    -0.047 A 
ATOM     19  C   UNL     1       6.161 -13.541  -6.270  0.00  0.00    +0.044 C 
ENDBRANCH  12  13
ENDBRANCH  11  12
ENDBRANCH   8  11
ENDBRANCH   7   8
ENDBRANCH   4   7
BRANCH   5  20
ATOM     20  O   UNL     1       3.628  -8.254  -6.240  0.00  0.00    -0.492 OA
BRANCH  20  21
ATOM     21  C   UNL     1       4.156  -7.316  -7.180  0.00  0.00    +0.229 C 
BRANCH  21  22
ATOM     22  C   UNL     1       4.822  -8.069  -8.333  0.00  0.00    +0.041 C 
BRANCH  22  23
ATOM     23  C   UNL     1       5.387  -7.065  -9.340  0.00  0.00    +0.003 C 
BRANCH  23  24
ATOM     24  C   UNL     1       6.054  -7.818 -10.493  0.00  0.00    -0.000 C 
BRANCH  24  25
ATOM     25  C   UNL     1       6.619  -6.814 -11.499  0.00  0.00    -0.003 C 
ATOM     26  C   UNL     1       7.285  -7.568 -12.652  0.00  0.00    +0.004 C 
ENDBRANCH  24  25
ENDBRANCH  23  24
ENDBRANCH  22  23
ENDBRANCH  21  22
ENDBRANCH  20  21
ENDBRANCH   5  20
BRANCH   1  27
ATOM     27  O   UNL     1       2.145  -4.511  -3.708  0.00  0.00    -0.492 OA
BRANCH  27  28
ATOM     28  C   UNL     1       1.476  -4.051  -2.532  0.00  0.00    +0.229 C 
BRANCH  28  29
ATOM     29  C   UNL     1       1.455  -2.521  -2.524  0.00  0.00    +0.041 C 
BRANCH  29  30
ATOM     30  C   UNL     1       0.739  -2.027  -1.265  0.00  0.00    +0.003 C 
BRANCH  30  31
ATOM     31  C   UNL     1       0.718  -0.497  -1.257  0.00  0.00    -0.000 C 
BRANCH  31  33
ATOM     32  C   UNL     1      -0.019   1.526   0.010  0.00  0.00    +0.004 C 
ATOM     33  C   UNL     1       0.002  -0.004   0.002  0.00  0.00    -0.003 C 
ENDBRANCH  31  33
ENDBRANCH  30  31
ENDBRANCH  29  30
ENDBRANCH  28  29
ENDBRANCH  27  28
ENDBRANCH   1  27
TORSDOF 17
