REMARK  Name = ZINC08867639
REMARK  7 active torsions:
REMARK  status: ('A' for Active; 'I' for Inactive)
REMARK    1  A    between atoms: C_1  and  O_2
REMARK    2  A    between atoms: O_2  and  C_3
REMARK    3  A    between atoms: C_6  and  C_9
REMARK    4  A    between atoms: C_9  and  C_11
REMARK    5  A    between atoms: C_9  and  N_56
REMARK    6  A    between atoms: C_11  and  N_12
REMARK    7  A    between atoms: C_13  and  C_15
REMARK                            x       y       z     vdW  Elec       q    Type
REMARK                         _______ _______ _______ _____ _____    ______ ____
ROOT
ATOM      1  C   UNL     1      -4.940  -0.009  -0.013  0.00  0.00    -0.020 C 
ENDROOT
BRANCH   1   7
ATOM      2  C   UNL     1      -3.610   1.550  -1.303  0.00  0.00    -0.078 C 
ATOM      3  C   UNL     1      -3.541   2.311  -2.629  0.00  0.00    -0.019 C 
ATOM      4  C   UNL     1      -4.700   3.310  -2.699  0.00  0.00    -0.004 C 
ATOM      5  C   UNL     1      -6.024   2.555  -2.550  0.00  0.00    -0.019 C 
ATOM      6  C   UNL     1      -6.021   1.786  -1.226  0.00  0.00    -0.078 C 
ATOM      7  N   UNL     1      -4.897   0.826  -1.232  0.00  0.00    +0.385 N 
ATOM      8  H   UNL     1      -4.983   0.218  -2.055  0.00  0.00    -0.081 HD
ENDBRANCH   1   7
BRANCH   1  12
ATOM      9  C   UNL     1      -8.640  -2.146   0.071  0.00  0.00    +0.120 A 
ATOM     10  C   UNL     1      -8.111  -1.625   1.243  0.00  0.00    +0.046 A 
ATOM     11  C   UNL     1      -6.915  -0.935   1.214  0.00  0.00    +0.005 A 
ATOM     12  C   UNL     1      -6.245  -0.762   0.016  0.00  0.00    -0.059 A 
ATOM     13  C   UNL     1      -6.772  -1.275  -1.154  0.00  0.00    +0.005 A 
ATOM     14  C   UNL     1      -7.965  -1.971  -1.129  0.00  0.00    +0.046 A 
BRANCH   9  16
ATOM     15  C   UNL     1     -10.301  -3.332  -1.147  0.00  0.00    +0.277 C 
ATOM     16  O   UNL     1      -9.817  -2.825   0.098  0.00  0.00    -0.495 OA
ENDBRANCH   9  16
ENDBRANCH   1  12
BRANCH   1  17
ATOM     17  C   UNL     1      -3.777  -1.002  -0.051  0.00  0.00    +0.094 C 
BRANCH  17  18
ATOM     18  N   UNL     1      -3.780  -1.804   1.175  0.00  0.00    -0.312 N 
ATOM     19  C   UNL     1      -2.913  -2.826   1.314  0.00  0.00    +0.251 C 
ATOM     20  O   UNL     1      -2.128  -3.083   0.421  0.00  0.00    -0.270 OA
ATOM     21  H   UNL     1      -4.406  -1.599   1.887  0.00  0.00    +0.149 HD
BRANCH  19  22
ATOM     22  C   UNL     1      -2.915  -3.631   2.547  0.00  0.00    +0.122 A 
ATOM     23  C   UNL     1      -3.803  -3.350   3.571  0.00  0.00    +0.031 A 
ATOM     24  C   UNL     1      -3.771  -4.152   4.740  0.00  0.00    +0.018 A 
ATOM     25  C   UNL     1      -4.657  -3.893   5.797  0.00  0.00    +0.011 A 
ATOM     26  C   UNL     1      -4.620  -4.669   6.920  0.00  0.00    +0.001 A 
ATOM     27  C   UNL     1      -3.711  -5.713   7.024  0.00  0.00    +0.004 A 
ATOM     28  C   UNL     1      -2.832  -5.984   5.998  0.00  0.00    +0.047 A 
ATOM     29  C   UNL     1      -2.850  -5.209   4.844  0.00  0.00    +0.139 A 
ATOM     30  O   UNL     1      -1.987  -5.476   3.840  0.00  0.00    -0.422 OA
ATOM     31  C   UNL     1      -1.977  -4.747   2.712  0.00  0.00    +0.350 A 
ATOM     32  O   UNL     1      -1.188  -5.013   1.825  0.00  0.00    -0.244 OA
ENDBRANCH  19  22
ENDBRANCH  17  18
ENDBRANCH   1  17
TORSDOF 6
