REMARK  Name = ZINC02656576
REMARK  3 active torsions:
REMARK  status: ('A' for Active; 'I' for Inactive)
REMARK    1  A    between atoms: C_16  and  C_19
REMARK    2  A    between atoms: C_21  and  C_30
REMARK    3  A    between atoms: C_22  and  N_24
REMARK                            x       y       z     vdW  Elec       q    Type
REMARK                         _______ _______ _______ _____ _____    ______ ____
ROOT
ATOM      1  C   UNL     1      -0.882   1.556   1.429  0.00  0.00    +0.000 C 
ATOM      2  C   UNL     1      -0.120   1.124   0.175  0.00  0.00    +0.004 C 
ATOM      3  C   UNL     1      -0.841   1.652  -1.067  0.00  0.00    +0.045 C 
ATOM      4  C   UNL     1      -2.260   1.088  -1.111  0.00  0.00    +0.099 C 
ATOM      5  C   UNL     1      -3.024   1.513   0.143  0.00  0.00    +0.045 C 
ATOM      6  C   UNL     1      -2.302   0.986   1.385  0.00  0.00    +0.004 C 
ATOM      7  N   UNL     1      -2.954   1.595  -2.305  0.00  0.00    -0.308 N 
ATOM      8  C   UNL     1      -4.126   0.968  -2.693  0.00  0.00    +0.133 A 
ATOM      9  C   UNL     1      -4.317  -0.374  -2.304  0.00  0.00    +0.062 A 
ATOM     10  C   UNL     1      -5.501  -1.052  -2.686  0.00  0.00    +0.018 A 
ATOM     11  C   UNL     1      -5.660  -2.374  -2.286  0.00  0.00    +0.025 A 
ATOM     12  C   UNL     1      -4.670  -2.988  -1.536  0.00  0.00    +0.198 A 
ATOM     13  C   UNL     1      -3.357  -1.061  -1.538  0.00  0.00    +0.112 A 
ATOM     14  N   UNL     1      -2.202  -0.380  -1.176  0.00  0.00    -0.309 N 
ATOM     15  O   UNL     1      -5.000  -4.278  -1.257  0.00  0.00    -0.473 OA
ATOM     16  C   UNL     1      -6.415  -4.458  -1.430  0.00  0.00    +0.194 C 
ATOM     17  C   UNL     1      -6.765  -3.390  -2.493  0.00  0.00    +0.087 C 
ATOM     18  C   UNL     1      -6.479  -0.307  -3.477  0.00  0.00    +0.100 A 
ATOM     19  C   UNL     1      -6.175   1.026  -3.799  0.00  0.00    +0.142 A 
ATOM     20  N   UNL     1      -5.041   1.596  -3.405  0.00  0.00    -0.215 NA
ATOM     21  H   UNL     1      -2.600   2.347  -2.805  0.00  0.00    +0.150 HD
ATOM     22  H   UNL     1      -1.383  -0.858  -0.974  0.00  0.00    +0.149 HD
ATOM     23  N   UNL     1      -3.506  -2.353  -1.141  0.00  0.00    -0.314 N 
ATOM     24  H   UNL     1      -2.792  -2.832  -0.578  0.00  0.00    +0.170 HD
ENDROOT
BRANCH  19  25
ATOM     25  N   UNL     1      -7.076   1.762  -4.544  0.00  0.00    -0.314 N 
ATOM     26  C   UNL     1      -6.485   2.179  -5.822  0.00  0.00    +0.106 C 
ATOM     27  C   UNL     1      -7.553   2.864  -6.679  0.00  0.00    +0.019 C 
ATOM     28  C   UNL     1      -8.100   4.080  -5.928  0.00  0.00    +0.003 C 
ATOM     29  C   UNL     1      -8.666   3.626  -4.580  0.00  0.00    +0.019 C 
ATOM     30  C   UNL     1      -7.566   2.919  -3.783  0.00  0.00    +0.106 C 
ENDBRANCH  19  25
BRANCH  16  31
ATOM     31  C   UNL     1      -6.724  -5.863  -1.951  0.00  0.00    +0.153 C 
ATOM     32 CL   UNL     1      -6.444  -7.066  -0.638  0.00  0.00    -0.122 Cl
ENDBRANCH  16  31
BRANCH  18  33
ATOM     33  C   UNL     1      -7.703  -0.914  -3.907  0.00  0.00    +0.103 C 
ATOM     34  N   UNL     1      -8.674  -1.395  -4.248  0.00  0.00    -0.191 NA
ENDBRANCH  18  33
TORSDOF 3
