REMARK  Name = ZINC00828187
REMARK  3 active torsions:
REMARK  status: ('A' for Active; 'I' for Inactive)
REMARK    1  A    between atoms: C_6  and  N_7
REMARK    2  A    between atoms: N_7  and  S_8
REMARK    3  A    between atoms: S_8  and  C_11
REMARK                            x       y       z     vdW  Elec       q    Type
REMARK                         _______ _______ _______ _____ _____    ______ ____
ROOT
ATOM      1  S   UNL     1       4.073  -0.866  -0.022  0.00  0.00    +0.072 S 
ATOM      2  O   UNL     1       5.231  -0.155   0.393  0.00  0.00    -0.150 OA
ATOM      3  O   UNL     1       3.664  -2.081   0.592  0.00  0.00    -0.150 OA
ENDROOT
BRANCH   1   4
ATOM      4  C   UNL     1       2.717   0.251   0.121  0.00  0.00    +0.112 A 
ATOM      5  C   UNL     1       1.424  -0.235   0.161  0.00  0.00    +0.032 A 
ATOM      6  C   UNL     1       0.358   0.638   0.272  0.00  0.00    +0.051 A 
ATOM      7  C   UNL     1       0.584   2.004   0.342  0.00  0.00    +0.162 A 
ATOM      8  C   UNL     1       1.884   2.493   0.303  0.00  0.00    +0.164 A 
ATOM      9  C   UNL     1       2.949   1.611   0.192  0.00  0.00    +0.078 A 
ATOM     10  O   UNL     1       2.129   3.830   0.379  0.00  0.00    -0.485 OA
ATOM     11  C   UNL     1       1.024   4.702   0.114  0.00  0.00    +0.270 C 
ATOM     12  C   UNL     1      -0.194   4.183   0.889  0.00  0.00    +0.270 C 
ATOM     13  O   UNL     1      -0.476   2.852   0.442  0.00  0.00    -0.485 OA
ENDBRANCH   1   4
BRANCH   1  14
ATOM     14  N   UNL     1       4.270  -1.193  -1.633  0.00  0.00    -0.216 N 
ATOM     15  H   UNL     1       4.145  -2.096  -1.964  0.00  0.00    +0.174 HD
BRANCH  14  21
ATOM     16  C   UNL     1       3.671   0.348  -3.392  0.00  0.00    +0.026 A 
ATOM     17  C   UNL     1       4.016   1.365  -4.261  0.00  0.00    +0.023 A 
ATOM     18  C   UNL     1       5.306   1.863  -4.268  0.00  0.00    +0.059 A 
ATOM     19  C   UNL     1       6.255   1.348  -3.400  0.00  0.00    +0.061 A 
ATOM     20  C   UNL     1       5.914   0.334  -2.525  0.00  0.00    +0.046 A 
ATOM     21  C   UNL     1       4.618  -0.167  -2.517  0.00  0.00    +0.050 A 
ATOM     22 CL   UNL     1       7.873   1.976  -3.411  0.00  0.00    -0.082 Cl
ATOM     23 CL   UNL     1       5.738   3.137  -5.365  0.00  0.00    -0.082 Cl
ENDBRANCH  14  21
ENDBRANCH   1  14
TORSDOF 3
