REMARK  Name = ZINC49313244
REMARK  5 active torsions:
REMARK  status: ('A' for Active; 'I' for Inactive)
REMARK    1  A    between atoms: C_1  and  C_2
REMARK    2  A    between atoms: C_3  and  N_12
REMARK    3  A    between atoms: C_5  and  C_9
REMARK    4  A    between atoms: C_13  and  C_15
REMARK    5  A    between atoms: C_18  and  C_20
REMARK                            x       y       z     vdW  Elec       q    Type
REMARK                         _______ _______ _______ _____ _____    ______ ____
ROOT
ATOM      1  C   UNL     1      -0.015   1.495   0.015  0.00  0.00    +0.048 C 
ATOM      2  C   UNL     1       0.014  -0.012   0.002  0.00  0.00    +0.006 A 
ATOM      3  C   UNL     1       0.016  -0.694  -1.209  0.00  0.00    +0.040 A 
ATOM      4  C   UNL     1       0.042  -2.080  -1.224  0.00  0.00    +0.036 A 
ATOM      5  C   UNL     1       0.067  -2.787  -0.022  0.00  0.00    +0.041 A 
ATOM      6  C   UNL     1       0.066  -2.095   1.190  0.00  0.00    +0.051 A 
ATOM      7  C   UNL     1       0.045  -0.712   1.196  0.00  0.00    +0.129 A 
ATOM      8  F   UNL     1       0.050  -0.043   2.369  0.00  0.00    -0.205 F 
ENDROOT
BRANCH   5   9
ATOM      9  C   UNL     1       0.095  -4.265  -0.031  0.00  0.00    +0.242 C 
ATOM     10  O   UNL     1       0.096  -4.866  -1.088  0.00  0.00    -0.270 OA
ATOM     11  N   UNL     1       0.119  -4.946   1.132  0.00  0.00    -0.325 N 
ATOM     12  H   UNL     1       0.119  -4.466   1.975  0.00  0.00    +0.145 HD
ATOM     13  H   UNL     1       0.138  -5.916   1.125  0.00  0.00    +0.145 HD
ENDBRANCH   5   9
BRANCH   3  14
ATOM     14  N   UNL     1      -0.010   0.018  -2.413  0.00  0.00    -0.280 N 
ATOM     15  C   UNL     1      -0.501  -0.559  -3.527  0.00  0.00    +0.267 C 
ATOM     16  O   UNL     1      -1.014  -1.661  -3.466  0.00  0.00    -0.268 OA
ATOM     17  H   UNL     1       0.326   0.928  -2.445  0.00  0.00    +0.155 HD
BRANCH  15  18
ATOM     18  C   UNL     1      -0.418   0.143  -4.818  0.00  0.00    +0.133 A 
ATOM     19  C   UNL     1      -0.908  -0.404  -5.974  0.00  0.00    +0.080 A 
ATOM     20  S   UNL     1      -0.561   0.783  -7.111  0.00  0.00    -0.080 S 
ATOM     21  C   UNL     1       0.178   1.910  -6.111  0.00  0.00    +0.076 A 
ATOM     22  N   UNL     1       0.137   1.354  -4.930  0.00  0.00    -0.240 NA
ATOM     23  C   UNL     1       0.750   3.253  -6.486  0.00  0.00    +0.073 C 
ENDBRANCH  15  18
ENDBRANCH   3  14
TORSDOF 3
