REMARK  Name = ZINC37155350
REMARK  5 active torsions:
REMARK  status: ('A' for Active; 'I' for Inactive)
REMARK    1  A    between atoms: C_1  and  C_2
REMARK    2  A    between atoms: C_6  and  C_18
REMARK    3  A    between atoms: C_8  and  S_11
REMARK    4  A    between atoms: S_11  and  C_12
REMARK    5  A    between atoms: N_16  and  C_17
REMARK                            x       y       z     vdW  Elec       q    Type
REMARK                         _______ _______ _______ _____ _____    ______ ____
ROOT
ATOM      1  C   UNL     1       0.103   1.970   0.770  0.00  0.00    +0.007 C 
ATOM      2  C   UNL     1       0.027   0.461   0.533  0.00  0.00    -0.013 C 
ATOM      3  C   UNL     1      -1.436   0.014   0.555  0.00  0.00    +0.004 C 
ATOM      4  C   UNL     1      -1.511  -1.496   0.318  0.00  0.00    +0.020 C 
ATOM      5  C   UNL     1      -0.739  -2.225   1.419  0.00  0.00    +0.105 C 
ATOM      6  C   UNL     1       0.724  -1.778   1.397  0.00  0.00    +0.071 C 
ATOM      7  C   UNL     1       0.800  -0.268   1.634  0.00  0.00    +0.019 C 
ENDROOT
BRANCH   5   8
ATOM      8  C   UNL     1      -0.812  -3.677   1.191  0.00  0.00    +0.067 C 
ATOM      9  N   UNL     1      -0.868  -4.798   1.014  0.00  0.00    -0.196 NA
ENDBRANCH   5   8
BRANCH   6  10
ATOM     10  S   UNL     1       1.640  -2.642   2.703  0.00  0.00    -0.081 S 
BRANCH  10  11
ATOM     11  C   UNL     1       3.321  -2.208   2.403  0.00  0.00    +0.191 A 
ATOM     12  N   UNL     1       3.778  -1.506   1.391  0.00  0.00    -0.123 NA
ATOM     13  N   UNL     1       5.053  -1.381   1.487  0.00  0.00    -0.137 NA
ATOM     14  C   UNL     1       5.483  -1.989   2.556  0.00  0.00    +0.225 A 
ATOM     15  N   UNL     1       4.395  -2.533   3.181  0.00  0.00    -0.312 N 
ATOM     16  C   UNL     1       4.384  -3.307   4.425  0.00  0.00    +0.152 C 
ENDBRANCH  10  11
ENDBRANCH   6  10
TORSDOF 3
