REMARK  Name = ZINC06301152
REMARK  7 active torsions:
REMARK  status: ('A' for Active; 'I' for Inactive)
REMARK    1  A    between atoms: C_1  and  C_2
REMARK    2  A    between atoms: C_4  and  C_39
REMARK    3  A    between atoms: C_9  and  C_14
REMARK    4  A    between atoms: C_14  and  C_16
REMARK    5  A    between atoms: C_14  and  N_73
REMARK    6  A    between atoms: N_20  and  C_21
REMARK    7  A    between atoms: C_21  and  C_22
REMARK                            x       y       z     vdW  Elec       q    Type
REMARK                         _______ _______ _______ _____ _____    ______ ____
ROOT
ATOM      1  C   UNL     1      -2.840   1.454  -2.452  0.00  0.00    +0.039 C 
ENDROOT
BRANCH   1  10
ATOM      2  C   UNL     1      -1.504   7.110  -7.125  0.00  0.00    +0.044 C 
ATOM      3  C   UNL     1      -2.000   6.588  -5.801  0.00  0.00    -0.050 A 
ATOM      4  C   UNL     1      -2.492   7.475  -4.853  0.00  0.00    +0.008 A 
ATOM      5  C   UNL     1      -2.949   7.020  -3.635  0.00  0.00    -0.026 A 
ATOM      6  C   UNL     1      -2.920   5.659  -3.352  0.00  0.00    +0.052 A 
ATOM      7  C   UNL     1      -2.420   4.763  -4.316  0.00  0.00    -0.001 A 
ATOM      8  C   UNL     1      -1.961   5.247  -5.545  0.00  0.00    +0.013 A 
ATOM      9  C   UNL     1      -2.389   3.332  -4.006  0.00  0.00    +0.017 A 
ATOM     10  C   UNL     1      -2.853   2.920  -2.800  0.00  0.00    +0.011 A 
ATOM     11  C   UNL     1      -3.344   3.860  -1.869  0.00  0.00    +0.251 A 
ATOM     12  O   UNL     1      -3.753   3.469  -0.789  0.00  0.00    -0.268 OA
ATOM     13  N   UNL     1      -3.372   5.176  -2.142  0.00  0.00    -0.322 N 
ATOM     14  H   UNL     1      -3.716   5.795  -1.479  0.00  0.00    +0.169 HD
ATOM     15  C   UNL     1      -3.481   7.994  -2.615  0.00  0.00    +0.046 C 
ENDBRANCH   1  10
BRANCH   1  26
ATOM     16  C   UNL     1      -2.057  -0.166  -0.833  0.00  0.00    -0.077 C 
ATOM     17  C   UNL     1      -1.405  -0.321   0.543  0.00  0.00    -0.018 C 
ATOM     18  C   UNL     1       0.014   0.253   0.498  0.00  0.00    +0.003 C 
ATOM     19  C   UNL     1      -0.053   1.721   0.065  0.00  0.00    -0.044 C 
ATOM     20  C   UNL     1      -0.744   1.817  -1.296  0.00  0.00    -0.071 C 
ATOM     21  C   UNL     1      -0.848   2.521   1.099  0.00  0.00    +0.005 C 
ATOM     22  C   UNL     1      -0.913   3.988   0.670  0.00  0.00    +0.000 C 
ATOM     23  C   UNL     1       0.505   4.553   0.568  0.00  0.00    +0.000 C 
ATOM     24  C   UNL     1       1.299   3.754  -0.468  0.00  0.00    +0.000 C 
ATOM     25  C   UNL     1       1.365   2.287  -0.039  0.00  0.00    +0.005 C 
ATOM     26  N   UNL     1      -2.112   1.270  -1.179  0.00  0.00    +0.390 N 
ATOM     27  H   UNL     1      -2.610   1.773  -0.435  0.00  0.00    -0.080 HD
ENDBRANCH   1  26
BRANCH   1  28
ATOM     28  C   UNL     1      -4.255   0.966  -2.279  0.00  0.00    +0.143 A 
ATOM     29  N   UNL     1      -5.021   1.142  -1.230  0.00  0.00    -0.115 NA
ATOM     30  N   UNL     1      -6.156   0.580  -1.467  0.00  0.00    -0.023 NA
ATOM     31  N   UNL     1      -6.131   0.043  -2.637  0.00  0.00    -0.044 NA
ATOM     32  N   UNL     1      -4.976   0.259  -3.170  0.00  0.00    -0.226 N 
BRANCH  32  33
ATOM     33  C   UNL     1      -4.532  -0.182  -4.494  0.00  0.00    +0.182 C 
BRANCH  33  34
ATOM     34  C   UNL     1      -3.893  -1.542  -4.382  0.00  0.00    -0.026 A 
ATOM     35  C   UNL     1      -2.535  -1.651  -4.152  0.00  0.00    +0.008 A 
ATOM     36  C   UNL     1      -1.949  -2.898  -4.044  0.00  0.00    +0.038 A 
ATOM     37  C   UNL     1      -2.721  -4.039  -4.178  0.00  0.00    +0.123 A 
ATOM     38  C   UNL     1      -4.081  -3.929  -4.415  0.00  0.00    +0.038 A 
ATOM     39  C   UNL     1      -4.666  -2.681  -4.517  0.00  0.00    +0.008 A 
ATOM     40  F   UNL     1      -2.149  -5.258  -4.078  0.00  0.00    -0.205 F 
ENDBRANCH  33  34
ENDBRANCH  32  33
ENDBRANCH   1  28
TORSDOF 5
