REMARK  Name = ZINC38633639
REMARK  9 active torsions:
REMARK  status: ('A' for Active; 'I' for Inactive)
REMARK    1  A    between atoms: C_1  and  C_2
REMARK    2  A    between atoms: C_2  and  C_3
REMARK    3  A    between atoms: N_5  and  C_6
REMARK    4  A    between atoms: C_9  and  S_13
REMARK    5  A    between atoms: C_10  and  C_12
REMARK    6  A    between atoms: S_13  and  N_16
REMARK    7  A    between atoms: N_22  and  S_26
REMARK    8  A    between atoms: S_26  and  C_29
REMARK    9  A    between atoms: C_32  and  C_35
REMARK                            x       y       z     vdW  Elec       q    Type
REMARK                         _______ _______ _______ _____ _____    ______ ____
ROOT
ATOM      1  N   UNL     1      -7.508  -4.234  -1.954  0.00  0.00    -0.176 NA
ATOM      2  C   UNL     1      -7.814  -3.798  -3.323  0.00  0.00    +0.113 C 
ATOM      3  C   UNL     1      -6.731  -4.335  -4.265  0.00  0.00    +0.070 C 
ATOM      4  C   UNL     1      -6.617  -5.851  -4.093  0.00  0.00    +0.144 C 
ATOM      5  C   UNL     1      -6.222  -6.186  -2.654  0.00  0.00    +0.070 C 
ATOM      6  C   UNL     1      -7.294  -5.665  -1.699  0.00  0.00    +0.113 C 
ATOM      7  N   UNL     1      -7.905  -6.484  -4.413  0.00  0.00    -0.144 NA
ATOM      8  C   UNL     1      -7.649  -7.376  -5.566  0.00  0.00    +0.140 C 
ATOM      9  C   UNL     1      -6.350  -6.787  -6.172  0.00  0.00    +0.179 C 
ATOM     10  O   UNL     1      -5.623  -6.363  -4.996  0.00  0.00    -0.356 OA
ENDROOT
BRANCH   1  11
ATOM     11  S   UNL     1      -7.399  -3.132  -0.723  0.00  0.00    +0.061 S 
ATOM     12  O   UNL     1      -7.572  -3.857   0.487  0.00  0.00    -0.153 OA
ATOM     13  O   UNL     1      -8.232  -2.038  -1.081  0.00  0.00    -0.153 OA
BRANCH  11  17
ATOM     14  C   UNL     1      -3.149  -1.567  -0.696  0.00  0.00    +0.034 A 
ATOM     15  C   UNL     1      -4.199  -0.724  -1.037  0.00  0.00    +0.025 A 
ATOM     16  C   UNL     1      -5.494  -1.204  -1.045  0.00  0.00    +0.030 A 
ATOM     17  C   UNL     1      -5.745  -2.523  -0.713  0.00  0.00    +0.108 A 
ATOM     18  C   UNL     1      -4.703  -3.365  -0.372  0.00  0.00    -0.022 A 
ATOM     19  C   UNL     1      -3.405  -2.892  -0.369  0.00  0.00    +0.028 A 
ATOM     20  C   UNL     1      -4.982  -4.801  -0.011  0.00  0.00    +0.046 C 
BRANCH  14  23
ATOM     21  C   UNL     1      -0.820  -1.885  -1.064  0.00  0.00    +0.217 C 
ATOM     22  O   UNL     1      -1.032  -3.051  -1.324  0.00  0.00    -0.275 OA
ATOM     23  N   UNL     1      -1.836  -1.083  -0.688  0.00  0.00    -0.285 N 
ATOM     24  H   UNL     1      -1.657  -0.171  -0.411  0.00  0.00    +0.155 HD
BRANCH  21  26
ATOM     25  C   UNL     1       1.534  -2.443  -1.606  0.00  0.00    +0.013 C 
ATOM     26  C   UNL     1       0.579  -1.334  -1.162  0.00  0.00    +0.093 C 
ENDBRANCH  21  26
ENDBRANCH  14  23
ENDBRANCH  11  17
ENDBRANCH   1  11
BRANCH   7  27
ATOM     27  S   UNL     1      -9.350  -6.246  -3.640  0.00  0.00    +0.063 S 
ATOM     28  O   UNL     1      -9.861  -7.535  -3.329  0.00  0.00    -0.153 OA
ATOM     29  O   UNL     1      -9.121  -5.257  -2.646  0.00  0.00    -0.153 OA
BRANCH  27  30
ATOM     30  C   UNL     1     -10.458  -5.536  -4.812  0.00  0.00    +0.106 A 
ATOM     31  C   UNL     1     -10.461  -4.169  -5.019  0.00  0.00    +0.029 A 
ATOM     32  C   UNL     1     -11.330  -3.611  -5.938  0.00  0.00    +0.005 A 
ATOM     33  C   UNL     1     -12.195  -4.421  -6.651  0.00  0.00    -0.050 A 
ATOM     34  C   UNL     1     -12.190  -5.787  -6.445  0.00  0.00    +0.005 A 
ATOM     35  C   UNL     1     -11.319  -6.346  -5.529  0.00  0.00    +0.029 A 
ATOM     36  C   UNL     1     -13.143  -3.813  -7.653  0.00  0.00    +0.044 C 
ENDBRANCH  27  30
ENDBRANCH   7  27
TORSDOF 6
