REMARK  Name = ZINC19678759
REMARK  5 active torsions:
REMARK  status: ('A' for Active; 'I' for Inactive)
REMARK    1  A    between atoms: C_1  and  C_2
REMARK    2  A    between atoms: C_5  and  C_20
REMARK    3  A    between atoms: C_6  and  S_8
REMARK    4  A    between atoms: S_8  and  N_11
REMARK    5  A    between atoms: C_15  and  C_18
REMARK                            x       y       z     vdW  Elec       q    Type
REMARK                         _______ _______ _______ _____ _____    ______ ____
ROOT
ATOM      1  S   UNL     1       1.464   3.809   0.450  0.00  0.00    +0.061 S 
ATOM      2  O   UNL     1       2.320   4.448  -0.488  0.00  0.00    -0.153 OA
ATOM      3  O   UNL     1       0.087   4.136   0.570  0.00  0.00    -0.153 OA
ENDROOT
BRANCH   1   9
ATOM      4  C   UNL     1       3.353  -0.255  -2.241  0.00  0.00    +0.044 C 
ATOM      5  C   UNL     1       2.442   0.258  -1.155  0.00  0.00    -0.049 A 
ATOM      6  C   UNL     1       1.670  -0.627  -0.426  0.00  0.00    +0.004 A 
ATOM      7  C   UNL     1       0.835  -0.158   0.570  0.00  0.00    +0.005 A 
ATOM      8  C   UNL     1       0.773   1.197   0.838  0.00  0.00    -0.024 A 
ATOM      9  C   UNL     1       1.544   2.082   0.109  0.00  0.00    +0.109 A 
ATOM     10  C   UNL     1       2.380   1.612  -0.888  0.00  0.00    +0.032 A 
ATOM     11  C   UNL     1      -0.138   1.710   1.924  0.00  0.00    +0.046 C 
ENDBRANCH   1   9
BRANCH   1  12
ATOM     12  N   UNL     1       2.139   4.045   1.943  0.00  0.00    -0.176 NA
ATOM     13  C   UNL     1       1.300   4.073   3.148  0.00  0.00    +0.109 C 
ATOM     14  C   UNL     1       1.858   3.057   4.157  0.00  0.00    +0.018 C 
ATOM     15  C   UNL     1       3.335   3.361   4.414  0.00  0.00    +0.013 C 
ATOM     16  C   UNL     1       4.121   3.224   3.107  0.00  0.00    +0.068 C 
ATOM     17  C   UNL     1       3.589   4.236   2.088  0.00  0.00    +0.120 C 
BRANCH  16  18
ATOM     18  C   UNL     1       5.581   3.492   3.368  0.00  0.00    +0.228 C 
ATOM     19  O   UNL     1       6.402   2.638   3.135  0.00  0.00    -0.301 OA
ENDBRANCH  16  18
ENDBRANCH   1  12
TORSDOF 3
