REMARK  Name = ZINC03303598
REMARK  9 active torsions:
REMARK  status: ('A' for Active; 'I' for Inactive)
REMARK    1  A    between atoms: C_1  and  O_2
REMARK    2  A    between atoms: O_2  and  C_3
REMARK    3  A    between atoms: C_6  and  C_9
REMARK    4  A    between atoms: N_13  and  C_28
REMARK    5  A    between atoms: C_14  and  S_16
REMARK    6  A    between atoms: S_16  and  C_17
REMARK    7  A    between atoms: C_17  and  C_18
REMARK    8  A    between atoms: C_31  and  O_34
REMARK    9  A    between atoms: O_34  and  C_35
REMARK                            x       y       z     vdW  Elec       q    Type
REMARK                         _______ _______ _______ _____ _____    ______ ____
ROOT
ATOM      1  C   UNL     1       2.580  -2.534   4.277  0.00  0.00    +0.041 C 
ATOM      2  C   UNL     1       2.547  -3.896   4.385  0.00  0.00    +0.129 C 
ATOM      3  C   UNL     1       3.077  -4.712   5.492  0.00  0.00    +0.275 C 
ATOM      4  O   UNL     1       3.633  -4.315   6.500  0.00  0.00    -0.268 OA
ATOM      5  N   UNL     1       2.814  -5.993   5.154  0.00  0.00    -0.214 N 
ATOM      6  C   UNL     1       2.174  -5.997   3.938  0.00  0.00    +0.169 C 
ATOM      7  N   UNL     1       2.011  -4.779   3.490  0.00  0.00    -0.220 NA
ENDROOT
BRANCH   1  11
ATOM      8  C   UNL     1       0.609  -0.615   1.053  0.00  0.00    +0.120 A 
ATOM      9  C   UNL     1       0.684  -2.003   1.091  0.00  0.00    +0.046 A 
ATOM     10  C   UNL     1       1.322  -2.632   2.136  0.00  0.00    +0.011 A 
ATOM     11  C   UNL     1       1.899  -1.870   3.161  0.00  0.00    -0.023 A 
ATOM     12  C   UNL     1       1.821  -0.472   3.116  0.00  0.00    +0.011 A 
ATOM     13  C   UNL     1       1.184   0.146   2.064  0.00  0.00    +0.046 A 
BRANCH   8  15
ATOM     14  C   UNL     1      -0.591  -0.842  -0.986  0.00  0.00    +0.277 C 
ATOM     15  O   UNL     1      -0.023  -0.001   0.020  0.00  0.00    -0.495 OA
ENDBRANCH   8  15
ENDBRANCH   1  11
BRANCH   5  16
ATOM     16  C   UNL     1       3.140  -7.127   5.914  0.00  0.00    +0.044 A 
ATOM     17  C   UNL     1       4.067  -8.042   5.434  0.00  0.00    +0.027 A 
ATOM     18  C   UNL     1       4.388  -9.157   6.182  0.00  0.00    +0.048 A 
ATOM     19  C   UNL     1       3.783  -9.364   7.413  0.00  0.00    +0.127 A 
ATOM     20  C   UNL     1       2.856  -8.450   7.893  0.00  0.00    +0.048 A 
ATOM     21  C   UNL     1       2.540  -7.331   7.149  0.00  0.00    +0.027 A 
BRANCH  19  22
ATOM     22  O   UNL     1       4.099 -10.463   8.149  0.00  0.00    -0.434 OA
BRANCH  22  23
ATOM     23  C   UNL     1       3.438 -10.612   9.407  0.00  0.00    +0.541 C 
ATOM     24  F   UNL     1       3.735  -9.515  10.223  0.00  0.00    -0.166 F 
ATOM     25  F   UNL     1       2.056 -10.681   9.203  0.00  0.00    -0.166 F 
ENDBRANCH  22  23
ENDBRANCH  19  22
ENDBRANCH   5  16
BRANCH   6  26
ATOM     26  S   UNL     1       1.636  -7.449   3.098  0.00  0.00    -0.083 S 
BRANCH  26  27
ATOM     27  C   UNL     1       0.876  -6.820   1.577  0.00  0.00    +0.132 C 
BRANCH  27  28
ATOM     28  C   UNL     1       0.367  -7.976   0.754  0.00  0.00    +0.059 A 
ATOM     29  C   UNL     1      -0.983  -8.248   0.686  0.00  0.00    +0.095 A 
ATOM     30  C   UNL     1      -1.435  -9.322  -0.081  0.00  0.00    +0.259 A 
ATOM     31  O   UNL     1      -2.630  -9.567  -0.145  0.00  0.00    -0.267 OA
ATOM     32  N   UNL     1      -0.540 -10.099  -0.760  0.00  0.00    -0.262 N 
ATOM     33  C   UNL     1      -0.829 -11.184  -1.553  0.00  0.00    +0.104 A 
ATOM     34  C   UNL     1       0.139 -11.865  -2.167  0.00  0.00    +0.067 A 
ATOM     35  S   UNL     1       1.598 -10.977  -1.644  0.00  0.00    -0.058 S 
ATOM     36  C   UNL     1       0.781  -9.758  -0.637  0.00  0.00    +0.180 A 
ATOM     37  N   UNL     1       1.212  -8.749   0.077  0.00  0.00    -0.227 NA
ENDBRANCH  27  28
ENDBRANCH  26  27
ENDBRANCH   6  26
TORSDOF 8
