REMARK  Name = ZINC59516174
REMARK  4 active torsions:
REMARK  status: ('A' for Active; 'I' for Inactive)
REMARK    1  A    between atoms: C_1  and  C_2
REMARK    2  A    between atoms: C_3  and  C_10
REMARK    3  A    between atoms: N_12  and  N_13
REMARK    4  A    between atoms: C_14  and  C_15
REMARK                            x       y       z     vdW  Elec       q    Type
REMARK                         _______ _______ _______ _____ _____    ______ ____
ROOT
ATOM      1  C   UNL     1      -0.004  -0.378  -2.467  0.00  0.00    +0.282 C 
ATOM      2  O   UNL     1      -0.115   0.807  -2.727  0.00  0.00    -0.267 OA
ATOM      3  N   UNL     1       0.105  -1.279  -3.463  0.00  0.00    -0.202 N 
ATOM      4  H   UNL     1       0.119  -2.228  -3.260  0.00  0.00    +0.178 HD
ENDROOT
BRANCH   1   7
ATOM      5  C   UNL     1      -0.494   1.453  -0.001  0.00  0.00    +0.068 C 
ATOM      6  C   UNL     1      -0.202  -0.025  -0.003  0.00  0.00    +0.070 A 
ATOM      7  C   UNL     1       0.011  -0.809  -1.118  0.00  0.00    +0.133 A 
ATOM      8  N   UNL     1       0.245  -2.118  -0.660  0.00  0.00    -0.289 N 
ATOM      9  C   UNL     1       0.517  -3.354  -1.196  0.00  0.00    +0.101 A 
ATOM     10  C   UNL     1       0.685  -4.417  -0.408  0.00  0.00    +0.067 A 
ATOM     11  S   UNL     1       0.461  -3.705   1.215  0.00  0.00    -0.058 S 
ATOM     12  C   UNL     1       0.158  -2.031   0.695  0.00  0.00    +0.178 A 
ATOM     13  N   UNL     1      -0.098  -0.803   1.069  0.00  0.00    -0.226 NA
ENDBRANCH   1   7
BRANCH   3  14
ATOM     14  N   UNL     1       0.199  -0.846  -4.792  0.00  0.00    -0.187 NA
ATOM     15  C   UNL     1       0.304  -1.713  -5.752  0.00  0.00    +0.138 C 
BRANCH  15  16
ATOM     16  C   UNL     1       0.402  -1.257  -7.151  0.00  0.00    -0.005 A 
ATOM     17  C   UNL     1       0.389   0.108  -7.446  0.00  0.00    +0.010 A 
ATOM     18  C   UNL     1       0.482   0.528  -8.756  0.00  0.00    +0.016 A 
ATOM     19  C   UNL     1       0.588  -0.400  -9.778  0.00  0.00    +0.018 A 
ATOM     20  C   UNL     1       0.602  -1.755  -9.492  0.00  0.00    +0.016 A 
ATOM     21  C   UNL     1       0.515  -2.188  -8.186  0.00  0.00    +0.010 A 
ATOM     22 BR   UNL     1       0.715   0.185 -11.572  0.00  0.00    -0.050 Br
ENDBRANCH  15  16
ENDBRANCH   3  14
TORSDOF 3
