REMARK  Name = ZINC10336771
REMARK  2 active torsions:
REMARK  status: ('A' for Active; 'I' for Inactive)
REMARK    1  A    between atoms: C_5  and  C_7
REMARK    2  A    between atoms: C_18  and  C_20
REMARK                            x       y       z     vdW  Elec       q    Type
REMARK                         _______ _______ _______ _____ _____    ______ ____
ROOT
ATOM      1  C   UNL     1       1.228  -2.186  -0.022  0.00  0.00    +0.163 C 
ATOM      2  C   UNL     1       1.450  -2.664   1.397  0.00  0.00    +0.027 C 
ATOM      3  C   UNL     1       0.518  -3.469   1.948  0.00  0.00    +0.083 C 
ATOM      4  C   UNL     1       0.744  -3.922   3.345  0.00  0.00    +0.044 A 
ATOM      5  C   UNL     1       0.033  -4.983   3.886  0.00  0.00    +0.033 A 
ATOM      6  C   UNL     1       0.276  -5.374   5.190  0.00  0.00    +0.042 A 
ATOM      7  C   UNL     1       1.225  -4.711   5.950  0.00  0.00    +0.023 A 
ATOM      8  C   UNL     1       1.936  -3.651   5.417  0.00  0.00    +0.048 A 
ATOM      9  C   UNL     1       1.702  -3.249   4.114  0.00  0.00    +0.131 A 
ATOM     10  O   UNL     1       2.381  -2.208   3.568  0.00  0.00    -0.479 OA
ATOM     11  C   UNL     1       2.672  -2.267   2.171  0.00  0.00    +0.234 C 
ATOM     12 CL   UNL     1      -0.609  -6.700   5.876  0.00  0.00    -0.084 Cl
ATOM     13  N   UNL     1      -0.587  -3.852   1.260  0.00  0.00    -0.213 NA
ATOM     14  C   UNL     1      -0.852  -3.485   0.034  0.00  0.00    +0.232 C 
ATOM     15  N   UNL     1      -0.002  -2.657  -0.668  0.00  0.00    -0.193 N 
ATOM     16  N   UNL     1      -0.595  -2.476  -1.917  0.00  0.00    -0.165 N 
ATOM     17  N   UNL     1      -1.695  -3.149  -1.925  0.00  0.00    -0.086 NA
ATOM     18  N   UNL     1      -1.881  -3.751  -0.816  0.00  0.00    -0.231 N 
ATOM     19  H   UNL     1      -0.244  -1.942  -2.647  0.00  0.00    +0.195 HD
ATOM     20  H   UNL     1      -2.645  -4.312  -0.608  0.00  0.00    +0.193 HD
ENDROOT
BRANCH   1  25
ATOM     21  C   UNL     1      -0.017   1.378   0.010  0.00  0.00    +0.001 A 
ATOM     22  C   UNL     1       1.171   2.087   0.002  0.00  0.00    +0.003 A 
ATOM     23  C   UNL     1       2.377   1.414  -0.013  0.00  0.00    +0.039 A 
ATOM     24  C   UNL     1       2.397   0.029  -0.021  0.00  0.00    +0.129 A 
ATOM     25  C   UNL     1       1.208  -0.679  -0.013  0.00  0.00    +0.014 A 
ATOM     26  C   UNL     1       0.002  -0.004   0.002  0.00  0.00    +0.008 A 
ATOM     27  F   UNL     1       3.577  -0.630  -0.036  0.00  0.00    -0.205 F 
ENDBRANCH   1  25
BRANCH  11  28
ATOM     28  C   UNL     1       3.764  -3.279   1.932  0.00  0.00    -0.000 A 
ATOM     29  C   UNL     1       3.770  -4.489   2.608  0.00  0.00    +0.027 A 
ATOM     30  C   UNL     1       4.787  -5.392   2.363  0.00  0.00    +0.111 A 
ATOM     31  N   UNL     1       5.743  -5.114   1.499  0.00  0.00    -0.263 NA
ATOM     32  C   UNL     1       5.769  -3.973   0.838  0.00  0.00    +0.111 A 
ATOM     33  C   UNL     1       4.782  -3.024   1.026  0.00  0.00    +0.027 A 
ENDBRANCH  11  28
TORSDOF 2
