REMARK  Name = ZINC01429553
REMARK  6 active torsions:
REMARK  status: ('A' for Active; 'I' for Inactive)
REMARK    1  A    between atoms: C_1  and  N_2
REMARK    2  A    between atoms: N_7  and  C_10
REMARK    3  A    between atoms: C_10  and  C_11
REMARK    4  A    between atoms: N_18  and  C_23
REMARK    5  A    between atoms: N_21  and  N_22
REMARK    6  A    between atoms: C_23  and  C_24
REMARK                            x       y       z     vdW  Elec       q    Type
REMARK                         _______ _______ _______ _____ _____    ______ ____
ROOT
ATOM      1  C   UNL     1       2.165  -1.254   0.795  0.00  0.00    +0.155 C 
ATOM      2  N   UNL     1       1.162  -0.249   0.434  0.00  0.00    -0.279 N 
ATOM      3  C   UNL     1       1.545   1.065   0.218  0.00  0.00    +0.170 A 
ATOM      4  C   UNL     1       0.573   1.999  -0.124  0.00  0.00    +0.153 A 
ATOM      5  C   UNL     1      -0.765   1.585  -0.241  0.00  0.00    +0.283 A 
ATOM      6  O   UNL     1      -1.633   2.385  -0.544  0.00  0.00    -0.265 OA
ATOM      7  N   UNL     1      -1.079   0.291  -0.019  0.00  0.00    -0.255 N 
ATOM      8  C   UNL     1      -0.131  -0.604   0.311  0.00  0.00    +0.334 A 
ATOM      9  O   UNL     1      -0.450  -1.761   0.503  0.00  0.00    -0.246 OA
ATOM     10  N   UNL     1       1.232   3.211  -0.276  0.00  0.00    -0.301 N 
ATOM     11  C   UNL     1       2.548   2.975  -0.028  0.00  0.00    +0.212 A 
ATOM     12  N   UNL     1       2.717   1.701   0.263  0.00  0.00    -0.195 NA
ATOM     13  N   UNL     1       3.547   3.920  -0.073  0.00  0.00    -0.253 N 
ATOM     14  H   UNL     1       3.322   4.861  -0.139  0.00  0.00    +0.169 HD
ENDROOT
BRANCH  13  15
ATOM     15  N   UNL     1       4.856   3.532  -0.023  0.00  0.00    -0.254 NA
ATOM     16  H   UNL     1       5.066   2.875  -0.759  0.00  0.00    +0.140 HD
ATOM     17  H   UNL     1       5.472   4.331  -0.065  0.00  0.00    +0.140 HD
ENDBRANCH  13  15
BRANCH   7  18
ATOM     18  C   UNL     1      -2.472  -0.145  -0.139  0.00  0.00    +0.166 C 
BRANCH  18  19
ATOM     19  C   UNL     1      -2.768  -0.489  -1.576  0.00  0.00    -0.009 A 
ATOM     20  C   UNL     1      -1.752  -0.479  -2.513  0.00  0.00    +0.007 A 
ATOM     21  C   UNL     1      -2.024  -0.794  -3.831  0.00  0.00    +0.000 A 
ATOM     22  C   UNL     1      -3.312  -1.120  -4.213  0.00  0.00    +0.001 A 
ATOM     23  C   UNL     1      -4.329  -1.131  -3.277  0.00  0.00    +0.020 A 
ATOM     24  C   UNL     1      -4.056  -0.820  -1.957  0.00  0.00    +0.046 A 
ATOM     25 CL   UNL     1      -5.332  -0.841  -0.779  0.00  0.00    -0.083 Cl
ENDBRANCH  18  19
ENDBRANCH   7  18
BRANCH  10  26
ATOM     26  C   UNL     1       0.627   4.496  -0.635  0.00  0.00    +0.162 C 
BRANCH  26  27
ATOM     27  C   UNL     1       0.502   4.591  -2.134  0.00  0.00    -0.009 A 
ATOM     28  C   UNL     1      -0.648   4.149  -2.761  0.00  0.00    +0.007 A 
ATOM     29  C   UNL     1      -0.762   4.236  -4.136  0.00  0.00    +0.000 A 
ATOM     30  C   UNL     1       0.273   4.765  -4.885  0.00  0.00    +0.001 A 
ATOM     31  C   UNL     1       1.422   5.208  -4.259  0.00  0.00    +0.020 A 
ATOM     32  C   UNL     1       1.536   5.126  -2.882  0.00  0.00    +0.046 A 
ATOM     33 CL   UNL     1       2.977   5.688  -2.095  0.00  0.00    -0.083 Cl
ENDBRANCH  26  27
ENDBRANCH  10  26
TORSDOF 5
