REMARK  Name = ZINC06089708
REMARK  9 active torsions:
REMARK  status: ('A' for Active; 'I' for Inactive)
REMARK    1  A    between atoms: C_1  and  C_2
REMARK    2  A    between atoms: C_2  and  O_3
REMARK    3  A    between atoms: O_3  and  C_4
REMARK    4  A    between atoms: C_6  and  C_11
REMARK    5  A    between atoms: C_9  and  O_10
REMARK    6  A    between atoms: N_12  and  N_13
REMARK    7  A    between atoms: N_26  and  C_27
REMARK    8  A    between atoms: C_29  and  C_34
REMARK    9  A    between atoms: C_32  and  C_33
REMARK                            x       y       z     vdW  Elec       q    Type
REMARK                         _______ _______ _______ _____ _____    ______ ____
ROOT
ATOM      1  N   UNL     1      -4.312   2.696  -5.142  0.00  0.00    -0.205 N 
ATOM      2  C   UNL     1      -3.877   3.508  -4.114  0.00  0.00    +0.241 A 
ATOM      3  N   UNL     1      -3.356   4.701  -4.385  0.00  0.00    -0.179 NA
ATOM      4  C   UNL     1      -2.938   5.484  -3.395  0.00  0.00    +0.225 A 
ATOM      5  N   UNL     1      -3.041   5.074  -2.134  0.00  0.00    -0.181 NA
ATOM      6  C   UNL     1      -3.562   3.881  -1.864  0.00  0.00    +0.224 A 
ATOM      7  N   UNL     1      -3.976   3.096  -2.854  0.00  0.00    -0.180 NA
ATOM      8  N   UNL     1      -3.667   3.455  -0.555  0.00  0.00    -0.295 N 
ATOM      9  C   UNL     1      -4.268   2.115  -0.484  0.00  0.00    +0.136 C 
ATOM     10  C   UNL     1      -4.312   1.658   0.976  0.00  0.00    +0.179 C 
ATOM     11  O   UNL     1      -5.036   2.618   1.750  0.00  0.00    -0.377 OA
ATOM     12  C   UNL     1      -4.479   3.934   1.704  0.00  0.00    +0.179 C 
ATOM     13  C   UNL     1      -4.437   4.414   0.251  0.00  0.00    +0.136 C 
ATOM     14  N   UNL     1      -2.397   6.723  -3.676  0.00  0.00    -0.283 N 
ATOM     15  H   UNL     1      -4.623   1.796  -4.952  0.00  0.00    +0.177 HD
ATOM     16  H   UNL     1      -2.257   6.994  -4.597  0.00  0.00    +0.155 HD
ENDROOT
BRANCH  14  17
ATOM     17  C   UNL     1      -2.050   7.588  -2.633  0.00  0.00    +0.037 A 
ATOM     18  C   UNL     1      -1.431   7.090  -1.493  0.00  0.00    +0.027 A 
ATOM     19  C   UNL     1      -1.090   7.947  -0.465  0.00  0.00    -0.049 A 
ATOM     20  C   UNL     1      -1.363   9.298  -0.569  0.00  0.00    +0.004 A 
ATOM     21  C   UNL     1      -1.980   9.797  -1.702  0.00  0.00    +0.005 A 
ATOM     22  C   UNL     1      -2.319   8.946  -2.736  0.00  0.00    -0.029 A 
ATOM     23  C   UNL     1      -2.984   9.491  -3.974  0.00  0.00    +0.045 C 
ATOM     24  C   UNL     1      -0.418   7.408   0.772  0.00  0.00    +0.044 C 
ENDBRANCH  14  17
BRANCH   1  26
ATOM     25  C   UNL     1      -4.804   2.443  -7.414  0.00  0.00    +0.138 C 
ATOM     26  N   UNL     1      -4.305   3.169  -6.461  0.00  0.00    -0.188 NA
BRANCH  25  29
ATOM     27  C   UNL     1      -5.221   2.591 -11.143  0.00  0.00    +0.162 A 
ATOM     28  C   UNL     1      -5.325   2.167  -9.831  0.00  0.00    +0.059 A 
ATOM     29  C   UNL     1      -4.697   2.891  -8.814  0.00  0.00    -0.002 A 
ATOM     30  C   UNL     1      -3.973   4.044  -9.128  0.00  0.00    +0.013 A 
ATOM     31  C   UNL     1      -3.869   4.458 -10.439  0.00  0.00    +0.050 A 
ATOM     32  C   UNL     1      -4.493   3.738 -11.448  0.00  0.00    +0.158 A 
BRANCH  32  33
ATOM     33  O   UNL     1      -4.392   4.154 -12.739  0.00  0.00    -0.503 OA
ATOM     34  H   UNL     1      -5.091   4.764 -13.011  0.00  0.00    +0.292 HD
ENDBRANCH  32  33
BRANCH  27  35
ATOM     35  O   UNL     1      -5.831   1.888 -12.135  0.00  0.00    -0.489 OA
BRANCH  35  37
ATOM     36  C   UNL     1      -7.172   0.069 -12.991  0.00  0.00    +0.048 C 
ATOM     37  C   UNL     1      -6.561   0.722 -11.749  0.00  0.00    +0.226 C 
ENDBRANCH  35  37
ENDBRANCH  27  35
ENDBRANCH  25  29
ENDBRANCH   1  26
TORSDOF 6
