REMARK  Name = ZINC64213580
REMARK  4 active torsions:
REMARK  status: ('A' for Active; 'I' for Inactive)
REMARK    1  A    between atoms: C_1  and  C_2
REMARK    2  A    between atoms: C_6  and  C_10
REMARK    3  A    between atoms: C_12  and  C_14
REMARK    4  A    between atoms: N_16  and  C_17
REMARK                            x       y       z     vdW  Elec       q    Type
REMARK                         _______ _______ _______ _____ _____    ______ ____
ROOT
ATOM      1  C   UNL     1       0.429  -1.560   3.832  0.00  0.00    +0.235 C 
ATOM      2  O   UNL     1       0.704  -2.209   4.819  0.00  0.00    -0.274 OA
ATOM      3  N   UNL     1       1.244  -0.564   3.432  0.00  0.00    -0.284 N 
ATOM      4  H   UNL     1       1.066  -0.096   2.601  0.00  0.00    +0.155 HD
ENDROOT
BRANCH   3   5
ATOM      5  C   UNL     1       2.349  -0.205   4.215  0.00  0.00    +0.037 A 
ATOM      6  C   UNL     1       3.511   0.251   3.609  0.00  0.00    +0.027 A 
ATOM      7  C   UNL     1       4.602   0.606   4.380  0.00  0.00    +0.051 A 
ATOM      8  C   UNL     1       4.537   0.509   5.759  0.00  0.00    +0.167 A 
ATOM      9  C   UNL     1       3.370   0.052   6.371  0.00  0.00    +0.169 A 
ATOM     10  C   UNL     1       2.278  -0.299   5.599  0.00  0.00    +0.072 A 
ATOM     11  O   UNL     1       3.566   0.054   7.728  0.00  0.00    -0.447 OA
ATOM     12  C   UNL     1       4.994   0.037   7.869  0.00  0.00    +0.254 C 
ATOM     13  O   UNL     1       5.455   0.791   6.738  0.00  0.00    -0.448 OA
ATOM     14  C   UNL     1       5.539  -1.395   7.844  0.00  0.00    +0.093 C 
ATOM     15  C   UNL     1       6.737  -1.356   8.829  0.00  0.00    +0.008 C 
ATOM     16  C   UNL     1       6.238  -0.401   9.943  0.00  0.00    +0.008 C 
ATOM     17  C   UNL     1       5.433   0.678   9.185  0.00  0.00    +0.093 C 
ENDBRANCH   3   5
BRANCH   1  29
ATOM     18  C   UNL     1      -0.248  -4.400   2.639  0.00  0.00    +0.041 C 
ATOM     19  C   UNL     1      -1.179  -3.333   3.156  0.00  0.00    -0.036 C 
ATOM     20  C   UNL     1      -2.349  -3.652   3.730  0.00  0.00    +0.071 C 
ATOM     21  C   UNL     1      -3.203  -2.545   4.210  0.00  0.00    +0.112 C 
ATOM     22  N   UNL     1      -4.359  -2.793   4.778  0.00  0.00    -0.228 NA
ATOM     23  C   UNL     1      -4.796  -4.032   4.939  0.00  0.00    +0.121 C 
ATOM     24  N   UNL     1      -4.125  -5.091   4.553  0.00  0.00    -0.162 NA
ATOM     25  C   UNL     1      -2.930  -5.014   3.958  0.00  0.00    +0.271 C 
ATOM     26  O   UNL     1      -2.334  -6.019   3.612  0.00  0.00    -0.268 OA
ATOM     27  C   UNL     1      -6.134  -4.236   5.601  0.00  0.00    +0.085 C 
ATOM     28  S   UNL     1      -2.292  -1.072   3.821  0.00  0.00    -0.088 S 
ATOM     29  C   UNL     1      -0.823  -1.868   3.052  0.00  0.00    +0.165 C 
ENDBRANCH   1  29
TORSDOF 2
