REMARK  Name = ZINC34775090
REMARK  3 active torsions:
REMARK  status: ('A' for Active; 'I' for Inactive)
REMARK    1  A    between atoms: C_1  and  C_2
REMARK    2  A    between atoms: N_17  and  C_21
REMARK    3  A    between atoms: C_21  and  C_22
REMARK                            x       y       z     vdW  Elec       q    Type
REMARK                         _______ _______ _______ _____ _____    ______ ____
ROOT
ATOM      1  C   UNL     1       0.093   1.525   0.208  0.00  0.00    +0.073 C 
ATOM      2  C   UNL     1       0.086   0.019   0.144  0.00  0.00    +0.125 A 
ATOM      3  C   UNL     1      -1.134  -0.687   0.097  0.00  0.00    +0.282 A 
ATOM      4  O   UNL     1      -2.200  -0.095   0.106  0.00  0.00    -0.265 OA
ATOM      5  N   UNL     1      -1.088  -2.037   0.041  0.00  0.00    -0.237 N 
ATOM      6  C   UNL     1      -2.248  -2.770  -0.006  0.00  0.00    +0.103 A 
ATOM      7  C   UNL     1      -2.226  -4.161  -0.063  0.00  0.00    +0.074 A 
ATOM      8  C   UNL     1      -3.534  -4.812  -0.106  0.00  0.00    -0.023 A 
ATOM      9  C   UNL     1      -4.587  -3.969  -0.086  0.00  0.00    -0.004 A 
ATOM     10  S   UNL     1      -3.868  -2.355  -0.011  0.00  0.00    -0.074 S 
ATOM     11  C   UNL     1      -6.038  -4.340  -0.121  0.00  0.00    +0.043 C 
ATOM     12  C   UNL     1      -6.149  -5.807  -0.562  0.00  0.00    +0.005 C 
ATOM     13  C   UNL     1      -5.162  -6.646   0.254  0.00  0.00    +0.005 C 
ATOM     14  C   UNL     1      -3.728  -6.320  -0.168  0.00  0.00    +0.037 C 
ATOM     15  C   UNL     1      -0.886  -4.792  -0.072  0.00  0.00    +0.264 A 
ATOM     16  O   UNL     1      -0.780  -6.004  -0.121  0.00  0.00    -0.267 OA
ATOM     17  N   UNL     1       0.211  -4.019  -0.025  0.00  0.00    -0.272 N 
ATOM     18  C   UNL     1       0.127  -2.654   0.032  0.00  0.00    +0.242 A 
ATOM     19  N   UNL     1       1.236  -1.932   0.078  0.00  0.00    -0.111 NA
ATOM     20  N   UNL     1       1.216  -0.649   0.127  0.00  0.00    -0.146 NA
ENDROOT
BRANCH  17  21
ATOM     21  C   UNL     1       1.532  -4.653  -0.034  0.00  0.00    +0.165 C 
BRANCH  21  22
ATOM     22  C   UNL     1       2.049  -4.757   1.378  0.00  0.00    -0.009 A 
ATOM     23  C   UNL     1       2.864  -3.765   1.891  0.00  0.00    +0.007 A 
ATOM     24  C   UNL     1       3.338  -3.861   3.186  0.00  0.00    +0.000 A 
ATOM     25  C   UNL     1       2.998  -4.949   3.968  0.00  0.00    +0.001 A 
ATOM     26  C   UNL     1       2.184  -5.941   3.456  0.00  0.00    +0.020 A 
ATOM     27  C   UNL     1       1.704  -5.843   2.162  0.00  0.00    +0.046 A 
ATOM     28 CL   UNL     1       0.676  -7.087   1.520  0.00  0.00    -0.083 Cl
ENDBRANCH  21  22
ENDBRANCH  17  21
TORSDOF 2
