REMARK  Name = ZINC08914001
REMARK  11 active torsions:
REMARK  status: ('A' for Active; 'I' for Inactive)
REMARK    1  A    between atoms: C_1  and  O_2
REMARK    2  A    between atoms: O_2  and  C_3
REMARK    3  A    between atoms: C_3  and  C_4
REMARK    4  A    between atoms: C_4  and  O_5
REMARK    5  A    between atoms: O_5  and  C_6
REMARK    6  A    between atoms: C_6  and  C_8
REMARK    7  A    between atoms: C_8  and  C_10
REMARK    8  A    between atoms: C_8  and  C_12
REMARK    9  A    between atoms: C_27  and  C_28
REMARK   10  A    between atoms: C_27  and  C_34
REMARK   11  A    between atoms: C_27  and  N_70
REMARK                            x       y       z     vdW  Elec       q    Type
REMARK                         _______ _______ _______ _____ _____    ______ ____
ROOT
ATOM      1  C   UNL     1      -0.556   4.299  -0.287  0.00  0.00    +0.109 A 
ATOM      2  C   UNL     1       0.119   3.607   0.735  0.00  0.00    +0.145 A 
ATOM      3  N   UNL     1      -0.556   2.927   1.642  0.00  0.00    -0.229 NA
ATOM      4  C   UNL     1      -1.893   2.885   1.579  0.00  0.00    +0.091 A 
ATOM      5  C   UNL     1      -2.639   2.164   2.526  0.00  0.00    +0.030 A 
ATOM      6  C   UNL     1      -3.998   2.139   2.439  0.00  0.00    +0.002 A 
ATOM      7  C   UNL     1      -4.662   2.821   1.421  0.00  0.00    +0.002 A 
ATOM      8  C   UNL     1      -3.971   3.530   0.487  0.00  0.00    +0.030 A 
ATOM      9  C   UNL     1      -2.568   3.579   0.545  0.00  0.00    +0.090 A 
ATOM     10  N   UNL     1      -1.865   4.269  -0.361  0.00  0.00    -0.245 NA
ATOM     11  N   UNL     1       1.504   3.646   0.794  0.00  0.00    -0.317 N 
ATOM     12  C   UNL     1       2.079   2.317   0.545  0.00  0.00    +0.088 C 
ATOM     13  C   UNL     1       3.606   2.418   0.540  0.00  0.00    -0.058 C 
ATOM     14  C   UNL     1       3.489   4.283   2.078  0.00  0.00    -0.058 C 
ATOM     15  C   UNL     1       1.962   4.182   2.083  0.00  0.00    +0.088 C 
ATOM     16  N   UNL     1       4.054   2.937   1.849  0.00  0.00    +0.389 N 
ATOM     17  H   UNL     1       3.724   2.306   2.589  0.00  0.00    -0.080 HD
ENDROOT
BRANCH   1  18
ATOM     18  C   UNL     1       0.233   5.076  -1.309  0.00  0.00    +0.251 C 
BRANCH  18  19
ATOM     19  C   UNL     1       0.054   4.446  -2.667  0.00  0.00    +0.330 C 
ATOM     20  O   UNL     1      -0.642   3.466  -2.791  0.00  0.00    -0.249 OA
BRANCH  19  21
ATOM     21  O   UNL     1       0.668   4.973  -3.737  0.00  0.00    -0.461 OA
BRANCH  21  22
ATOM     22  C   UNL     1       0.451   4.314  -5.013  0.00  0.00    +0.260 C 
BRANCH  22  23
ATOM     23  C   UNL     1       1.225   5.051  -6.107  0.00  0.00    +0.200 C 
BRANCH  23  25
ATOM     24  C   UNL     1       3.446   5.596  -6.826  0.00  0.00    +0.194 C 
ATOM     25  O   UNL     1       2.627   4.938  -5.857  0.00  0.00    -0.380 OA
ENDBRANCH  23  25
ENDBRANCH  22  23
ENDBRANCH  21  22
ENDBRANCH  19  21
ENDBRANCH  18  19
BRANCH  18  26
ATOM     26  C   UNL     1      -0.249   6.466  -1.347  0.00  0.00    +0.084 C 
ATOM     27  N   UNL     1      -0.620   7.540  -1.376  0.00  0.00    -0.195 NA
ENDBRANCH  18  26
ENDBRANCH   1  18
BRANCH  16  28
ATOM     28  C   UNL     1       5.531   2.995   1.892  0.00  0.00    -0.007 C 
BRANCH  28  29
ATOM     29  C   UNL     1       5.963   3.493   3.247  0.00  0.00    -0.057 A 
ATOM     30  C   UNL     1       5.358   3.002   4.389  0.00  0.00    +0.002 A 
ATOM     31  C   UNL     1       5.757   3.455   5.632  0.00  0.00    +0.000 A 
ATOM     32  C   UNL     1       6.754   4.408   5.733  0.00  0.00    +0.000 A 
ATOM     33  C   UNL     1       7.354   4.904   4.591  0.00  0.00    +0.000 A 
ATOM     34  C   UNL     1       6.959   4.446   3.348  0.00  0.00    +0.002 A 
ENDBRANCH  28  29
BRANCH  28  35
ATOM     35  C   UNL     1       6.083   1.611   1.666  0.00  0.00    -0.057 A 
ATOM     36  C   UNL     1       5.518   0.528   2.314  0.00  0.00    +0.002 A 
ATOM     37  C   UNL     1       6.021  -0.742   2.104  0.00  0.00    +0.000 A 
ATOM     38  C   UNL     1       7.095  -0.929   1.254  0.00  0.00    +0.000 A 
ATOM     39  C   UNL     1       7.663   0.155   0.610  0.00  0.00    +0.000 A 
ATOM     40  C   UNL     1       7.157   1.425   0.816  0.00  0.00    +0.002 A 
ENDBRANCH  28  35
ENDBRANCH  16  28
TORSDOF 10
