REMARK  Name = ZINC01651985
REMARK  9 active torsions:
REMARK  status: ('A' for Active; 'I' for Inactive)
REMARK    1  A    between atoms: C_1  and  C_2
REMARK    2  A    between atoms: C_2  and  N_58
REMARK    3  A    between atoms: C_3  and  C_4
REMARK    4  A    between atoms: C_3  and  N_58
REMARK    5  A    between atoms: C_5  and  C_6
REMARK    6  A    between atoms: C_5  and  N_58
REMARK    7  A    between atoms: C_6  and  N_7
REMARK    8  A    between atoms: C_15  and  C_24
REMARK    9  A    between atoms: C_16  and  C_18
REMARK                            x       y       z     vdW  Elec       q    Type
REMARK                         _______ _______ _______ _____ _____    ______ ____
ROOT
ATOM      1  N   UNL     1      -1.258  -0.820  -0.676  0.00  0.00    -0.315 N 
ATOM      2  C   UNL     1      -1.599  -2.113  -0.328  0.00  0.00    +0.219 A 
ATOM      3  N   UNL     1      -0.625  -2.952   0.009  0.00  0.00    -0.198 NA
ATOM      4  C   UNL     1      -0.884  -4.204   0.359  0.00  0.00    +0.149 A 
ATOM      5  C   UNL     1      -2.283  -4.638   0.350  0.00  0.00    +0.148 A 
ATOM      6  C   UNL     1      -3.268  -3.688  -0.025  0.00  0.00    +0.186 A 
ATOM      7  N   UNL     1      -2.873  -2.450  -0.352  0.00  0.00    -0.193 NA
ATOM      8  N   UNL     1      -4.554  -4.042  -0.046  0.00  0.00    -0.224 NA
ATOM      9  C   UNL     1      -4.899  -5.277   0.284  0.00  0.00    +0.099 A 
ATOM     10  C   UNL     1      -3.913  -6.220   0.658  0.00  0.00    +0.098 A 
ATOM     11  N   UNL     1      -2.636  -5.876   0.681  0.00  0.00    -0.238 NA
ATOM     12  N   UNL     1       0.128  -5.070   0.712  0.00  0.00    -0.341 N 
ATOM     13  H   UNL     1      -1.949  -0.188  -0.930  0.00  0.00    +0.149 HD
ATOM     14  H   UNL     1      -0.081  -5.984   0.961  0.00  0.00    +0.144 HD
ATOM     15  H   UNL     1       1.049  -4.765   0.712  0.00  0.00    +0.144 HD
ENDROOT
BRANCH  10  16
ATOM     16  C   UNL     1      -4.312  -7.598   1.026  0.00  0.00    +0.002 A 
ATOM     17  C   UNL     1      -5.389  -7.809   1.886  0.00  0.00    +0.010 A 
ATOM     18  C   UNL     1      -5.760  -9.095   2.221  0.00  0.00    +0.001 A 
ATOM     19  C   UNL     1      -5.059 -10.174   1.714  0.00  0.00    +0.000 A 
ATOM     20  C   UNL     1      -3.986  -9.971   0.864  0.00  0.00    +0.001 A 
ATOM     21  C   UNL     1      -3.609  -8.690   0.517  0.00  0.00    +0.010 A 
ENDBRANCH  10  16
BRANCH   9  22
ATOM     22  C   UNL     1      -6.326  -5.673   0.262  0.00  0.00    +0.003 A 
ATOM     23  C   UNL     1      -6.708  -6.879  -0.325  0.00  0.00    +0.010 A 
ATOM     24  C   UNL     1      -8.039  -7.246  -0.337  0.00  0.00    +0.001 A 
ATOM     25  C   UNL     1      -8.993  -6.415   0.222  0.00  0.00    +0.000 A 
ATOM     26  C   UNL     1      -8.620  -5.214   0.800  0.00  0.00    +0.001 A 
ATOM     27  C   UNL     1      -7.293  -4.840   0.824  0.00  0.00    +0.010 A 
ENDBRANCH   9  22
BRANCH   1  28
ATOM     28  C   UNL     1       0.146  -0.404  -0.663  0.00  0.00    +0.086 C 
BRANCH  28  29
ATOM     29  C   UNL     1       0.248   1.063  -1.086  0.00  0.00    -0.060 C 
BRANCH  29  30
ATOM     30  N   UNL     1       1.649   1.505  -0.929  0.00  0.00    +0.380 N 
ATOM     31  H   UNL     1       2.020   1.133  -0.047  0.00  0.00    -0.082 HD
BRANCH  30  33
ATOM     32  C   UNL     1       3.943   1.272  -1.748  0.00  0.00    -0.017 C 
ATOM     33  C   UNL     1       2.469   0.993  -2.048  0.00  0.00    -0.082 C 
ENDBRANCH  30  33
BRANCH  30  34
ATOM     34  C   UNL     1       1.712   2.982  -0.892  0.00  0.00    -0.082 C 
ATOM     35  C   UNL     1       1.271   3.455   0.494  0.00  0.00    -0.017 C 
ENDBRANCH  30  34
ENDBRANCH  29  30
ENDBRANCH  28  29
ENDBRANCH   1  28
TORSDOF 7
