REMARK  Name = ZINC36723725
REMARK  6 active torsions:
REMARK  status: ('A' for Active; 'I' for Inactive)
REMARK    1  A    between atoms: C_6  and  N_7
REMARK    2  A    between atoms: N_10  and  C_13
REMARK    3  A    between atoms: C_13  and  C_14
REMARK    4  A    between atoms: C_14  and  C_16
REMARK    5  A    between atoms: C_14  and  O_18
REMARK    6  A    between atoms: C_16  and  N_17
REMARK                            x       y       z     vdW  Elec       q    Type
REMARK                         _______ _______ _______ _____ _____    ______ ____
ROOT
ATOM      1  N   UNL     1      -1.192  -1.104  -0.316  0.00  0.00    -0.327 N 
ATOM      2  C   UNL     1      -2.450  -0.347  -0.239  0.00  0.00    +0.120 C 
ATOM      3  C   UNL     1      -3.236  -0.830   0.984  0.00  0.00    +0.103 C 
ATOM      4  N   UNL     1      -3.392  -2.289   0.916  0.00  0.00    -0.297 NA
ATOM      5  C   UNL     1      -2.091  -2.968   0.973  0.00  0.00    +0.103 C 
ATOM      6  C   UNL     1      -1.258  -2.572  -0.257  0.00  0.00    +0.120 C 
ENDROOT
BRANCH   1  12
ATOM      7  C   UNL     1       1.220  -1.170  -0.405  0.00  0.00    +0.024 A 
ATOM      8  C   UNL     1       2.430  -0.518  -0.535  0.00  0.00    +0.022 A 
ATOM      9  C   UNL     1       2.463   0.855  -0.707  0.00  0.00    +0.041 A 
ATOM     10  C   UNL     1       1.284   1.578  -0.748  0.00  0.00    +0.022 A 
ATOM     11  C   UNL     1       0.070   0.931  -0.619  0.00  0.00    +0.024 A 
ATOM     12  C   UNL     1       0.035  -0.447  -0.447  0.00  0.00    +0.030 A 
ATOM     13 CL   UNL     1       3.986   1.672  -0.869  0.00  0.00    -0.084 Cl
ENDBRANCH   1  12
BRANCH   4  14
ATOM     14  C   UNL     1      -4.285  -2.773   1.978  0.00  0.00    +0.113 C 
BRANCH  14  15
ATOM     15  C   UNL     1      -5.735  -2.451   1.611  0.00  0.00    +0.111 C 
BRANCH  15  16
ATOM     16  O   UNL     1      -6.085  -3.137   0.407  0.00  0.00    -0.392 OA
ATOM     17  H   UNL     1      -6.012  -4.099   0.467  0.00  0.00    +0.210 HD
ENDBRANCH  15  16
BRANCH  15  18
ATOM     18  C   UNL     1      -6.660  -2.904   2.743  0.00  0.00    -0.053 C 
BRANCH  18  19
ATOM     19  N   UNL     1      -8.052  -2.595   2.390  0.00  0.00    +0.380 N 
ATOM     20  H   UNL     1      -8.151  -1.601   2.252  0.00  0.00    -0.090 HD
ATOM     21  H   UNL     1      -8.299  -3.079   1.540  0.00  0.00    -0.090 HD
ATOM     22  H   UNL     1      -8.662  -2.894   3.137  0.00  0.00    -0.090 HD
ENDBRANCH  18  19
ENDBRANCH  15  18
ENDBRANCH  14  15
ENDBRANCH   4  14
TORSDOF 6
