REMARK  Name = ZINC13644412
REMARK  5 active torsions:
REMARK  status: ('A' for Active; 'I' for Inactive)
REMARK    1  A    between atoms: C_6  and  S_7
REMARK    2  A    between atoms: S_7  and  C_10
REMARK    3  A    between atoms: C_10  and  C_11
REMARK    4  A    between atoms: C_11  and  C_22
REMARK    5  A    between atoms: N_14  and  C_17
REMARK                            x       y       z     vdW  Elec       q    Type
REMARK                         _______ _______ _______ _____ _____    ______ ____
ROOT
ATOM      1  S   UNL     1       1.368  -3.247   3.960  0.00  0.00    -0.002 S 
ATOM      2  O   UNL     1       1.729  -2.307   4.963  0.00  0.00    -0.169 OA
ATOM      3  O   UNL     1       0.382  -4.237   4.218  0.00  0.00    -0.169 OA
ENDROOT
BRANCH   1   9
ATOM      4  C   UNL     1      -0.218  -2.826   1.777  0.00  0.00    +0.027 A 
ATOM      5  C   UNL     1      -0.736  -2.060   0.753  0.00  0.00    +0.006 A 
ATOM      6  C   UNL     1      -0.345  -0.736   0.593  0.00  0.00    -0.041 A 
ATOM      7  C   UNL     1       0.561  -0.186   1.472  0.00  0.00    -0.025 A 
ATOM      8  C   UNL     1       1.085  -0.959   2.499  0.00  0.00    +0.032 A 
ATOM      9  C   UNL     1       0.698  -2.274   2.653  0.00  0.00    +0.089 A 
ATOM     10  C   UNL     1       1.007   1.252   1.376  0.00  0.00    +0.143 C 
ATOM     11  N   UNL     1       0.560   1.824   0.102  0.00  0.00    -0.301 N 
ATOM     12  C   UNL     1      -0.823   1.540  -0.318  0.00  0.00    +0.112 C 
ATOM     13  C   UNL     1      -0.943   0.035  -0.553  0.00  0.00    +0.054 C 
ATOM     14  C   UNL     1       1.397   2.594  -0.670  0.00  0.00    +0.151 C 
ATOM     15  N   UNL     1       2.683   2.841  -0.252  0.00  0.00    -0.333 N 
ATOM     16  H   UNL     1       1.488   3.644  -2.413  0.00  0.00    +0.158 HD
ATOM     17  H   UNL     1       3.000   2.473   0.588  0.00  0.00    +0.145 HD
ATOM     18  H   UNL     1       3.275   3.384  -0.796  0.00  0.00    +0.145 HD
ATOM     19  N   UNL     1       0.905   3.068  -1.806  0.00  0.00    -0.375 N 
ATOM     20  H   UNL     1      -0.062   2.854  -2.074  0.00  0.00    +0.158 HD
ENDBRANCH   1   9
BRANCH   1  21
ATOM     21  C   UNL     1       2.854  -4.013   3.257  0.00  0.00    +0.190 C 
BRANCH  21  22
ATOM     22  C   UNL     1       3.603  -4.774   4.353  0.00  0.00    +0.094 C 
ATOM     23  C   UNL     1       4.887  -5.373   3.773  0.00  0.00    +0.039 C 
ATOM     24  C   UNL     1       4.524  -6.377   2.675  0.00  0.00    +0.106 C 
ATOM     25  N   UNL     1       3.677  -7.437   3.238  0.00  0.00    -0.330 N 
ATOM     26  C   UNL     1       2.418  -6.889   3.759  0.00  0.00    +0.106 C 
ATOM     27  C   UNL     1       2.717  -5.902   4.889  0.00  0.00    +0.039 C 
BRANCH  25  28
ATOM     28  C   UNL     1       3.437  -8.435   2.299  0.00  0.00    +0.032 A 
ATOM     29  C   UNL     1       2.134  -8.804   1.965  0.00  0.00    +0.040 A 
ATOM     30  C   UNL     1       1.938  -9.794   1.025  0.00  0.00    +0.084 A 
ATOM     31  C   UNL     1       4.212 -10.080   0.747  0.00  0.00    +0.084 A 
ATOM     32  C   UNL     1       4.492  -9.097   1.672  0.00  0.00    +0.040 A 
ATOM     33  N   UNL     1       2.950 -10.455   0.399  0.00  0.00    -0.367 N 
ATOM     34  H   UNL     1       2.773 -11.191  -0.294  0.00  0.00    +0.165 HD
ENDBRANCH  25  28
BRANCH  22  35
ATOM     35  C   UNL     1       3.950  -3.829   5.475  0.00  0.00    +0.364 C 
ATOM     36  O   UNL     1       3.593  -4.075   6.603  0.00  0.00    -0.246 OA
ATOM     37  O   UNL     1       4.655  -2.716   5.221  0.00  0.00    -0.246 OA
ENDBRANCH  22  35
ENDBRANCH  21  22
ENDBRANCH   1  21
TORSDOF 5
