REMARK  Name = ZINC35447110
REMARK  8 active torsions:
REMARK  status: ('A' for Active; 'I' for Inactive)
REMARK    1  A    between atoms: C_1  and  O_2
REMARK    2  A    between atoms: O_2  and  C_3
REMARK    3  A    between atoms: C_6  and  N_11
REMARK    4  A    between atoms: C_8  and  O_9
REMARK    5  A    between atoms: O_9  and  C_10
REMARK    6  A    between atoms: N_17  and  C_20
REMARK    7  A    between atoms: C_20  and  C_21
REMARK    8  A    between atoms: C_29  and  C_31
REMARK                            x       y       z     vdW  Elec       q    Type
REMARK                         _______ _______ _______ _____ _____    ______ ____
ROOT
ATOM      1  N   UNL     1      -4.900  -2.579  -0.003  0.00  0.00    -0.269 N 
ATOM      2  C   UNL     1      -6.031  -1.862   0.147  0.00  0.00    +0.307 C 
ATOM      3  O   UNL     1      -5.982  -0.648   0.182  0.00  0.00    -0.252 OA
ATOM      4  N   UNL     1      -7.218  -2.491   0.257  0.00  0.00    -0.283 N 
ATOM      5  C   UNL     1      -7.288  -3.956   0.373  0.00  0.00    +0.124 C 
ATOM      6  C   UNL     1      -8.278  -4.481  -0.672  0.00  0.00    +0.104 C 
ATOM      7  N   UNL     1      -9.562  -3.784  -0.520  0.00  0.00    -0.294 NA
ATOM      8  C   UNL     1      -9.421  -2.345  -0.778  0.00  0.00    +0.104 C 
ATOM      9  C   UNL     1      -8.477  -1.732   0.269  0.00  0.00    +0.124 C 
ATOM     10  H   UNL     1      -4.949  -3.533  -0.170  0.00  0.00    +0.156 HD
ENDROOT
BRANCH   1  14
ATOM     11  C   UNL     1      -1.189  -0.687   0.250  0.00  0.00    +0.162 A 
ATOM     12  C   UNL     1      -2.310   0.033  -0.130  0.00  0.00    +0.051 A 
ATOM     13  C   UNL     1      -3.539  -0.594  -0.214  0.00  0.00    +0.027 A 
ATOM     14  C   UNL     1      -3.653  -1.945   0.082  0.00  0.00    +0.038 A 
ATOM     15  C   UNL     1      -2.531  -2.669   0.463  0.00  0.00    +0.072 A 
ATOM     16  C   UNL     1      -1.298  -2.043   0.542  0.00  0.00    +0.163 A 
BRANCH  11  18
ATOM     17  C   UNL     1       0.059   1.325   0.019  0.00  0.00    +0.277 C 
ATOM     18  O   UNL     1       0.021  -0.068   0.333  0.00  0.00    -0.491 OA
ENDBRANCH  11  18
BRANCH  16  19
ATOM     19  O   UNL     1      -0.197  -2.751   0.909  0.00  0.00    -0.491 OA
ATOM     20  C   UNL     1      -0.384  -4.139   1.194  0.00  0.00    +0.277 C 
ENDBRANCH  16  19
ENDBRANCH   1  14
BRANCH   7  21
ATOM     21  C   UNL     1     -10.589  -4.376  -1.387  0.00  0.00    +0.140 C 
BRANCH  21  22
ATOM     22  C   UNL     1     -11.938  -3.806  -1.030  0.00  0.00    +0.063 A 
ATOM     23  C   UNL     1     -12.636  -3.036  -1.935  0.00  0.00    +0.096 A 
ATOM     24  C   UNL     1     -13.883  -2.517  -1.586  0.00  0.00    +0.275 A 
ATOM     25  O   UNL     1     -14.506  -1.834  -2.384  0.00  0.00    -0.266 OA
ATOM     26  N   UNL     1     -14.406  -2.776  -0.351  0.00  0.00    -0.171 N 
ATOM     27  C   UNL     1     -13.647  -3.549   0.485  0.00  0.00    +0.199 A 
ATOM     28  N   UNL     1     -12.478  -4.043   0.163  0.00  0.00    -0.225 NA
ATOM     29  S   UNL     1     -14.656  -3.645   1.947  0.00  0.00    -0.028 S 
ATOM     30  C   UNL     1     -16.019  -2.654   1.359  0.00  0.00    +0.132 A 
ATOM     31  N   UNL     1     -15.627  -2.338   0.152  0.00  0.00    -0.154 NA
BRANCH  30  32
ATOM     32  C   UNL     1     -17.271  -2.285   2.057  0.00  0.00    +0.012 A 
ATOM     33  C   UNL     1     -18.226  -1.498   1.413  0.00  0.00    +0.011 A 
ATOM     34  C   UNL     1     -19.392  -1.157   2.068  0.00  0.00    +0.003 A 
ATOM     35  C   UNL     1     -19.615  -1.593   3.361  0.00  0.00    +0.038 A 
ATOM     36  C   UNL     1     -18.672  -2.375   4.007  0.00  0.00    +0.124 A 
ATOM     37  C   UNL     1     -17.503  -2.728   3.358  0.00  0.00    +0.049 A 
ATOM     38  F   UNL     1     -18.896  -2.798   5.270  0.00  0.00    -0.205 F 
ENDBRANCH  30  32
ENDBRANCH  21  22
ENDBRANCH   7  21
TORSDOF 6
