REMARK  Name = ZINC39759404
REMARK  11 active torsions:
REMARK  status: ('A' for Active; 'I' for Inactive)
REMARK    1  A    between atoms: C_1  and  C_2
REMARK    2  A    between atoms: C_2  and  N_3
REMARK    3  A    between atoms: C_4  and  CA_21
REMARK    4  A    between atoms: C_7  and  S_8
REMARK    5  A    between atoms: S_8  and  C_9
REMARK    6  A    between atoms: C_9  and  C_10
REMARK    7  A    between atoms: N_12  and  C_13
REMARK    8  A    between atoms: CA_21  and  C_23
REMARK    9  A    between atoms: CA_21  and  N_25
REMARK   10  A    between atoms: C_23  and  O_24
REMARK   11  A    between atoms: C_26  and  C_28
REMARK                            x       y       z     vdW  Elec       q    Type
REMARK                         _______ _______ _______ _____ _____    ______ ____
ROOT
ATOM      1  N   UNL     1       0.700  -0.536   1.173  0.00  0.00    -0.305 N 
ATOM      2  C   UNL     1       2.038  -0.797   1.286  0.00  0.00    +0.157 A 
ATOM      3  N   UNL     1       2.251  -1.208   2.504  0.00  0.00    -0.131 NA
ATOM      4  N   UNL     1       1.148  -1.224   3.164  0.00  0.00    -0.122 NA
ATOM      5  C   UNL     1       0.164  -0.816   2.397  0.00  0.00    +0.192 A 
ENDROOT
BRANCH   1   7
ATOM      6  C   UNL     1      -0.019   1.479  -0.011  0.00  0.00    +0.027 C 
ATOM      7  C   UNL     1      -0.009  -0.051  -0.014  0.00  0.00    +0.122 C 
ENDBRANCH   1   7
BRANCH   5   8
ATOM      8  S   UNL     1      -1.530  -0.663   2.858  0.00  0.00    -0.077 S 
BRANCH   8   9
ATOM      9  C   UNL     1      -1.560  -1.187   4.595  0.00  0.00    +0.173 C 
BRANCH   9  10
ATOM     10  C   UNL     1      -2.970  -1.102   5.120  0.00  0.00    +0.228 C 
ATOM     11  O   UNL     1      -3.866  -0.725   4.394  0.00  0.00    -0.275 OA
ATOM     12  N   UNL     1      -3.236  -1.445   6.396  0.00  0.00    -0.283 N 
ATOM     13  H   UNL     1      -2.533  -1.808   6.957  0.00  0.00    +0.155 HD
BRANCH  12  14
ATOM     14  C   UNL     1      -4.527  -1.278   6.912  0.00  0.00    +0.069 A 
ATOM     15  C   UNL     1      -5.633  -1.468   6.094  0.00  0.00    +0.027 A 
ATOM     16  C   UNL     1      -6.906  -1.303   6.606  0.00  0.00    +0.022 A 
ATOM     17  C   UNL     1      -7.080  -0.949   7.932  0.00  0.00    +0.044 A 
ATOM     18  C   UNL     1      -5.981  -0.758   8.751  0.00  0.00    +0.060 A 
ATOM     19  C   UNL     1      -4.705  -0.927   8.246  0.00  0.00    +0.146 A 
ATOM     20  F   UNL     1      -3.631  -0.747   9.046  0.00  0.00    -0.203 F 
ATOM     21 CL   UNL     1      -8.682  -0.742   8.569  0.00  0.00    -0.083 Cl
ENDBRANCH  12  14
ENDBRANCH   9  10
ENDBRANCH   8   9
ENDBRANCH   5   8
BRANCH   2  22
ATOM     22  CA  UNL     1       3.073  -0.640   0.203  0.00  0.00    +0.167 C 
BRANCH  22  23
ATOM     23  N   UNL     1       4.257   0.026   0.751  0.00  0.00    -0.299 N 
ATOM     24  C   UNL     1       5.079   0.719  -0.062  0.00  0.00    +0.245 C 
ATOM     25  O   UNL     1       4.838   0.790  -1.252  0.00  0.00    -0.270 OA
ATOM     26  H   UNL     1       4.449  -0.031   1.700  0.00  0.00    +0.150 HD
BRANCH  24  27
ATOM     27  C   UNL     1       6.273   1.391   0.491  0.00  0.00    +0.037 A 
ATOM     28  C   UNL     1       6.555   1.306   1.856  0.00  0.00    +0.014 A 
ATOM     29  C   UNL     1       7.671   1.934   2.367  0.00  0.00    +0.021 A 
ATOM     30  C   UNL     1       8.511   2.650   1.529  0.00  0.00    +0.041 A 
ATOM     31  C   UNL     1       8.236   2.738   0.174  0.00  0.00    +0.021 A 
ATOM     32  C   UNL     1       7.126   2.108  -0.349  0.00  0.00    +0.014 A 
ATOM     33 CL   UNL     1       9.913   3.440   2.180  0.00  0.00    -0.084 Cl
ENDBRANCH  24  27
ENDBRANCH  22  23
BRANCH  22  34
ATOM     34  C   UNL     1       3.466  -2.019  -0.332  0.00  0.00    +0.186 C 
BRANCH  34  35
ATOM     35  O   UNL     1       3.896  -2.845   0.752  0.00  0.00    -0.393 OA
ATOM     36  H   UNL     1       4.161  -3.736   0.486  0.00  0.00    +0.209 HD
ENDBRANCH  34  35
ENDBRANCH  22  34
ENDBRANCH   2  22
TORSDOF 10
