REMARK  Name = ZINC33392926
REMARK  6 active torsions:
REMARK  status: ('A' for Active; 'I' for Inactive)
REMARK    1  A    between atoms: C_1  and  N_2
REMARK    2  A    between atoms: N_5  and  C_8
REMARK    3  A    between atoms: C_9  and  N_15
REMARK    4  A    between atoms: C_16  and  C_18
REMARK    5  A    between atoms: C_18  and  S_19
REMARK    6  A    between atoms: S_19  and  C_20
REMARK                            x       y       z     vdW  Elec       q    Type
REMARK                         _______ _______ _______ _____ _____    ______ ____
ROOT
ATOM      1  N   UNL     1       0.380  -5.248  -0.042  0.00  0.00    -0.283 N 
ATOM      2  C   UNL     1      -0.044  -6.335  -0.717  0.00  0.00    +0.228 C 
ATOM      3  O   UNL     1       0.759  -7.064  -1.258  0.00  0.00    -0.275 OA
ATOM      4  H   UNL     1      -0.256  -4.700   0.445  0.00  0.00    +0.155 HD
ENDROOT
BRANCH   1   6
ATOM      5  C   UNL     1       2.126  -3.568  -0.030  0.00  0.00    +0.070 A 
ATOM      6  C   UNL     1       1.740  -4.908  -0.044  0.00  0.00    +0.056 A 
ATOM      7  C   UNL     1       2.705  -5.904  -0.060  0.00  0.00    +0.025 A 
ATOM      8  C   UNL     1       4.046  -5.567  -0.061  0.00  0.00    +0.003 A 
ATOM      9  C   UNL     1       4.430  -4.239  -0.046  0.00  0.00    +0.022 A 
ATOM     10  C   UNL     1       3.474  -3.239  -0.037  0.00  0.00    +0.064 A 
ATOM     11 CL   UNL     1       3.961  -1.573  -0.026  0.00  0.00    -0.082 Cl
BRANCH   5  16
ATOM     12  C   UNL     1       0.014   1.466   0.028  0.00  0.00    -0.096 C 
ATOM     13  N   UNL     1       0.027  -0.003   0.016  0.00  0.00    +0.380 N 
ATOM     14  C   UNL     1       0.710  -0.474  -1.196  0.00  0.00    -0.060 C 
ATOM     15  C   UNL     1       0.624  -2.002  -1.267  0.00  0.00    +0.086 C 
ATOM     16  N   UNL     1       1.157  -2.558  -0.014  0.00  0.00    -0.331 N 
ATOM     17  C   UNL     1       0.642  -2.023   1.256  0.00  0.00    +0.086 C 
ATOM     18  C   UNL     1       0.728  -0.494   1.209  0.00  0.00    -0.060 C 
ATOM     19  H   UNL     1      -0.922  -0.346   0.019  0.00  0.00    -0.082 HD
ENDBRANCH   5  16
ENDBRANCH   1   6
BRANCH   2  20
ATOM     20  C   UNL     1      -1.517  -6.643  -0.798  0.00  0.00    +0.175 C 
BRANCH  20  21
ATOM     21  S   UNL     1      -1.764  -8.158  -1.766  0.00  0.00    -0.058 S 
BRANCH  21  22
ATOM     22  C   UNL     1      -3.512  -8.381  -1.769  0.00  0.00    +0.258 A 
ATOM     23  N   UNL     1      -4.372  -7.583  -1.186  0.00  0.00    -0.203 NA
ATOM     24  C   UNL     1      -5.627  -8.065  -1.397  0.00  0.00    +0.112 A 
ATOM     25  C   UNL     1      -6.900  -7.636  -1.018  0.00  0.00    +0.051 A 
ATOM     26  C   UNL     1      -8.008  -8.363  -1.399  0.00  0.00    +0.043 A 
ATOM     27  C   UNL     1      -7.863  -9.518  -2.155  0.00  0.00    +0.024 A 
ATOM     28  C   UNL     1      -6.610  -9.952  -2.535  0.00  0.00    +0.050 A 
ATOM     29  C   UNL     1      -5.486  -9.233  -2.162  0.00  0.00    +0.156 A 
ATOM     30  O   UNL     1      -4.159  -9.392  -2.376  0.00  0.00    -0.431 OA
ATOM     31 CL   UNL     1      -9.592  -7.831  -0.929  0.00  0.00    -0.083 Cl
ENDBRANCH  21  22
ENDBRANCH  20  21
ENDBRANCH   2  20
TORSDOF 5
