REMARK  Name = ZINC50709185
REMARK  3 active torsions:
REMARK  status: ('A' for Active; 'I' for Inactive)
REMARK    1  A    between atoms: C_5  and  C_7
REMARK    2  A    between atoms: C_7  and  N_8
REMARK    3  A    between atoms: C_9  and  C_11
REMARK                            x       y       z     vdW  Elec       q    Type
REMARK                         _______ _______ _______ _____ _____    ______ ____
ROOT
ATOM      1  N   UNL     1       1.488  -2.679   1.333  0.00  0.00    -0.306 N 
ATOM      2  C   UNL     1       1.551  -4.005   1.567  0.00  0.00    +0.264 C 
ATOM      3  O   UNL     1       1.393  -4.791   0.654  0.00  0.00    -0.268 OA
ATOM      4  H   UNL     1       1.615  -2.051   2.062  0.00  0.00    +0.149 HD
ENDROOT
BRANCH   2   5
ATOM      5  C   UNL     1       1.813  -4.502   2.935  0.00  0.00    +0.148 A 
ATOM      6  C   UNL     1       1.885  -5.879   3.180  0.00  0.00    +0.038 A 
ATOM      7  C   UNL     1       2.133  -6.296   4.475  0.00  0.00    +0.047 A 
ATOM      8  C   UNL     1       2.296  -5.319   5.458  0.00  0.00    +0.139 A 
ATOM      9  N   UNL     1       2.212  -4.034   5.136  0.00  0.00    -0.134 NA
ATOM     10  N   UNL     1       1.987  -3.644   3.933  0.00  0.00    -0.143 NA
ATOM     11  N   UNL     1       2.545  -5.691   6.769  0.00  0.00    -0.342 N 
ATOM     12  H   UNL     1       2.606  -6.630   7.005  0.00  0.00    +0.144 HD
ATOM     13  H   UNL     1       2.659  -5.011   7.452  0.00  0.00    +0.144 HD
ENDBRANCH   2   5
BRANCH   1  14
ATOM     14  C   UNL     1       1.229  -2.186  -0.022  0.00  0.00    +0.141 C 
BRANCH  14  19
ATOM     15  C   UNL     1      -0.017   1.378   0.010  0.00  0.00    +0.000 A 
ATOM     16  C   UNL     1       1.171   2.086   0.002  0.00  0.00    +0.001 A 
ATOM     17  C   UNL     1       2.377   1.412  -0.013  0.00  0.00    +0.015 A 
ATOM     18  C   UNL     1       2.397   0.029  -0.021  0.00  0.00    +0.023 A 
ATOM     19  C   UNL     1       1.208  -0.679  -0.013  0.00  0.00    -0.016 A 
ATOM     20  C   UNL     1       0.002  -0.004   0.002  0.00  0.00    +0.006 A 
ATOM     21 BR   UNL     1       4.047  -0.894  -0.042  0.00  0.00    -0.050 Br
ENDBRANCH  14  19
ENDBRANCH   1  14
TORSDOF 3
