REMARK  Name = ZINC13395435
REMARK  8 active torsions:
REMARK  status: ('A' for Active; 'I' for Inactive)
REMARK    1  A    between atoms: C_6  and  C_7
REMARK    2  A    between atoms: C_10  and  C_12
REMARK    3  A    between atoms: N_14  and  C_15
REMARK    4  A    between atoms: C_18  and  S_21
REMARK    5  A    between atoms: S_21  and  N_24
REMARK    6  A    between atoms: N_24  and  C_25
REMARK    7  A    between atoms: C_25  and  C_26
REMARK    8  A    between atoms: C_26  and  C_27
REMARK                            x       y       z     vdW  Elec       q    Type
REMARK                         _______ _______ _______ _____ _____    ______ ____
ROOT
ATOM      1  C   UNL     1      -0.973   5.742  -5.362  0.00  0.00    +0.284 C 
ATOM      2  O   UNL     1      -0.056   5.973  -4.596  0.00  0.00    -0.266 OA
ATOM      3  N   UNL     1      -1.841   4.745  -5.096  0.00  0.00    -0.279 N 
ATOM      4  H   UNL     1      -2.525   4.512  -5.742  0.00  0.00    +0.155 HD
ENDROOT
BRANCH   3   5
ATOM      5  C   UNL     1      -1.754   4.049  -3.886  0.00  0.00    +0.034 A 
ATOM      6  C   UNL     1      -2.080   2.700  -3.836  0.00  0.00    +0.025 A 
ATOM      7  C   UNL     1      -1.994   2.014  -2.640  0.00  0.00    +0.030 A 
ATOM      8  C   UNL     1      -1.582   2.669  -1.494  0.00  0.00    +0.105 A 
ATOM      9  C   UNL     1      -1.262   4.014  -1.540  0.00  0.00    +0.030 A 
ATOM     10  C   UNL     1      -1.341   4.704  -2.733  0.00  0.00    +0.025 A 
BRANCH   8  11
ATOM     11  S   UNL     1      -1.472   1.791   0.029  0.00  0.00    +0.058 S 
ATOM     12  O   UNL     1      -2.352   0.681  -0.077  0.00  0.00    -0.153 OA
ATOM     13  O   UNL     1      -1.586   2.757   1.065  0.00  0.00    -0.153 OA
BRANCH  11  14
ATOM     14  N   UNL     1       0.061   1.171   0.128  0.00  0.00    -0.189 NA
ATOM     15  H   UNL     1       0.197   0.211   0.122  0.00  0.00    +0.148 HD
BRANCH  14  16
ATOM     16  C   UNL     1       1.212   2.074   0.217  0.00  0.00    +0.117 C 
BRANCH  16  17
ATOM     17  C   UNL     1       2.445   1.285   0.660  0.00  0.00    +0.142 C 
BRANCH  17  18
ATOM     18  C   UNL     1       3.629   2.213   0.752  0.00  0.00    +0.357 C 
ATOM     19  O   UNL     1       3.499   3.385   0.490  0.00  0.00    -0.246 OA
ATOM     20  O   UNL     1       4.827   1.738   1.125  0.00  0.00    -0.246 OA
ENDBRANCH  17  18
ENDBRANCH  16  17
ENDBRANCH  14  16
ENDBRANCH  11  14
ENDBRANCH   8  11
ENDBRANCH   3   5
BRANCH   1  24
ATOM     21  C   UNL     1      -1.935   7.312  -8.473  0.00  0.00    +0.136 A 
ATOM     22  C   UNL     1      -0.840   8.071  -8.175  0.00  0.00    +0.050 A 
ATOM     23  C   UNL     1      -0.327   7.595  -6.964  0.00  0.00    +0.055 A 
ATOM     24  C   UNL     1      -1.134   6.548  -6.575  0.00  0.00    +0.190 A 
ATOM     25  O   UNL     1      -2.103   6.398  -7.503  0.00  0.00    -0.450 OA
BRANCH  21  31
ATOM     26  C   UNL     1      -2.515   8.469 -10.602  0.00  0.00    +0.013 A 
ATOM     27  C   UNL     1      -3.317   8.609 -11.714  0.00  0.00    +0.021 A 
ATOM     28  C   UNL     1      -4.403   7.769 -11.899  0.00  0.00    +0.041 A 
ATOM     29  C   UNL     1      -4.687   6.781 -10.971  0.00  0.00    +0.021 A 
ATOM     30  C   UNL     1      -3.889   6.628  -9.856  0.00  0.00    +0.013 A 
ATOM     31  C   UNL     1      -2.793   7.471  -9.665  0.00  0.00    +0.017 A 
ATOM     32 CL   UNL     1      -5.413   7.956 -13.298  0.00  0.00    -0.084 Cl
ENDBRANCH  21  31
ENDBRANCH   1  24
TORSDOF 8
