REMARK  Name = ZINC34177947
REMARK  10 active torsions:
REMARK  status: ('A' for Active; 'I' for Inactive)
REMARK    1  A    between atoms: C_1  and  C_2
REMARK    2  A    between atoms: C_2  and  C_3
REMARK    3  A    between atoms: C_4  and  C_36
REMARK    4  A    between atoms: N_11  and  C_12
REMARK    5  A    between atoms: C_12  and  C_13
REMARK    6  A    between atoms: C_13  and  C_14
REMARK    7  A    between atoms: C_17  and  S_20
REMARK    8  A    between atoms: S_20  and  N_23
REMARK    9  A    between atoms: N_26  and  C_27
REMARK   10  A    between atoms: C_30  and  C_33
REMARK                            x       y       z     vdW  Elec       q    Type
REMARK                         _______ _______ _______ _____ _____    ______ ____
ROOT
ATOM      1  C   UNL     1      -2.432  -1.548  -8.462  0.00  0.00    -0.046 A 
ATOM      2  C   UNL     1      -2.266  -0.560  -9.414  0.00  0.00    +0.005 A 
ATOM      3  C   UNL     1      -2.496  -0.841 -10.748  0.00  0.00    +0.029 A 
ATOM      4  C   UNL     1      -2.891  -2.109 -11.130  0.00  0.00    +0.113 A 
ATOM      5  C   UNL     1      -3.057  -3.097 -10.177  0.00  0.00    +0.029 A 
ATOM      6  C   UNL     1      -2.823  -2.818  -8.844  0.00  0.00    +0.005 A 
ENDROOT
BRANCH   4   7
ATOM      7  S   UNL     1      -3.186  -2.466 -12.830  0.00  0.00    +0.103 S 
ATOM      8  O   UNL     1      -4.073  -3.576 -12.864  0.00  0.00    -0.146 OA
ATOM      9  O   UNL     1      -3.490  -1.228 -13.458  0.00  0.00    -0.146 OA
BRANCH   7  10
ATOM     10  N   UNL     1      -1.752  -2.986 -13.476  0.00  0.00    -0.072 NA
ATOM     11  C   UNL     1      -1.688  -3.319 -14.732  0.00  0.00    +0.352 C 
ATOM     12  O   UNL     1      -2.791  -3.242 -15.509  0.00  0.00    -0.246 OA
ATOM     13  N   UNL     1      -0.499  -3.750 -15.268  0.00  0.00    -0.292 N 
ATOM     14  H   UNL     1       0.292  -3.806 -14.710  0.00  0.00    +0.151 HD
BRANCH  13  15
ATOM     15  C   UNL     1      -0.427  -4.126 -16.682  0.00  0.00    +0.075 C 
ATOM     16  C   UNL     1      -0.188  -2.876 -17.531  0.00  0.00    +0.023 C 
ATOM     17  C   UNL     1      -0.112  -3.268 -19.008  0.00  0.00    +0.016 C 
ATOM     18  C   UNL     1       1.040  -4.253 -19.215  0.00  0.00    +0.102 C 
ATOM     19  C   UNL     1       0.800  -5.504 -18.367  0.00  0.00    +0.016 C 
ATOM     20  C   UNL     1       0.725  -5.112 -16.890  0.00  0.00    +0.023 C 
BRANCH  18  21
ATOM     21  C   UNL     1       1.114  -4.640 -20.670  0.00  0.00    +0.359 C 
ATOM     22  O   UNL     1       2.199  -4.757 -21.215  0.00  0.00    -0.246 OA
ATOM     23  O   UNL     1       0.090  -4.835 -21.302  0.00  0.00    -0.246 OA
ENDBRANCH  18  21
ENDBRANCH  13  15
ENDBRANCH   7  10
ENDBRANCH   4   7
BRANCH   1  24
ATOM     24  C   UNL     1      -2.181  -1.242  -7.008  0.00  0.00    +0.054 C 
BRANCH  24  25
ATOM     25  C   UNL     1      -0.713  -1.516  -6.674  0.00  0.00    +0.110 C 
BRANCH  25  34
ATOM     26  C   UNL     1       0.707  -0.490  -1.238  0.00  0.00    +0.015 C 
ATOM     27  C   UNL     1       1.994  -0.822  -1.306  0.00  0.00    -0.047 C 
ATOM     28  C   UNL     1       2.265  -1.248  -2.729  0.00  0.00    +0.149 C 
ATOM     29  N   UNL     1       0.986  -1.115  -3.439  0.00  0.00    -0.218 N 
ATOM     30  C   UNL     1       0.077  -0.674  -2.548  0.00  0.00    +0.250 C 
ATOM     31  O   UNL     1      -1.093  -0.458  -2.796  0.00  0.00    -0.270 OA
ATOM     32  C   UNL     1       0.762  -1.388  -4.739  0.00  0.00    +0.309 C 
ATOM     33  O   UNL     1       1.670  -1.787  -5.442  0.00  0.00    -0.252 OA
ATOM     34  N   UNL     1      -0.469  -1.219  -5.261  0.00  0.00    -0.299 N 
ATOM     35  C   UNL     1       2.991  -0.780  -0.176  0.00  0.00    +0.041 C 
ATOM     36  H   UNL     1      -1.194  -0.901  -4.700  0.00  0.00    +0.150 HD
BRANCH  26  38
ATOM     37  C   UNL     1      -0.019   1.526   0.010  0.00  0.00    +0.009 C 
ATOM     38  C   UNL     1       0.002  -0.004   0.002  0.00  0.00    +0.037 C 
ENDBRANCH  26  38
ENDBRANCH  25  34
ENDBRANCH  24  25
ENDBRANCH   1  24
TORSDOF 8
