REMARK  Name = ZINC62813856
REMARK  4 active torsions:
REMARK  status: ('A' for Active; 'I' for Inactive)
REMARK    1  A    between atoms: C_1  and  C_2
REMARK    2  A    between atoms: C_6  and  C_10
REMARK    3  A    between atoms: N_12  and  C_13
REMARK    4  A    between atoms: C_16  and  C_19
REMARK                            x       y       z     vdW  Elec       q    Type
REMARK                         _______ _______ _______ _____ _____    ______ ____
ROOT
ATOM      1  C   UNL     1      -0.646  -4.011   1.161  0.00  0.00    +0.232 C 
ATOM      2  O   UNL     1      -0.845  -4.597   0.118  0.00  0.00    -0.274 OA
ATOM      3  N   UNL     1      -0.402  -4.707   2.289  0.00  0.00    -0.284 N 
ATOM      4  H   UNL     1      -0.177  -4.239   3.108  0.00  0.00    +0.155 HD
ENDROOT
BRANCH   1   9
ATOM      5  C   UNL     1       0.004   1.521   0.002  0.00  0.00    -0.012 C 
ATOM      6  C   UNL     1       0.017  -0.009  -0.005  0.00  0.00    -0.061 C 
ATOM      7  C   UNL     1      -1.422  -0.531   0.013  0.00  0.00    +0.065 C 
ATOM      8  N   UNL     1      -1.407  -2.000   0.026  0.00  0.00    -0.309 NA
ATOM      9  C   UNL     1      -0.674  -2.505   1.196  0.00  0.00    +0.123 C 
ATOM     10  C   UNL     1       0.758  -1.966   1.168  0.00  0.00    -0.054 C 
ATOM     11  N   UNL     1       0.730  -0.498   1.182  0.00  0.00    +0.383 N 
ATOM     12  H   UNL     1      -2.345  -2.372  -0.001  0.00  0.00    +0.123 HD
ATOM     13  H   UNL     1       1.675  -0.144   1.176  0.00  0.00    -0.085 HD
ATOM     14  H   UNL     1       0.257  -0.179   2.014  0.00  0.00    -0.085 HD
ENDBRANCH   1   9
BRANCH   3  15
ATOM     15  C   UNL     1      -0.471  -6.104   2.278  0.00  0.00    +0.033 A 
ATOM     16  C   UNL     1      -0.947  -6.786   3.391  0.00  0.00    +0.024 A 
ATOM     17  C   UNL     1      -1.014  -8.165   3.377  0.00  0.00    +0.014 A 
ATOM     18  C   UNL     1      -0.610  -8.867   2.257  0.00  0.00    +0.055 A 
ATOM     19  C   UNL     1      -0.136  -8.192   1.147  0.00  0.00    +0.014 A 
ATOM     20  C   UNL     1      -0.071  -6.812   1.153  0.00  0.00    +0.024 A 
BRANCH  18  21
ATOM     21  C   UNL     1      -0.685 -10.373   2.245  0.00  0.00    +0.417 C 
ATOM     22  F   UNL     1      -1.934 -10.773   1.758  0.00  0.00    -0.166 F 
ATOM     23  F   UNL     1       0.323 -10.883   1.421  0.00  0.00    -0.166 F 
ATOM     24  F   UNL     1      -0.514 -10.858   3.546  0.00  0.00    -0.166 F 
ENDBRANCH  18  21
ENDBRANCH   3  15
TORSDOF 3
