REMARK  Name = ZINC48083825
REMARK  11 active torsions:
REMARK  status: ('A' for Active; 'I' for Inactive)
REMARK    1  A    between atoms: C_1  and  N_2
REMARK    2  A    between atoms: N_2  and  C_3
REMARK    3  A    between atoms: N_2  and  C_4
REMARK    4  A    between atoms: C_4  and  C_5
REMARK    5  A    between atoms: C_5  and  N_6
REMARK    6  A    between atoms: N_6  and  C_7
REMARK    7  A    between atoms: C_7  and  C_8
REMARK    8  A    between atoms: N_17  and  C_18
REMARK    9  A    between atoms: C_20  and  C_26
REMARK   10  A    between atoms: C_23  and  O_24
REMARK   11  A    between atoms: O_24  and  C_25
REMARK                            x       y       z     vdW  Elec       q    Type
REMARK                         _______ _______ _______ _____ _____    ______ ____
ROOT
ATOM      1  N   UNL     1       0.649  -0.595   3.624  0.00  0.00    -0.283 N 
ATOM      2  C   UNL     1       0.376  -1.819   4.119  0.00  0.00    +0.307 C 
ATOM      3  O   UNL     1       0.959  -2.218   5.109  0.00  0.00    -0.252 OA
ATOM      4  N   UNL     1      -0.543  -2.599   3.518  0.00  0.00    -0.266 N 
ATOM      5  H   UNL     1      -1.066  -2.251   2.779  0.00  0.00    +0.156 HD
ENDROOT
BRANCH   4   6
ATOM      6  C   UNL     1      -0.744  -3.914   3.960  0.00  0.00    +0.077 A 
ATOM      7  C   UNL     1       0.273  -4.587   4.613  0.00  0.00    +0.040 A 
ATOM      8  C   UNL     1       0.069  -5.897   5.053  0.00  0.00    +0.038 A 
ATOM      9  C   UNL     1      -1.161  -6.522   4.830  0.00  0.00    +0.017 A 
ATOM     10  C   UNL     1      -2.170  -5.847   4.178  0.00  0.00    +0.048 A 
ATOM     11  C   UNL     1      -1.971  -4.543   3.746  0.00  0.00    +0.141 A 
BRANCH   8  12
ATOM     12  C   UNL     1       1.150  -6.620   5.750  0.00  0.00    +0.242 C 
ATOM     13  O   UNL     1       2.220  -6.075   5.943  0.00  0.00    -0.270 OA
ATOM     14  N   UNL     1       0.952  -7.884   6.174  0.00  0.00    -0.325 N 
ATOM     15  H   UNL     1       0.099  -8.319   6.020  0.00  0.00    +0.145 HD
ATOM     16  H   UNL     1       1.663  -8.359   6.632  0.00  0.00    +0.145 HD
ENDBRANCH   8  12
BRANCH  11  17
ATOM     17  O   UNL     1      -2.970  -3.880   3.109  0.00  0.00    -0.493 OA
ATOM     18  C   UNL     1      -4.200  -4.584   2.923  0.00  0.00    +0.277 C 
ENDBRANCH  11  17
ENDBRANCH   4   6
BRANCH   1  19
ATOM     19  C   UNL     1      -0.053  -0.114   2.432  0.00  0.00    +0.091 C 
BRANCH  19  20
ATOM     20  C   UNL     1       0.732  -0.514   1.181  0.00  0.00    -0.060 C 
BRANCH  20  22
ATOM     21  C   UNL     1       0.017   1.437  -0.016  0.00  0.00    -0.097 C 
ATOM     22  N   UNL     1       0.028  -0.032  -0.014  0.00  0.00    +0.377 N 
ATOM     23  C   UNL     1       0.716  -0.518  -1.217  0.00  0.00    -0.097 C 
ATOM     24  H   UNL     1      -0.921  -0.375  -0.007  0.00  0.00    -0.083 HD
ENDBRANCH  20  22
ENDBRANCH  19  20
ENDBRANCH   1  19
BRANCH   1  25
ATOM     25  C   UNL     1       1.649   0.253   4.278  0.00  0.00    +0.144 C 
BRANCH  25  26
ATOM     26  C   UNL     1       0.977   1.104   5.326  0.00  0.00    -0.030 A 
ATOM     27  C   UNL     1       0.473   2.346   4.988  0.00  0.00    +0.008 A 
ATOM     28  C   UNL     1      -0.143   3.127   5.947  0.00  0.00    +0.038 A 
ATOM     29  C   UNL     1      -0.256   2.664   7.248  0.00  0.00    +0.123 A 
ATOM     30  C   UNL     1       0.250   1.420   7.585  0.00  0.00    +0.038 A 
ATOM     31  C   UNL     1       0.861   0.639   6.622  0.00  0.00    +0.008 A 
ATOM     32  F   UNL     1      -0.857   3.427   8.187  0.00  0.00    -0.205 F 
ENDBRANCH  25  26
ENDBRANCH   1  25
TORSDOF 8
