REMARK  Name = ZINC33038258
REMARK  2 active torsions:
REMARK  status: ('A' for Active; 'I' for Inactive)
REMARK    1  A    between atoms: N_19  and  S_22
REMARK    2  A    between atoms: S_22  and  C_25
REMARK                            x       y       z     vdW  Elec       q    Type
REMARK                         _______ _______ _______ _____ _____    ______ ____
ROOT
ATOM      1  C   UNL     1       7.101   3.824   4.483  0.00  0.00    +0.001 A 
ATOM      2  C   UNL     1       7.667   4.895   5.152  0.00  0.00    +0.004 A 
ATOM      3  C   UNL     1       6.865   5.802   5.820  0.00  0.00    +0.047 A 
ATOM      4  C   UNL     1       5.488   5.644   5.821  0.00  0.00    +0.139 A 
ATOM      5  C   UNL     1       4.912   4.576   5.122  0.00  0.00    +0.057 A 
ATOM      6  C   UNL     1       5.731   3.663   4.462  0.00  0.00    +0.015 A 
ATOM      7  C   UNL     1       3.448   4.430   5.067  0.00  0.00    +0.133 C 
ATOM      8  N   UNL     1       2.640   4.663   6.044  0.00  0.00    -0.228 NA
ATOM      9  C   UNL     1       2.968   5.071   7.302  0.00  0.00    +0.108 A 
ATOM     10  C   UNL     1       2.283   4.522   8.390  0.00  0.00    +0.031 A 
ATOM     11  C   UNL     1       2.571   4.940   9.674  0.00  0.00    +0.002 A 
ATOM     12  C   UNL     1       3.535   5.907   9.890  0.00  0.00    +0.004 A 
ATOM     13  C   UNL     1       4.228   6.448   8.821  0.00  0.00    +0.048 A 
ATOM     14  C   UNL     1       3.962   6.026   7.530  0.00  0.00    +0.154 A 
ATOM     15  O   UNL     1       4.711   6.516   6.509  0.00  0.00    -0.453 OA
ATOM     16  N   UNL     1       2.898   4.006   3.879  0.00  0.00    -0.312 N 
ATOM     17  C   UNL     1       3.731   3.872   2.675  0.00  0.00    +0.123 C 
ATOM     18  C   UNL     1       3.106   4.708   1.551  0.00  0.00    +0.128 C 
ATOM     19  N   UNL     1       1.676   4.382   1.463  0.00  0.00    -0.174 NA
ATOM     20  C   UNL     1       0.842   4.521   2.665  0.00  0.00    +0.128 C 
ATOM     21  C   UNL     1       1.468   3.680   3.790  0.00  0.00    +0.123 C 
ENDROOT
BRANCH  19  22
ATOM     22  S   UNL     1       1.014   3.873   0.033  0.00  0.00    +0.063 S 
ATOM     23  O   UNL     1       1.855   4.365  -1.002  0.00  0.00    -0.153 OA
ATOM     24  O   UNL     1      -0.373   4.176   0.096  0.00  0.00    -0.153 OA
BRANCH  22  25
ATOM     25  C   UNL     1       1.145   2.116  -0.006  0.00  0.00    +0.133 A 
ATOM     26  C   UNL     1       0.025   1.353   0.003  0.00  0.00    +0.031 A 
ATOM     27  C   UNL     1       0.091  -0.040  -0.026  0.00  0.00    +0.004 A 
ATOM     28  C   UNL     1       1.277  -0.692  -0.066  0.00  0.00    +0.031 A 
ATOM     29  C   UNL     1       2.492   0.042  -0.078  0.00  0.00    +0.102 A 
ATOM     30  C   UNL     1       2.423   1.500  -0.046  0.00  0.00    +0.126 A 
ATOM     31  N   UNL     1       3.632   2.058  -0.062  0.00  0.00    -0.189 NA
ATOM     32  S   UNL     1       4.659   0.876  -0.109  0.00  0.00    +0.117 S 
ATOM     33  N   UNL     1       3.748  -0.398  -0.115  0.00  0.00    -0.191 NA
ENDBRANCH  22  25
ENDBRANCH  19  22
TORSDOF 2
