REMARK  Name = ZINC21882669
REMARK  11 active torsions:
REMARK  status: ('A' for Active; 'I' for Inactive)
REMARK    1  A    between atoms: C_1  and  C_2
REMARK    2  A    between atoms: C_5  and  N_9
REMARK    3  A    between atoms: C_6  and  C_8
REMARK    4  A    between atoms: C_10  and  C_12
REMARK    5  A    between atoms: C_12  and  C_14
REMARK    6  A    between atoms: C_12  and  S_15
REMARK    7  A    between atoms: S_15  and  C_16
REMARK    8  A    between atoms: C_20  and  C_23
REMARK    9  A    between atoms: C_25  and  C_33
REMARK   10  A    between atoms: C_28  and  N_29
REMARK   11  A    between atoms: C_30  and  C_32
REMARK                            x       y       z     vdW  Elec       q    Type
REMARK                         _______ _______ _______ _____ _____    ______ ____
ROOT
ATOM      1  C   UNL     1      -5.244  -0.805  -0.293  0.00  0.00    +0.213 A 
ATOM      2  N   UNL     1      -4.197  -1.679  -0.281  0.00  0.00    -0.180 NA
ATOM      3  C   UNL     1      -2.940  -1.183  -0.364  0.00  0.00    +0.300 A 
ATOM      4  O   UNL     1      -1.968  -1.919  -0.362  0.00  0.00    -0.263 OA
ATOM      5  C   UNL     1      -2.790   0.274  -0.451  0.00  0.00    +0.161 A 
ATOM      6  N   UNL     1      -3.880   1.024  -0.453  0.00  0.00    -0.141 NA
ATOM      7  N   UNL     1      -5.049   0.498  -0.378  0.00  0.00    -0.122 NA
ENDROOT
BRANCH   5   8
ATOM      8  C   UNL     1      -1.448   0.892  -0.539  0.00  0.00    +0.029 A 
ATOM      9  C   UNL     1      -1.063   1.568  -1.696  0.00  0.00    +0.015 A 
ATOM     10  C   UNL     1       0.187   2.147  -1.771  0.00  0.00    -0.050 A 
ATOM     11  C   UNL     1       1.064   2.056  -0.703  0.00  0.00    +0.005 A 
ATOM     12  C   UNL     1       0.696   1.384   0.447  0.00  0.00    +0.024 A 
ATOM     13  C   UNL     1      -0.557   0.796   0.537  0.00  0.00    +0.043 A 
ATOM     14  C   UNL     1       0.600   2.883  -3.019  0.00  0.00    +0.044 C 
BRANCH  13  15
ATOM     15  N   UNL     1      -0.930   0.116   1.700  0.00  0.00    -0.285 N 
ATOM     16  C   UNL     1      -0.009  -0.567   2.406  0.00  0.00    +0.214 C 
ATOM     17  O   UNL     1       1.159  -0.524   2.082  0.00  0.00    -0.276 OA
ATOM     18  C   UNL     1      -0.429  -1.386   3.599  0.00  0.00    +0.109 C 
ATOM     19  H   UNL     1      -1.977   0.139   2.038  0.00  0.00    +0.155 HD
ENDBRANCH  13  15
ENDBRANCH   5   8
BRANCH   1  20
ATOM     20  S   UNL     1      -6.889  -1.428  -0.194  0.00  0.00    -0.072 S 
BRANCH  20  21
ATOM     21  C   UNL     1      -7.817   0.125  -0.251  0.00  0.00    +0.137 C 
ATOM     22  C   UNL     1      -7.605   0.796  -1.609  0.00  0.00    +0.029 C 
BRANCH  21  24
ATOM     23  N   UNL     1     -10.114   0.827   0.341  0.00  0.00    -0.284 N 
ATOM     24  C   UNL     1      -9.284  -0.159  -0.054  0.00  0.00    +0.230 C 
ATOM     25  O   UNL     1      -9.718  -1.274  -0.252  0.00  0.00    -0.274 OA
ATOM     26  H   UNL     1      -9.737   1.855   0.445  0.00  0.00    +0.155 HD
BRANCH  23  31
ATOM     27  C   UNL     1     -15.554  -0.325   1.463  0.00  0.00    +0.044 C 
ATOM     28  C   UNL     1     -14.109  -0.019   1.165  0.00  0.00    -0.050 A 
ATOM     29  C   UNL     1     -13.450  -0.709   0.163  0.00  0.00    +0.005 A 
ATOM     30  C   UNL     1     -12.126  -0.430  -0.112  0.00  0.00    +0.024 A 
ATOM     31  C   UNL     1     -11.456   0.543   0.618  0.00  0.00    +0.036 A 
ATOM     32  C   UNL     1     -12.119   1.229   1.626  0.00  0.00    -0.029 A 
ATOM     33  C   UNL     1     -13.445   0.950   1.893  0.00  0.00    +0.008 A 
ATOM     34  C   UNL     1     -11.393   2.282   2.425  0.00  0.00    +0.045 C 
ENDBRANCH  23  31
ENDBRANCH  21  24
ENDBRANCH  20  21
ENDBRANCH   1  20
TORSDOF 6
