REMARK  Name = ZINC22853789
REMARK  7 active torsions:
REMARK  status: ('A' for Active; 'I' for Inactive)
REMARK    1  A    between atoms: C_1  and  C_2
REMARK    2  A    between atoms: C_2  and  C_3
REMARK    3  A    between atoms: C_9  and  C_11
REMARK    4  A    between atoms: C_11  and  C_13
REMARK    5  A    between atoms: C_11  and  N_23
REMARK    6  A    between atoms: C_16  and  C_19
REMARK    7  A    between atoms: C_26  and  C_29
REMARK                            x       y       z     vdW  Elec       q    Type
REMARK                         _______ _______ _______ _____ _____    ______ ____
ROOT
ATOM      1  C   UNL     1       4.172  -2.393  -5.702  0.00  0.00    +0.129 C 
ENDROOT
BRANCH   1   8
ATOM      2  C   UNL     1       0.374  -0.239  -1.641  0.00  0.00    +0.152 A 
ATOM      3  N   UNL     1      -0.128  -0.631  -2.810  0.00  0.00    -0.205 NA
ATOM      4  C   UNL     1       0.838  -1.070  -3.569  0.00  0.00    +0.199 A 
ATOM      5  N   UNL     1       2.022  -0.975  -2.904  0.00  0.00    -0.169 N 
ATOM      6  N   UNL     1       1.668  -0.420  -1.646  0.00  0.00    -0.146 NA
ATOM      7  C   UNL     1       3.150  -1.399  -3.563  0.00  0.00    +0.285 A 
ATOM      8  C   UNL     1       3.071  -1.882  -4.809  0.00  0.00    +0.081 A 
ATOM      9  S   UNL     1       1.319  -1.760  -5.134  0.00  0.00    -0.047 S 
ATOM     10  O   UNL     1       4.359  -1.325  -2.944  0.00  0.00    -0.265 OA
BRANCH   2  12
ATOM     11  C   UNL     1      -0.509   1.850  -0.638  0.00  0.00    +0.012 C 
ATOM     12  C   UNL     1      -0.422   0.329  -0.495  0.00  0.00    +0.075 C 
ENDBRANCH   2  12
ENDBRANCH   1   8
BRANCH   1  13
ATOM     13  C   UNL     1       4.313  -1.483  -6.896  0.00  0.00    -0.025 A 
ATOM     14  C   UNL     1       3.366  -1.513  -7.903  0.00  0.00    +0.006 A 
ATOM     15  C   UNL     1       3.495  -0.679  -8.998  0.00  0.00    +0.013 A 
ATOM     16  C   UNL     1       4.571   0.185  -9.085  0.00  0.00    +0.055 A 
ATOM     17  C   UNL     1       5.516   0.216  -8.078  0.00  0.00    +0.013 A 
ATOM     18  C   UNL     1       5.385  -0.615  -6.981  0.00  0.00    +0.006 A 
BRANCH  16  19
ATOM     19  C   UNL     1       4.712   1.094 -10.279  0.00  0.00    +0.417 C 
ATOM     20  F   UNL     1       4.059   2.304 -10.024  0.00  0.00    -0.166 F 
ATOM     21  F   UNL     1       6.068   1.337 -10.522  0.00  0.00    -0.166 F 
ATOM     22  F   UNL     1       4.140   0.483 -11.400  0.00  0.00    -0.166 F 
ENDBRANCH  16  19
ENDBRANCH   1  13
BRANCH   1  23
ATOM     23  N   UNL     1       3.843  -3.750  -6.157  0.00  0.00    -0.291 NA
ATOM     24  C   UNL     1       3.600  -4.643  -5.017  0.00  0.00    +0.086 C 
ATOM     25  C   UNL     1       3.120  -6.004  -5.526  0.00  0.00    +0.028 C 
ATOM     26  C   UNL     1       4.185  -6.603  -6.449  0.00  0.00    +0.077 C 
ATOM     27  C   UNL     1       4.454  -5.632  -7.602  0.00  0.00    +0.028 C 
ATOM     28  C   UNL     1       4.895  -4.281  -7.033  0.00  0.00    +0.086 C 
BRANCH  26  29
ATOM     29  C   UNL     1       3.692  -7.915  -7.001  0.00  0.00    +0.214 C 
ATOM     30  O   UNL     1       2.597  -8.332  -6.687  0.00  0.00    -0.276 OA
ATOM     31  N   UNL     1       4.468  -8.626  -7.843  0.00  0.00    -0.329 N 
ATOM     32  H   UNL     1       5.344  -8.293  -8.093  0.00  0.00    +0.145 HD
ATOM     33  H   UNL     1       4.151  -9.471  -8.198  0.00  0.00    +0.145 HD
ENDBRANCH  26  29
ENDBRANCH   1  23
TORSDOF 6
