REMARK  Name = ZINC22189680
REMARK  8 active torsions:
REMARK  status: ('A' for Active; 'I' for Inactive)
REMARK    1  A    between atoms: C_1  and  C_2
REMARK    2  A    between atoms: N_4  and  C_5
REMARK    3  A    between atoms: C_7  and  C_15
REMARK    4  A    between atoms: C_9  and  N_11
REMARK    5  A    between atoms: C_12  and  C_14
REMARK    6  A    between atoms: N_17  and  C_18
REMARK    7  A    between atoms: C_18  and  C_19
REMARK    8  A    between atoms: C_19  and  N_25
REMARK                            x       y       z     vdW  Elec       q    Type
REMARK                         _______ _______ _______ _____ _____    ______ ____
ROOT
ATOM      1  C   UNL     1      -0.151   5.513  -1.093  0.00  0.00    +0.244 C 
ATOM      2  O   UNL     1       0.875   6.120  -0.854  0.00  0.00    -0.270 OA
ATOM      3  N   UNL     1      -1.343   6.131  -0.972  0.00  0.00    -0.313 N 
ATOM      4  H   UNL     1      -2.272   5.582  -1.189  0.00  0.00    +0.149 HD
ENDROOT
BRANCH   1   7
ATOM      5  C   UNL     1      -1.208   2.076  -2.198  0.00  0.00    +0.036 A 
ATOM      6  C   UNL     1      -1.268   3.401  -1.794  0.00  0.00    +0.036 A 
ATOM      7  C   UNL     1      -0.092   4.098  -1.518  0.00  0.00    +0.040 A 
ATOM      8  C   UNL     1       1.141   3.457  -1.644  0.00  0.00    +0.036 A 
ATOM      9  C   UNL     1       1.193   2.130  -2.043  0.00  0.00    +0.036 A 
ATOM     10  C   UNL     1       0.020   1.440  -2.317  0.00  0.00    +0.046 A 
BRANCH   5  14
ATOM     11  C   UNL     1      -4.743   1.298  -3.232  0.00  0.00    +0.109 C 
ATOM     12  C   UNL     1      -3.435   2.020  -3.035  0.00  0.00    +0.214 C 
ATOM     13  O   UNL     1      -3.325   3.179  -3.374  0.00  0.00    -0.276 OA
ATOM     14  N   UNL     1      -2.388   1.377  -2.481  0.00  0.00    -0.286 N 
ATOM     15  H   UNL     1      -2.460   0.304  -2.251  0.00  0.00    +0.155 HD
ENDBRANCH   5  14
BRANCH   9  16
ATOM     16  N   UNL     1       2.429   1.487  -2.171  0.00  0.00    -0.286 N 
ATOM     17  C   UNL     1       3.472   1.875  -1.411  0.00  0.00    +0.214 C 
ATOM     18  O   UNL     1       3.318   2.721  -0.556  0.00  0.00    -0.276 OA
ATOM     19  C   UNL     1       4.831   1.258  -1.624  0.00  0.00    +0.109 C 
ATOM     20  H   UNL     1       2.549   0.664  -2.891  0.00  0.00    +0.155 HD
ENDBRANCH   9  16
ENDBRANCH   1   7
BRANCH   3  21
ATOM     21  C   UNL     1      -1.402   7.533  -0.551  0.00  0.00    +0.092 C 
BRANCH  21  22
ATOM     22  C   UNL     1      -2.862   7.946  -0.357  0.00  0.00    -0.050 C 
ATOM     23  C   UNL     1      -3.667   7.578  -1.605  0.00  0.00    -0.010 C 
ATOM     24  C   UNL     1      -3.087   8.307  -2.819  0.00  0.00    -0.001 C 
ATOM     25  C   UNL     1      -3.164   9.818  -2.591  0.00  0.00    -0.000 C 
ATOM     26  C   UNL     1      -2.359  10.186  -1.343  0.00  0.00    -0.001 C 
ATOM     27  C   UNL     1      -2.939   9.457  -0.129  0.00  0.00    -0.010 C 
BRANCH  22  28
ATOM     28  N   UNL     1      -3.419   7.246   0.808  0.00  0.00    +0.384 N 
ATOM     29  C   UNL     1      -2.783   7.704   2.050  0.00  0.00    -0.078 C 
ATOM     30  C   UNL     1      -3.485   7.064   3.250  0.00  0.00    -0.019 C 
ATOM     31  C   UNL     1      -3.388   5.540   3.138  0.00  0.00    -0.004 C 
ATOM     32  C   UNL     1      -4.014   5.093   1.813  0.00  0.00    -0.019 C 
ATOM     33  C   UNL     1      -3.297   5.791   0.655  0.00  0.00    -0.078 C 
ATOM     34  H   UNL     1      -4.490   7.488   0.870  0.00  0.00    -0.081 HD
ENDBRANCH  22  28
ENDBRANCH  21  22
ENDBRANCH   3  21
TORSDOF 6
