REMARK  Name = ZINC63373740
REMARK  5 active torsions:
REMARK  status: ('A' for Active; 'I' for Inactive)
REMARK    1  A    between atoms: C_1  and  C_2
REMARK    2  A    between atoms: C_13  and  C_29
REMARK    3  A    between atoms: N_19  and  C_22
REMARK    4  A    between atoms: C_34  and  O_35
REMARK    5  A    between atoms: O_35  and  C_36
REMARK                            x       y       z     vdW  Elec       q    Type
REMARK                         _______ _______ _______ _____ _____    ______ ____
ROOT
ATOM      1  C   UNL     1      -0.019   1.526   0.010  0.00  0.00    +0.044 C 
ATOM      2  C   UNL     1       0.002  -0.004   0.002  0.00  0.00    +0.137 C 
ATOM      3  C   UNL     1       0.726  -0.558  -1.231  0.00  0.00    +0.139 C 
ATOM      4  C   UNL     1       2.217  -0.373  -0.975  0.00  0.00    -0.027 C 
ATOM      5  C   UNL     1       2.681   0.357  -1.985  0.00  0.00    -0.000 A 
ATOM      6  C   UNL     1       4.042   0.807  -2.320  0.00  0.00    +0.010 A 
ATOM      7  C   UNL     1       4.163   1.563  -3.443  0.00  0.00    +0.001 A 
ATOM      8  C   UNL     1       3.080   1.913  -4.256  0.00  0.00    +0.002 A 
ATOM      9  C   UNL     1       1.796   1.539  -4.025  0.00  0.00    +0.026 A 
ATOM     10  C   UNL     1       1.542   0.737  -2.874  0.00  0.00    +0.043 A 
ATOM     11  N   UNL     1       0.418   0.228  -2.429  0.00  0.00    -0.375 N 
ATOM     12  C   UNL     1       2.917  -0.898   0.254  0.00  0.00    +0.069 C 
ATOM     13  C   UNL     1       2.121  -0.403   1.478  0.00  0.00    +0.123 C 
ATOM     14  N   UNL     1       0.693  -0.557   1.189  0.00  0.00    -0.268 N 
ATOM     15  C   UNL     1      -0.229  -1.219   1.899  0.00  0.00    +0.317 C 
ATOM     16  O   UNL     1      -0.016  -1.721   2.985  0.00  0.00    -0.252 OA
ATOM     17  N   UNL     1      -1.414  -1.265   1.276  0.00  0.00    -0.191 N 
ATOM     18  C   UNL     1      -1.390  -0.589   0.109  0.00  0.00    +0.253 C 
ATOM     19  O   UNL     1      -2.295  -0.473  -0.689  0.00  0.00    -0.272 OA
ATOM     20  H   UNL     1      -0.463   0.348  -2.817  0.00  0.00    +0.160 HD
ENDROOT
BRANCH  17  21
ATOM     21  C   UNL     1      -2.542  -1.934   1.775  0.00  0.00    +0.064 A 
ATOM     22  C   UNL     1      -3.444  -1.264   2.589  0.00  0.00    +0.025 A 
ATOM     23  C   UNL     1      -4.553  -1.925   3.080  0.00  0.00    +0.002 A 
ATOM     24  C   UNL     1      -4.766  -3.253   2.760  0.00  0.00    +0.002 A 
ATOM     25  C   UNL     1      -3.869  -3.924   1.950  0.00  0.00    +0.022 A 
ATOM     26  C   UNL     1      -2.760  -3.267   1.450  0.00  0.00    +0.063 A 
ATOM     27 CL   UNL     1      -1.639  -4.107   0.426  0.00  0.00    -0.082 Cl
ENDBRANCH  17  21
BRANCH  12  28
ATOM     28  C   UNL     1       2.938  -2.405   0.228  0.00  0.00    +0.003 A 
ATOM     29  C   UNL     1       1.752  -3.112   0.195  0.00  0.00    +0.008 A 
ATOM     30  C   UNL     1       1.770  -4.495   0.172  0.00  0.00    +0.001 A 
ATOM     31  C   UNL     1       2.975  -5.173   0.181  0.00  0.00    +0.004 A 
ATOM     32  C   UNL     1       4.164  -4.470   0.214  0.00  0.00    +0.046 A 
ATOM     33  C   UNL     1       4.149  -3.083   0.232  0.00  0.00    +0.124 A 
BRANCH  33  34
ATOM     34  O   UNL     1       5.317  -2.389   0.258  0.00  0.00    -0.495 OA
ATOM     35  C   UNL     1       6.525  -3.153   0.260  0.00  0.00    +0.277 C 
ENDBRANCH  33  34
ENDBRANCH  12  28
TORSDOF 3
