REMARK  Name = ZINC35890532
REMARK  10 active torsions:
REMARK  status: ('A' for Active; 'I' for Inactive)
REMARK    1  A    between atoms: C_1  and  C_2
REMARK    2  A    between atoms: C_3  and  C_37
REMARK    3  A    between atoms: C_5  and  C_27
REMARK    4  A    between atoms: C_7  and  N_8
REMARK    5  A    between atoms: N_16  and  C_17
REMARK    6  A    between atoms: C_20  and  O_25
REMARK    7  A    between atoms: C_22  and  O_23
REMARK    8  A    between atoms: O_23  and  C_24
REMARK    9  A    between atoms: O_25  and  C_26
REMARK   10  A    between atoms: C_31  and  C_33
REMARK                            x       y       z     vdW  Elec       q    Type
REMARK                         _______ _______ _______ _____ _____    ______ ____
ROOT
ATOM      1  N   UNL     1       0.658  -1.199   2.916  0.00  0.00    -0.312 N 
ATOM      2  C   UNL     1       1.249   0.137   3.075  0.00  0.00    +0.125 C 
ATOM      3  C   UNL     1       0.192   1.072   3.676  0.00  0.00    +0.128 C 
ATOM      4  N   UNL     1      -0.402   0.417   4.850  0.00  0.00    -0.282 N 
ATOM      5  C   UNL     1      -0.993  -0.919   4.691  0.00  0.00    +0.128 C 
ATOM      6  C   UNL     1       0.059  -1.852   4.088  0.00  0.00    +0.125 C 
ATOM      7  C   UNL     1      -0.404   1.030   6.050  0.00  0.00    +0.307 C 
ATOM      8  O   UNL     1       0.001   2.172   6.150  0.00  0.00    -0.252 OA
ATOM      9  N   UNL     1      -0.854   0.376   7.140  0.00  0.00    -0.266 N 
ATOM     10  H   UNL     1      -1.254  -0.503   7.047  0.00  0.00    +0.156 HD
ENDROOT
BRANCH   1  17
ATOM     11  C   UNL     1       2.785  -3.035   2.320  0.00  0.00    +0.049 C 
ATOM     12  C   UNL     1       1.674  -2.729   1.348  0.00  0.00    +0.008 A 
ATOM     13  C   UNL     1       1.633  -3.338   0.108  0.00  0.00    +0.021 A 
ATOM     14  N   UNL     1       0.644  -3.050  -0.723  0.00  0.00    -0.343 N 
ATOM     15  C   UNL     1      -0.303  -2.186  -0.382  0.00  0.00    +0.140 A 
ATOM     16  N   UNL     1      -0.300  -1.581   0.797  0.00  0.00    -0.214 NA
ATOM     17  C   UNL     1       0.660  -1.829   1.682  0.00  0.00    +0.128 A 
ATOM     18  C   UNL     1       2.703  -4.321  -0.294  0.00  0.00    +0.064 C 
ATOM     19  H   UNL     1       0.612  -3.475  -1.594  0.00  0.00    +0.167 HD
BRANCH  15  20
ATOM     20  C   UNL     1      -1.392  -1.891  -1.344  0.00  0.00    +0.018 A 
ATOM     21  C   UNL     1      -1.418  -2.520  -2.587  0.00  0.00    +0.011 A 
ATOM     22  C   UNL     1      -2.434  -2.241  -3.478  0.00  0.00    +0.001 A 
ATOM     23  C   UNL     1      -3.426  -1.338  -3.139  0.00  0.00    +0.012 A 
ATOM     24  C   UNL     1      -3.406  -0.710  -1.907  0.00  0.00    +0.055 A 
ATOM     25  C   UNL     1      -2.398  -0.987  -1.005  0.00  0.00    +0.024 A 
BRANCH  24  26
ATOM     26  C   UNL     1      -4.489   0.272  -1.545  0.00  0.00    +0.417 C 
ATOM     27  F   UNL     1      -5.394   0.381  -2.607  0.00  0.00    -0.166 F 
ATOM     28  F   UNL     1      -5.163  -0.175  -0.404  0.00  0.00    -0.166 F 
ATOM     29  F   UNL     1      -3.918   1.523  -1.289  0.00  0.00    -0.166 F 
ENDBRANCH  24  26
ENDBRANCH  15  20
ENDBRANCH   1  17
BRANCH   9  30
ATOM     30  C   UNL     1      -0.745   0.968   8.408  0.00  0.00    +0.077 A 
ATOM     31  C   UNL     1      -1.029   2.315   8.572  0.00  0.00    +0.030 A 
ATOM     32  C   UNL     1      -0.920   2.898   9.821  0.00  0.00    +0.047 A 
ATOM     33  C   UNL     1      -0.527   2.137  10.912  0.00  0.00    +0.124 A 
ATOM     34  C   UNL     1      -0.242   0.789  10.752  0.00  0.00    +0.093 A 
ATOM     35  C   UNL     1      -0.356   0.201   9.504  0.00  0.00    +0.145 A 
BRANCH  35  36
ATOM     36  O   UNL     1      -0.082  -1.122   9.346  0.00  0.00    -0.493 OA
ATOM     37  C   UNL     1       0.310  -1.847  10.514  0.00  0.00    +0.277 C 
ENDBRANCH  35  36
BRANCH  33  38
ATOM     38  O   UNL     1      -0.421   2.713  12.139  0.00  0.00    -0.495 OA
ATOM     39  C   UNL     1      -0.730   4.105  12.231  0.00  0.00    +0.277 C 
ENDBRANCH  33  38
ENDBRANCH   9  30
TORSDOF 6
