REMARK  Name = ZINC09358719
REMARK  3 active torsions:
REMARK  status: ('A' for Active; 'I' for Inactive)
REMARK    1  A    between atoms: C_1  and  C_2
REMARK    2  A    between atoms: N_20  and  C_23
REMARK    3  A    between atoms: C_26  and  N_30
REMARK                            x       y       z     vdW  Elec       q    Type
REMARK                         _______ _______ _______ _____ _____    ______ ____
ROOT
ATOM      1  C   UNL     1      -3.829   4.777   2.176  0.00  0.00    +0.044 C 
ATOM      2  C   UNL     1      -2.597   5.548   2.573  0.00  0.00    -0.050 A 
ATOM      3  C   UNL     1      -2.484   6.066   3.850  0.00  0.00    +0.005 A 
ATOM      4  C   UNL     1      -1.353   6.765   4.215  0.00  0.00    +0.024 A 
ATOM      5  C   UNL     1      -0.320   6.958   3.302  0.00  0.00    +0.036 A 
ATOM      6  C   UNL     1      -0.448   6.450   2.011  0.00  0.00    -0.027 A 
ATOM      7  C   UNL     1      -1.576   5.739   1.661  0.00  0.00    +0.008 A 
ATOM      8  C   UNL     1       0.809   6.836   1.289  0.00  0.00    +0.053 C 
ATOM      9  C   UNL     1       1.546   5.632   0.726  0.00  0.00    +0.089 C 
ATOM     10  C   UNL     1       0.820   5.585  -0.677  0.00  0.00    +0.074 C 
ATOM     11  C   UNL     1       0.921   6.990  -1.120  0.00  0.00    -0.054 C 
ATOM     12  C   UNL     1      -0.893   8.035   0.023  0.00  0.00    -0.076 C 
ATOM     13  C   UNL     1      -1.089   8.357  -1.477  0.00  0.00    -0.020 C 
ATOM     14  C   UNL     1      -0.143   7.353  -2.171  0.00  0.00    -0.016 C 
ATOM     15  C   UNL     1       1.143   4.255  -1.130  0.00  0.00    +0.228 C 
ATOM     16  O   UNL     1       1.353   3.893  -2.267  0.00  0.00    -0.275 OA
ATOM     17  N   UNL     1       1.163   3.490   0.009  0.00  0.00    -0.209 N 
ATOM     18  C   UNL     1       1.160   4.240   1.150  0.00  0.00    +0.229 C 
ATOM     19  O   UNL     1       0.901   3.862   2.273  0.00  0.00    -0.275 OA
ATOM     20  C   UNL     1       1.642   7.560   2.320  0.00  0.00    +0.212 C 
ATOM     21  O   UNL     1       2.754   8.017   2.161  0.00  0.00    -0.277 OA
ATOM     22  N   UNL     1       0.912   7.599   3.449  0.00  0.00    -0.286 N 
ATOM     23  H   UNL     1       1.208   8.023   4.270  0.00  0.00    +0.155 HD
ATOM     24  N   UNL     1       0.541   7.717   0.107  0.00  0.00    +0.395 N 
ATOM     25  H   UNL     1       1.086   8.583   0.189  0.00  0.00    -0.079 HD
ENDROOT
BRANCH  17  26
ATOM     26  C   UNL     1       1.178   2.087   0.002  0.00  0.00    +0.062 A 
ATOM     27  C   UNL     1       2.386   1.405  -0.014  0.00  0.00    +0.027 A 
ATOM     28  C   UNL     1       2.398   0.024  -0.021  0.00  0.00    +0.034 A 
ATOM     29  C   UNL     1       1.208  -0.680  -0.013  0.00  0.00    +0.128 A 
ATOM     30  C   UNL     1       0.002  -0.004   0.002  0.00  0.00    +0.054 A 
ATOM     31  C   UNL     1      -0.017   1.378   0.010  0.00  0.00    +0.065 A 
ATOM     32 CL   UNL     1      -1.531   2.227   0.021  0.00  0.00    -0.082 Cl
BRANCH  29  33
ATOM     33  N   UNL     1       1.225  -2.160  -0.021  0.00  0.00    +0.056 N 
ATOM     34  O   UNL     1       0.177  -2.781  -0.015  0.00  0.00    -0.126 OA
ATOM     35  O   UNL     1       2.287  -2.757  -0.035  0.00  0.00    -0.126 OA
ENDBRANCH  29  33
ENDBRANCH  17  26
TORSDOF 2
