REMARK  Name = ZINC10337466
REMARK  6 active torsions:
REMARK  status: ('A' for Active; 'I' for Inactive)
REMARK    1  A    between atoms: C_1  and  C_2
REMARK    2  A    between atoms: N_8  and  C_30
REMARK    3  A    between atoms: N_10  and  C_11
REMARK    4  A    between atoms: C_11  and  C_13
REMARK    5  A    between atoms: N_16  and  S_19
REMARK    6  A    between atoms: S_19  and  C_22
REMARK                            x       y       z     vdW  Elec       q    Type
REMARK                         _______ _______ _______ _____ _____    ______ ____
ROOT
ATOM      1  C   UNL     1      -0.281   2.047  -1.075  0.00  0.00    +0.080 C 
ATOM      2  C   UNL     1       0.426   1.261   0.032  0.00  0.00    +0.030 C 
ATOM      3  C   UNL     1       0.099   1.890   1.389  0.00  0.00    +0.110 C 
ATOM      4  N   UNL     1       0.446   3.317   1.345  0.00  0.00    -0.177 NA
ATOM      5  C   UNL     1      -0.109   4.147   0.267  0.00  0.00    +0.110 C 
ATOM      6  C   UNL     1       0.222   3.492  -1.078  0.00  0.00    +0.030 C 
ENDROOT
BRANCH   4   7
ATOM      7  S   UNL     1       1.442   3.978   2.491  0.00  0.00    +0.061 S 
ATOM      8  O   UNL     1       2.226   2.913   3.010  0.00  0.00    -0.153 OA
ATOM      9  O   UNL     1       2.022   5.136   1.905  0.00  0.00    -0.153 OA
BRANCH   7  10
ATOM     10  C   UNL     1       0.418   4.540   3.810  0.00  0.00    +0.106 A 
ATOM     11  C   UNL     1      -0.076   5.831   3.799  0.00  0.00    +0.031 A 
ATOM     12  C   UNL     1      -0.883   6.271   4.831  0.00  0.00    +0.040 A 
ATOM     13  C   UNL     1      -1.187   5.422   5.882  0.00  0.00    +0.124 A 
ATOM     14  C   UNL     1      -0.687   4.131   5.895  0.00  0.00    +0.040 A 
ATOM     15  C   UNL     1       0.115   3.692   4.859  0.00  0.00    +0.031 A 
ATOM     16  F   UNL     1      -1.972   5.853   6.894  0.00  0.00    -0.205 F 
ENDBRANCH   7  10
ENDBRANCH   4   7
BRANCH   1  17
ATOM     17  C   UNL     1       0.013   1.410  -2.409  0.00  0.00    +0.242 C 
ATOM     18  O   UNL     1       0.720   0.422  -2.469  0.00  0.00    -0.273 OA
BRANCH  17  28
ATOM     19  C   UNL     1       4.646   2.856  -4.602  0.00  0.00    +0.046 C 
ATOM     20  C   UNL     1       3.708   3.162  -5.740  0.00  0.00    -0.026 A 
ATOM     21  C   UNL     1       4.212   3.637  -6.928  0.00  0.00    +0.005 A 
ATOM     22  C   UNL     1       3.381   3.929  -7.995  0.00  0.00    +0.001 A 
ATOM     23  C   UNL     1       2.017   3.737  -7.862  0.00  0.00    +0.017 A 
ATOM     24  C   UNL     1       1.511   3.262  -6.676  0.00  0.00    +0.039 A 
ATOM     25  C   UNL     1       2.329   2.957  -5.577  0.00  0.00    +0.060 A 
ATOM     26  N   UNL     1       1.656   2.496  -4.461  0.00  0.00    -0.324 N 
ATOM     27  C   UNL     1       0.305   2.357  -4.489  0.00  0.00    +0.166 A 
ATOM     28  N   UNL     1      -0.501   1.928  -3.520  0.00  0.00    -0.156 NA
ATOM     29  S   UNL     1      -0.119   2.880  -6.087  0.00  0.00    -0.052 S 
ATOM     30  C   UNL     1       2.402   2.151  -3.248  0.00  0.00    +0.151 C 
ENDBRANCH  17  28
ENDBRANCH   1  17
TORSDOF 4
