REMARK  Name = ZINC01043003
REMARK  5 active torsions:
REMARK  status: ('A' for Active; 'I' for Inactive)
REMARK    1  A    between atoms: C_1  and  O_2
REMARK    2  A    between atoms: O_2  and  C_3
REMARK    3  A    between atoms: C_4  and  C_13
REMARK    4  A    between atoms: C_5  and  C_9
REMARK    5  A    between atoms: N_18  and  C_19
REMARK                            x       y       z     vdW  Elec       q    Type
REMARK                         _______ _______ _______ _____ _____    ______ ____
ROOT
ATOM      1  C   UNL     1      -0.014   1.212   0.013  0.00  0.00    +0.257 C 
ATOM      2  O   UNL     1       0.002  -0.004  -0.003  0.00  0.00    -0.270 OA
ATOM      3  N   UNL     1      -1.191   1.869   0.024  0.00  0.00    -0.236 N 
ATOM      4  C   UNL     1      -2.349   1.180   0.018  0.00  0.00    +0.310 C 
ATOM      5  O   UNL     1      -2.332  -0.035   0.003  0.00  0.00    -0.252 OA
ATOM      6  N   UNL     1      -3.525   1.837   0.029  0.00  0.00    -0.269 N 
ATOM      7  H   UNL     1      -1.204   2.839   0.036  0.00  0.00    +0.159 HD
ATOM      8  H   UNL     1      -3.539   2.804   0.109  0.00  0.00    +0.156 HD
ENDROOT
BRANCH   6   9
ATOM      9  C   UNL     1      -4.726   1.126  -0.075  0.00  0.00    +0.035 A 
ATOM     10  C   UNL     1      -5.803   1.675  -0.758  0.00  0.00    +0.025 A 
ATOM     11  C   UNL     1      -6.984   0.968  -0.865  0.00  0.00    +0.022 A 
ATOM     12  C   UNL     1      -7.100  -0.281  -0.281  0.00  0.00    +0.041 A 
ATOM     13  C   UNL     1      -6.030  -0.828   0.406  0.00  0.00    +0.022 A 
ATOM     14  C   UNL     1      -4.844  -0.128   0.510  0.00  0.00    +0.025 A 
ATOM     15 CL   UNL     1      -8.589  -1.164  -0.410  0.00  0.00    -0.084 Cl
ENDBRANCH   6   9
BRANCH   1  17
ATOM     16  C   UNL     1       1.872   2.322   1.222  0.00  0.00    +0.227 A 
ATOM     17  C   UNL     1       1.252   1.966   0.013  0.00  0.00    +0.110 A 
ATOM     18  C   UNL     1       1.856   2.346  -1.191  0.00  0.00    +0.073 A 
ATOM     19  C   UNL     1       3.044   3.053  -1.137  0.00  0.00    +0.033 A 
ATOM     20  C   UNL     1       3.596   3.361   0.094  0.00  0.00    +0.115 A 
ATOM     21  N   UNL     1       3.011   2.994   1.217  0.00  0.00    -0.221 NA
BRANCH  18  22
ATOM     22  C   UNL     1       1.228   1.993  -2.515  0.00  0.00    +0.418 C 
ATOM     23  F   UNL     1       2.024   2.485  -3.555  0.00  0.00    -0.166 F 
ATOM     24  F   UNL     1       1.123   0.603  -2.626  0.00  0.00    -0.166 F 
ATOM     25  F   UNL     1      -0.047   2.565  -2.593  0.00  0.00    -0.166 F 
ENDBRANCH  18  22
BRANCH  16  27
ATOM     26  C   UNL     1       1.984   2.362   3.592  0.00  0.00    +0.279 C 
ATOM     27  O   UNL     1       1.303   1.970   2.399  0.00  0.00    -0.479 OA
ENDBRANCH  16  27
ENDBRANCH   1  17
TORSDOF 4
