REMARK  Name = ZINC01033575
REMARK  7 active torsions:
REMARK  status: ('A' for Active; 'I' for Inactive)
REMARK    1  A    between atoms: C_1  and  C_2
REMARK    2  A    between atoms: C_5  and  N_9
REMARK    3  A    between atoms: N_12  and  C_13
REMARK    4  A    between atoms: C_16  and  S_19
REMARK    5  A    between atoms: S_19  and  N_22
REMARK    6  A    between atoms: C_25  and  C_30
REMARK    7  A    between atoms: C_27  and  C_29
REMARK                            x       y       z     vdW  Elec       q    Type
REMARK                         _______ _______ _______ _____ _____    ______ ____
ROOT
ATOM      1  C   UNL     1      -5.926   2.988   0.243  0.00  0.00    +0.035 A 
ATOM      2  C   UNL     1      -5.902   1.599   0.229  0.00  0.00    +0.025 A 
ATOM      3  C   UNL     1      -7.088   0.890   0.238  0.00  0.00    +0.030 A 
ATOM      4  C   UNL     1      -8.297   1.561   0.251  0.00  0.00    +0.109 A 
ATOM      5  C   UNL     1      -8.323   2.943   0.259  0.00  0.00    +0.030 A 
ATOM      6  C   UNL     1      -7.142   3.659   0.255  0.00  0.00    +0.025 A 
ENDROOT
BRANCH   1  10
ATOM      7  N   UNL     1      -3.530   5.635   0.794  0.00  0.00    -0.269 N 
ATOM      8  C   UNL     1      -4.649   4.890   0.884  0.00  0.00    +0.308 C 
ATOM      9  O   UNL     1      -5.590   5.284   1.547  0.00  0.00    -0.252 OA
ATOM     10  N   UNL     1      -4.727   3.709   0.239  0.00  0.00    -0.269 N 
ATOM     11  H   UNL     1      -2.809   5.358   0.207  0.00  0.00    +0.156 HD
ATOM     12  H   UNL     1      -3.952   3.360  -0.227  0.00  0.00    +0.156 HD
BRANCH   7  17
ATOM     13  C   UNL     1      -3.030  10.386   3.856  0.00  0.00    +0.045 C 
ATOM     14  C   UNL     1      -3.162   9.124   3.043  0.00  0.00    -0.032 A 
ATOM     15  C   UNL     1      -3.871   8.049   3.547  0.00  0.00    +0.006 A 
ATOM     16  C   UNL     1      -3.990   6.890   2.806  0.00  0.00    +0.024 A 
ATOM     17  C   UNL     1      -3.406   6.807   1.549  0.00  0.00    +0.036 A 
ATOM     18  C   UNL     1      -2.695   7.887   1.045  0.00  0.00    +0.043 A 
ATOM     19  C   UNL     1      -2.575   9.043   1.793  0.00  0.00    +0.046 A 
ATOM     20 CL   UNL     1      -1.685  10.395   1.163  0.00  0.00    -0.083 Cl
ENDBRANCH   7  17
ENDBRANCH   1  10
BRANCH   4  21
ATOM     21  S   UNL     1      -9.806   0.652   0.256  0.00  0.00    +0.075 S 
ATOM     22  O   UNL     1      -9.508  -0.627   0.798  0.00  0.00    -0.150 OA
ATOM     23  O   UNL     1     -10.792   1.507   0.820  0.00  0.00    -0.150 OA
BRANCH  21  24
ATOM     24  N   UNL     1     -10.237   0.409  -1.324  0.00  0.00    -0.184 N 
ATOM     25  C   UNL     1      -9.444  -0.373  -2.145  0.00  0.00    +0.235 A 
ATOM     26  N   UNL     1      -8.210  -0.666  -1.763  0.00  0.00    -0.219 NA
ATOM     27  C   UNL     1      -7.427  -1.416  -2.522  0.00  0.00    +0.044 A 
ATOM     28  C   UNL     1      -7.909  -1.885  -3.734  0.00  0.00    +0.046 A 
ATOM     29  C   UNL     1      -9.203  -1.555  -4.105  0.00  0.00    +0.044 A 
ATOM     30  N   UNL     1      -9.935  -0.806  -3.297  0.00  0.00    -0.219 NA
ATOM     31  C   UNL     1      -9.769  -2.044  -5.413  0.00  0.00    +0.066 C 
ATOM     32  C   UNL     1      -6.027  -1.750  -2.077  0.00  0.00    +0.066 C 
ATOM     33  H   UNL     1     -11.046   0.815  -1.674  0.00  0.00    +0.177 HD
ENDBRANCH  21  24
ENDBRANCH   4  21
TORSDOF 4
