REMARK  Name = ZINC28774566
REMARK  3 active torsions:
REMARK  status: ('A' for Active; 'I' for Inactive)
REMARK    1  A    between atoms: C_5  and  C_7
REMARK    2  A    between atoms: N_9  and  N_10
REMARK    3  A    between atoms: C_11  and  C_13
REMARK                            x       y       z     vdW  Elec       q    Type
REMARK                         _______ _______ _______ _____ _____    ______ ____
ROOT
ATOM      1  N   UNL     1       0.121  -4.256  -0.023  0.00  0.00    -0.230 N 
ATOM      2  C   UNL     1      -1.033  -4.952  -0.015  0.00  0.00    +0.267 C 
ATOM      3  O   UNL     1      -2.099  -4.363  -0.002  0.00  0.00    -0.268 OA
ATOM      4  H   UNL     1       0.970  -4.726  -0.034  0.00  0.00    +0.173 HD
ENDROOT
BRANCH   2   5
ATOM      5  C   UNL     1      -1.007  -6.369  -0.024  0.00  0.00    +0.079 A 
ATOM      6  C   UNL     1      -2.068  -7.256  -0.024  0.00  0.00    +0.049 A 
ATOM      7  C   UNL     1      -1.814  -8.618  -0.034  0.00  0.00    +0.082 A 
ATOM      8  C   UNL     1      -0.470  -9.007  -0.043  0.00  0.00    +0.128 A 
ATOM      9  S   UNL     1       0.405  -7.462  -0.044  0.00  0.00    -0.062 S 
ATOM     10  N   UNL     1      -0.398 -10.331  -0.051  0.00  0.00    -0.214 NA
ATOM     11  C   UNL     1      -1.606 -10.828  -0.048  0.00  0.00    +0.179 A 
ATOM     12  N   UNL     1      -2.547  -9.836  -0.037  0.00  0.00    -0.293 N 
ATOM     13  C   UNL     1      -3.868 -10.223  -0.033  0.00  0.00    +0.101 A 
ATOM     14  C   UNL     1      -4.199 -11.514  -0.038  0.00  0.00    +0.067 A 
ATOM     15  S   UNL     1      -2.597 -12.305  -0.052  0.00  0.00    -0.058 S 
ENDBRANCH   2   5
BRANCH   1  18
ATOM     16  C   UNL     1       1.250  -2.160  -0.022  0.00  0.00    +0.262 C 
ATOM     17  O   UNL     1       2.313  -2.748  -0.035  0.00  0.00    -0.269 OA
ATOM     18  N   UNL     1       0.095  -2.856  -0.015  0.00  0.00    -0.230 N 
ATOM     19  H   UNL     1      -0.754  -2.386  -0.004  0.00  0.00    +0.173 HD
BRANCH  16  24
ATOM     20  C   UNL     1      -0.017   1.375   0.010  0.00  0.00    +0.001 A 
ATOM     21  C   UNL     1       1.170   2.087   0.002  0.00  0.00    +0.001 A 
ATOM     22  C   UNL     1       2.383   1.423  -0.013  0.00  0.00    +0.021 A 
ATOM     23  C   UNL     1       2.417   0.041  -0.021  0.00  0.00    +0.053 A 
ATOM     24  C   UNL     1       1.222  -0.683  -0.013  0.00  0.00    +0.056 A 
ATOM     25  C   UNL     1       0.002  -0.004   0.002  0.00  0.00    +0.014 A 
ATOM     26 CL   UNL     1       3.940  -0.792  -0.040  0.00  0.00    -0.083 Cl
ENDBRANCH  16  24
ENDBRANCH   1  18
TORSDOF 3
