REMARK  Name = ZINC65306429
REMARK  3 active torsions:
REMARK  status: ('A' for Active; 'I' for Inactive)
REMARK    1  A    between atoms: C_4  and  C_27
REMARK    2  A    between atoms: C_5  and  C_7
REMARK    3  A    between atoms: N_17  and  C_20
REMARK                            x       y       z     vdW  Elec       q    Type
REMARK                         _______ _______ _______ _____ _____    ______ ____
ROOT
ATOM      1  C   UNL     1       1.258  -2.150   0.202  0.00  0.00    +0.253 C 
ATOM      2  O   UNL     1       2.321  -2.729   0.105  0.00  0.00    -0.270 OA
ATOM      3  N   UNL     1       0.106  -2.850   0.201  0.00  0.00    -0.240 N 
ATOM      4  C   UNL     1      -1.251  -2.278   0.193  0.00  0.00    +0.137 C 
ATOM      5  C   UNL     1      -2.160  -3.523   0.195  0.00  0.00    +0.134 C 
ATOM      6  N   UNL     1      -1.220  -4.653   0.204  0.00  0.00    -0.359 N 
ATOM      7  C   UNL     1      -0.003  -4.219   0.202  0.00  0.00    +0.166 C 
ATOM      8  N   UNL     1       1.087  -5.056   0.204  0.00  0.00    -0.301 N 
ATOM      9  C   UNL     1       1.867  -5.265   1.432  0.00  0.00    +0.126 C 
ATOM     10  C   UNL     1       1.925  -6.770   1.724  0.00  0.00    +0.124 C 
ATOM     11  N   UNL     1       2.333  -7.471   0.499  0.00  0.00    -0.327 N 
ATOM     12  C   UNL     1       1.554  -7.261  -0.730  0.00  0.00    +0.124 C 
ATOM     13  C   UNL     1       1.492  -5.761  -1.020  0.00  0.00    +0.126 C 
ATOM     14  H   UNL     1      -1.476  -5.588   0.208  0.00  0.00    +0.162 HD
ENDROOT
BRANCH  11  15
ATOM     15  C   UNL     1       3.443  -8.322   0.501  0.00  0.00    +0.030 A 
ATOM     16  C   UNL     1       3.752  -9.064  -0.631  0.00  0.00    +0.026 A 
ATOM     17  C   UNL     1       4.849  -9.903  -0.627  0.00  0.00    +0.040 A 
ATOM     18  C   UNL     1       5.640 -10.005   0.505  0.00  0.00    +0.124 A 
ATOM     19  C   UNL     1       5.333  -9.266   1.635  0.00  0.00    +0.040 A 
ATOM     20  C   UNL     1       4.240  -8.421   1.633  0.00  0.00    +0.026 A 
ATOM     21  F   UNL     1       6.712 -10.827   0.507  0.00  0.00    -0.205 F 
ENDBRANCH  11  15
BRANCH   1  26
ATOM     22  C   UNL     1      -0.013   1.379   0.389  0.00  0.00    +0.001 A 
ATOM     23  C   UNL     1       1.169   2.083   0.543  0.00  0.00    +0.001 A 
ATOM     24  C   UNL     1       2.379   1.413   0.587  0.00  0.00    +0.013 A 
ATOM     25  C   UNL     1       2.415   0.039   0.476  0.00  0.00    +0.067 A 
ATOM     26  C   UNL     1       1.227  -0.677   0.321  0.00  0.00    +0.049 A 
ATOM     27  C   UNL     1       0.009   0.005   0.278  0.00  0.00    +0.013 A 
BRANCH  25  28
ATOM     28  C   UNL     1       3.734  -0.689   0.523  0.00  0.00    +0.418 C 
ATOM     29  F   UNL     1       4.771   0.236   0.683  0.00  0.00    -0.166 F 
ATOM     30  F   UNL     1       3.736  -1.582   1.599  0.00  0.00    -0.166 F 
ATOM     31  F   UNL     1       3.919  -1.395  -0.670  0.00  0.00    -0.166 F 
ENDBRANCH  25  28
ENDBRANCH   1  26
TORSDOF 3
