REMARK  Name = ZINC58175230
REMARK  10 active torsions:
REMARK  status: ('A' for Active; 'I' for Inactive)
REMARK    1  A    between atoms: C_1  and  C_2
REMARK    2  A    between atoms: C_2  and  C_3
REMARK    3  A    between atoms: C_2  and  C_4
REMARK    4  A    between atoms: C_4  and  C_5
REMARK    5  A    between atoms: C_5  and  C_6
REMARK    6  A    between atoms: C_5  and  N_21
REMARK    7  A    between atoms: N_8  and  N_9
REMARK    8  A    between atoms: N_9  and  C_10
REMARK    9  A    between atoms: C_10  and  N_12
REMARK   10  A    between atoms: N_12  and  C_13
REMARK                            x       y       z     vdW  Elec       q    Type
REMARK                         _______ _______ _______ _____ _____    ______ ____
ROOT
ATOM      1  C   UNL     1      -3.366  -0.975  -1.454  0.00  0.00    +0.249 C 
ATOM      2  O   UNL     1      -4.303  -0.326  -1.042  0.00  0.00    -0.272 OA
ATOM      3  N   UNL     1      -3.515  -2.291  -1.704  0.00  0.00    -0.234 N 
ATOM      4  H   UNL     1      -2.765  -2.811  -2.033  0.00  0.00    +0.173 HD
ENDROOT
BRANCH   3   5
ATOM      5  N   UNL     1      -4.755  -2.909  -1.489  0.00  0.00    -0.246 N 
ATOM      6  H   UNL     1      -5.505  -2.389  -1.160  0.00  0.00    +0.172 HD
BRANCH   5   7
ATOM      7  C   UNL     1      -4.904  -4.224  -1.739  0.00  0.00    +0.151 C 
ATOM      8  S   UNL     1      -6.419  -4.979  -1.476  0.00  0.00    -0.017 S 
BRANCH   7   9
ATOM      9  N   UNL     1      -3.862  -4.946  -2.197  0.00  0.00    -0.294 N 
ATOM     10  H   UNL     1      -3.025  -4.507  -2.411  0.00  0.00    +0.154 HD
BRANCH   9  11
ATOM     11  C   UNL     1      -3.989  -6.332  -2.363  0.00  0.00    +0.068 A 
ATOM     12  C   UNL     1      -5.106  -6.856  -2.998  0.00  0.00    +0.029 A 
ATOM     13  C   UNL     1      -5.230  -8.222  -3.162  0.00  0.00    +0.040 A 
ATOM     14  C   UNL     1      -4.240  -9.070  -2.693  0.00  0.00    +0.126 A 
ATOM     15  C   UNL     1      -3.124  -8.551  -2.059  0.00  0.00    +0.078 A 
ATOM     16  C   UNL     1      -2.994  -7.183  -1.898  0.00  0.00    +0.147 A 
ATOM     17  F   UNL     1      -1.902  -6.676  -1.284  0.00  0.00    -0.203 F 
ATOM     18  F   UNL     1      -4.364 -10.405  -2.854  0.00  0.00    -0.205 F 
ENDBRANCH   9  11
ENDBRANCH   7   9
ENDBRANCH   5   7
ENDBRANCH   3   5
BRANCH   1  19
ATOM     19  C   UNL     1      -2.033  -0.311  -1.685  0.00  0.00    +0.162 C 
BRANCH  19  20
ATOM     20  N   UNL     1      -2.223   1.136  -1.811  0.00  0.00    -0.288 N 
ATOM     21  C   UNL     1      -2.763   1.835  -0.794  0.00  0.00    +0.298 C 
ATOM     22  O   UNL     1      -3.092   1.266   0.229  0.00  0.00    -0.253 OA
ATOM     23  N   UNL     1      -2.939   3.167  -0.909  0.00  0.00    -0.313 N 
ATOM     24  H   UNL     1      -1.961   1.590  -2.627  0.00  0.00    +0.151 HD
ATOM     25  H   UNL     1      -2.676   3.621  -1.725  0.00  0.00    +0.146 HD
ATOM     26  H   UNL     1      -3.327   3.670  -0.177  0.00  0.00    +0.146 HD
ENDBRANCH  19  20
BRANCH  19  27
ATOM     27  C   UNL     1      -1.106  -0.603  -0.504  0.00  0.00    +0.035 C 
BRANCH  27  29
ATOM     28  C   UNL     1       1.153  -0.155   0.467  0.00  0.00    +0.007 C 
ATOM     29  C   UNL     1       0.271   0.008  -0.773  0.00  0.00    -0.015 C 
ATOM     30  C   UNL     1       0.922  -0.706  -1.959  0.00  0.00    +0.007 C 
ENDBRANCH  27  29
ENDBRANCH  19  27
ENDBRANCH   1  19
TORSDOF 8
