REMARK  Name = ZINC09620650
REMARK  5 active torsions:
REMARK  status: ('A' for Active; 'I' for Inactive)
REMARK    1  A    between atoms: C_1  and  C_2
REMARK    2  A    between atoms: C_12  and  S_14
REMARK    3  A    between atoms: S_14  and  N_17
REMARK    4  A    between atoms: C_20  and  C_23
REMARK    5  A    between atoms: N_25  and  C_26
REMARK                            x       y       z     vdW  Elec       q    Type
REMARK                         _______ _______ _______ _____ _____    ______ ____
ROOT
ATOM      1  N   UNL     1      -6.967  -0.152   1.153  0.00  0.00    -0.177 NA
ATOM      2  C   UNL     1      -7.245  -1.075   0.044  0.00  0.00    +0.110 C 
ATOM      3  C   UNL     1      -6.188  -2.189   0.059  0.00  0.00    +0.030 C 
ATOM      4  C   UNL     1      -6.171  -2.851   1.438  0.00  0.00    +0.078 C 
ATOM      5  C   UNL     1      -5.793  -1.815   2.499  0.00  0.00    +0.030 C 
ATOM      6  C   UNL     1      -6.841  -0.697   2.512  0.00  0.00    +0.110 C 
ENDROOT
BRANCH   4   7
ATOM      7  C   UNL     1      -5.162  -3.970   1.447  0.00  0.00    +0.220 C 
ATOM      8  O   UNL     1      -4.231  -3.941   2.224  0.00  0.00    -0.275 OA
ATOM      9  N   UNL     1      -5.292  -5.002   0.590  0.00  0.00    -0.285 N 
ATOM     10  H   UNL     1      -5.990  -4.988  -0.083  0.00  0.00    +0.155 HD
BRANCH   9  11
ATOM     11  C   UNL     1      -4.419  -6.095   0.672  0.00  0.00    +0.037 A 
ATOM     12  C   UNL     1      -3.929  -6.501   1.906  0.00  0.00    +0.027 A 
ATOM     13  C   UNL     1      -3.068  -7.579   1.988  0.00  0.00    +0.051 A 
ATOM     14  C   UNL     1      -2.691  -8.257   0.840  0.00  0.00    +0.166 A 
ATOM     15  C   UNL     1      -3.181  -7.851  -0.400  0.00  0.00    +0.168 A 
ATOM     16  C   UNL     1      -4.049  -6.775  -0.480  0.00  0.00    +0.072 A 
ATOM     17  O   UNL     1      -2.667  -8.671  -1.362  0.00  0.00    -0.453 OA
ATOM     18  C   UNL     1      -2.184  -9.832  -0.660  0.00  0.00    +0.466 C 
ATOM     19  O   UNL     1      -1.869  -9.332   0.653  0.00  0.00    -0.453 OA
ENDBRANCH   9  11
ENDBRANCH   4   7
BRANCH   1  20
ATOM     20  S   UNL     1      -6.804   1.473   0.878  0.00  0.00    +0.061 S 
ATOM     21  O   UNL     1      -7.110   2.125   2.103  0.00  0.00    -0.153 OA
ATOM     22  O   UNL     1      -7.502   1.752  -0.328  0.00  0.00    -0.153 OA
BRANCH  20  34
ATOM     23  C   UNL     1       1.191   3.209   0.552  0.00  0.00    +0.109 C 
ATOM     24  C   UNL     1      -0.294   3.071   0.767  0.00  0.00    +0.217 C 
ATOM     25  O   UNL     1      -0.795   3.455   1.802  0.00  0.00    -0.276 OA
ATOM     26  N   UNL     1      -1.065   2.519  -0.191  0.00  0.00    -0.271 N 
ATOM     27  C   UNL     1      -0.497   2.176  -1.502  0.00  0.00    +0.114 C 
ATOM     28  C   UNL     1      -1.480   2.651  -2.579  0.00  0.00    +0.024 C 
ATOM     29  C   UNL     1      -2.793   1.883  -2.423  0.00  0.00    +0.038 C 
ATOM     30  C   UNL     1      -3.282   1.960  -1.000  0.00  0.00    -0.024 A 
ATOM     31  C   UNL     1      -2.424   2.262   0.045  0.00  0.00    +0.040 A 
ATOM     32  C   UNL     1      -2.908   2.320   1.347  0.00  0.00    +0.026 A 
ATOM     33  C   UNL     1      -4.243   2.079   1.600  0.00  0.00    +0.030 A 
ATOM     34  C   UNL     1      -5.099   1.779   0.556  0.00  0.00    +0.106 A 
ATOM     35  C   UNL     1      -4.621   1.720  -0.739  0.00  0.00    +0.034 A 
ENDBRANCH  20  34
ENDBRANCH   1  20
TORSDOF 4
