REMARK  Name = ZINC57472635
REMARK  17 active torsions:
REMARK  status: ('A' for Active; 'I' for Inactive)
REMARK    1  A    between atoms: C_1  and  C_2
REMARK    2  A    between atoms: C_2  and  C_3
REMARK    3  A    between atoms: C_3  and  C_4
REMARK    4  A    between atoms: C_4  and  O_5
REMARK    5  A    between atoms: O_5  and  C_6
REMARK    6  A    between atoms: C_9  and  C_15
REMARK    7  A    between atoms: C_11  and  O_12
REMARK    8  A    between atoms: O_12  and  C_13
REMARK    9  A    between atoms: C_13  and  C_14
REMARK   10  A    between atoms: C_16  and  C_17
REMARK   11  A    between atoms: C_17  and  O_19
REMARK   12  A    between atoms: O_19  and  C_20
REMARK   13  A    between atoms: C_20  and  C_21
REMARK   14  A    between atoms: C_21  and  O_22
REMARK   15  A    between atoms: O_22  and  C_23
REMARK   16  A    between atoms: C_23  and  C_24
REMARK   17  A    between atoms: C_23  and  C_25
REMARK                            x       y       z     vdW  Elec       q    Type
REMARK                         _______ _______ _______ _____ _____    ______ ____
ROOT
ATOM      1  C   UNL     1       1.514  -3.832  -2.603  0.00  0.00    +0.162 A 
ATOM      2  C   UNL     1       0.978  -4.689  -1.651  0.00  0.00    +0.050 A 
ATOM      3  C   UNL     1       1.081  -6.053  -1.810  0.00  0.00    +0.012 A 
ATOM      4  C   UNL     1       1.728  -6.579  -2.934  0.00  0.00    -0.021 A 
ATOM      5  C   UNL     1       2.268  -5.715  -3.894  0.00  0.00    +0.057 A 
ATOM      6  C   UNL     1       2.155  -4.348  -3.729  0.00  0.00    +0.162 A 
ENDROOT
BRANCH   4   7
ATOM      7  C   UNL     1       1.841  -8.034  -3.107  0.00  0.00    +0.015 C 
ATOM      8  C   UNL     1       1.319  -8.867  -2.179  0.00  0.00    +0.092 C 
BRANCH   8   9
ATOM      9  C   UNL     1       1.428 -10.270  -2.345  0.00  0.00    +0.332 C 
ATOM     10  O   UNL     1       1.991 -10.725  -3.323  0.00  0.00    -0.246 OA
BRANCH   9  11
ATOM     11  O   UNL     1       0.907 -11.102  -1.419  0.00  0.00    -0.459 OA
BRANCH  11  12
ATOM     12  C   UNL     1       1.053 -12.504  -1.650  0.00  0.00    +0.260 C 
BRANCH  12  13
ATOM     13  C   UNL     1       0.406 -13.281  -0.502  0.00  0.00    +0.201 C 
BRANCH  13  14
ATOM     14  O   UNL     1      -1.003 -13.043  -0.501  0.00  0.00    -0.374 OA
BRANCH  14  15
ATOM     15  C   UNL     1      -1.707 -13.725   0.538  0.00  0.00    +0.112 C 
ATOM     16  C   UNL     1      -1.766 -12.838   1.783  0.00  0.00    +0.037 C 
ATOM     17  C   UNL     1      -3.129 -14.041   0.069  0.00  0.00    +0.037 C 
ENDBRANCH  14  15
ENDBRANCH  13  14
ENDBRANCH  12  13
ENDBRANCH  11  12
ENDBRANCH   9  11
ENDBRANCH   8   9
ENDBRANCH   4   7
BRANCH   1  18
ATOM     18  O   UNL     1       1.408  -2.488  -2.441  0.00  0.00    -0.488 OA
BRANCH  18  19
ATOM     19  C   UNL     1       0.739  -2.027  -1.265  0.00  0.00    +0.229 C 
BRANCH  19  20
ATOM     20  C   UNL     1       0.718  -0.497  -1.257  0.00  0.00    +0.041 C 
BRANCH  20  22
ATOM     21  C   UNL     1      -0.019   1.526   0.010  0.00  0.00    +0.004 C 
ATOM     22  C   UNL     1       0.002  -0.004   0.002  0.00  0.00    -0.000 C 
ENDBRANCH  20  22
ENDBRANCH  19  20
ENDBRANCH  18  19
ENDBRANCH   1  18
BRANCH   6  23
ATOM     23  O   UNL     1       2.673  -3.506  -4.662  0.00  0.00    -0.489 OA
BRANCH  23  24
ATOM     24  C   UNL     1       3.316  -4.103  -5.790  0.00  0.00    +0.226 C 
ATOM     25  C   UNL     1       3.832  -3.006  -6.723  0.00  0.00    +0.048 C 
ENDBRANCH  23  24
ENDBRANCH   6  23
TORSDOF 13
