REMARK  Name = ZINC09849651
REMARK  2 active torsions:
REMARK  status: ('A' for Active; 'I' for Inactive)
REMARK    1  A    between atoms: C_6  and  C_7
REMARK    2  A    between atoms: N_21  and  C_24
REMARK                            x       y       z     vdW  Elec       q    Type
REMARK                         _______ _______ _______ _____ _____    ______ ____
ROOT
ATOM      1  C   UNL     1       0.297  -5.691  -1.657  0.00  0.00    +0.247 C 
ATOM      2  O   UNL     1       1.249  -6.367  -1.995  0.00  0.00    -0.270 OA
ATOM      3  N   UNL     1       0.434  -4.358  -1.513  0.00  0.00    -0.295 N 
ATOM      4  C   UNL     1      -0.728  -3.507  -1.216  0.00  0.00    +0.127 C 
ATOM      5  C   UNL     1      -0.755  -2.352  -2.222  0.00  0.00    +0.125 C 
ATOM      6  N   UNL     1       0.541  -1.661  -2.205  0.00  0.00    -0.310 N 
ATOM      7  C   UNL     1       1.626  -2.552  -2.637  0.00  0.00    +0.125 C 
ATOM      8  C   UNL     1       1.751  -3.716  -1.648  0.00  0.00    +0.127 C 
ATOM      9  C   UNL     1       0.502  -0.517  -2.979  0.00  0.00    +0.154 A 
ATOM     10  C   UNL     1       1.640   0.306  -3.107  0.00  0.00    +0.172 A 
ATOM     11  C   UNL     1       1.536   1.455  -3.909  0.00  0.00    +0.188 A 
ATOM     12  N   UNL     1       0.380   1.723  -4.511  0.00  0.00    -0.214 NA
ATOM     13  C   UNL     1      -0.655   0.925  -4.361  0.00  0.00    +0.225 A 
ATOM     14  N   UNL     1      -0.607  -0.167  -3.618  0.00  0.00    -0.218 NA
ATOM     15  N   UNL     1       2.763   2.062  -3.862  0.00  0.00    -0.194 N 
ATOM     16  N   UNL     1       3.571   1.267  -3.036  0.00  0.00    -0.058 NA
ATOM     17  N   UNL     1       2.891   0.258  -2.616  0.00  0.00    -0.124 NA
ENDROOT
BRANCH   1  23
ATOM     18  C   UNL     1      -1.863  -5.821  -0.424  0.00  0.00    +0.016 A 
ATOM     19  C   UNL     1      -3.085  -6.417  -0.198  0.00  0.00    +0.039 A 
ATOM     20  C   UNL     1      -3.463  -7.529  -0.935  0.00  0.00    +0.123 A 
ATOM     21  C   UNL     1      -2.619  -8.042  -1.908  0.00  0.00    +0.039 A 
ATOM     22  C   UNL     1      -1.397  -7.449  -2.147  0.00  0.00    +0.016 A 
ATOM     23  C   UNL     1      -1.011  -6.330  -1.406  0.00  0.00    +0.037 A 
ATOM     24  F   UNL     1      -4.659  -8.113  -0.706  0.00  0.00    -0.205 F 
ENDBRANCH   1  23
BRANCH  15  25
ATOM     25  C   UNL     1       3.137   3.246  -4.512  0.00  0.00    +0.069 A 
ATOM     26  C   UNL     1       2.625   3.542  -5.769  0.00  0.00    +0.029 A 
ATOM     27  C   UNL     1       2.991   4.712  -6.404  0.00  0.00    +0.022 A 
ATOM     28  C   UNL     1       3.877   5.584  -5.795  0.00  0.00    +0.041 A 
ATOM     29  C   UNL     1       4.393   5.289  -4.546  0.00  0.00    +0.022 A 
ATOM     30  C   UNL     1       4.025   4.123  -3.903  0.00  0.00    +0.029 A 
ATOM     31 CL   UNL     1       4.341   7.050  -6.601  0.00  0.00    -0.084 Cl
ENDBRANCH  15  25
TORSDOF 2
