REMARK  Name = ZINC58942616
REMARK  8 active torsions:
REMARK  status: ('A' for Active; 'I' for Inactive)
REMARK    1  A    between atoms: C_1  and  O_2
REMARK    2  A    between atoms: O_2  and  C_3
REMARK    3  A    between atoms: C_8  and  N_9
REMARK    4  A    between atoms: C_10  and  C_12
REMARK    5  A    between atoms: N_17  and  C_28
REMARK    6  A    between atoms: N_19  and  C_20
REMARK    7  A    between atoms: C_28  and  C_29
REMARK    8  A    between atoms: C_29  and  C_30
REMARK                            x       y       z     vdW  Elec       q    Type
REMARK                         _______ _______ _______ _____ _____    ______ ____
ROOT
ATOM      1  C   UNL     1      -0.648  -4.951   0.806  0.00  0.00    +0.149 C 
ATOM      2  C   UNL     1       0.084  -6.281   0.991  0.00  0.00    +0.120 C 
ATOM      3  C   UNL     1      -0.677  -7.236   1.846  0.00  0.00    +0.223 C 
ATOM      4  O   UNL     1      -0.008  -8.040   2.459  0.00  0.00    -0.275 OA
ATOM      5  N   UNL     1      -1.986  -7.322   2.025  0.00  0.00    -0.250 N 
ATOM      6  C   UNL     1      -2.902  -6.411   1.528  0.00  0.00    +0.164 C 
ATOM      7  N   UNL     1      -4.130  -6.359   1.985  0.00  0.00    -0.226 NA
ATOM      8  S   UNL     1      -2.346  -5.316   0.250  0.00  0.00    -0.077 S 
ENDROOT
BRANCH   7   9
ATOM      9  C   UNL     1      -5.014  -5.445   1.472  0.00  0.00    +0.067 A 
ATOM     10  C   UNL     1      -4.615  -4.123   1.267  0.00  0.00    +0.030 A 
ATOM     11  C   UNL     1      -5.508  -3.208   0.751  0.00  0.00    +0.040 A 
ATOM     12  C   UNL     1      -6.800  -3.599   0.436  0.00  0.00    +0.124 A 
ATOM     13  C   UNL     1      -7.201  -4.909   0.637  0.00  0.00    +0.040 A 
ATOM     14  C   UNL     1      -6.314  -5.835   1.147  0.00  0.00    +0.030 A 
ATOM     15  F   UNL     1      -7.671  -2.698  -0.069  0.00  0.00    -0.205 F 
ENDBRANCH   7   9
BRANCH   1  17
ATOM     16  N   UNL     1       0.095  -2.777  -0.112  0.00  0.00    -0.282 N 
ATOM     17  C   UNL     1       0.060  -4.119  -0.233  0.00  0.00    +0.231 C 
ATOM     18  O   UNL     1       0.599  -4.658  -1.176  0.00  0.00    -0.274 OA
ATOM     19  H   UNL     1      -0.265  -2.352   0.681  0.00  0.00    +0.155 HD
BRANCH  16  25
ATOM     20  C   UNL     1       1.159  -0.731  -0.849  0.00  0.00    +0.141 A 
ATOM     21  C   UNL     1       1.713   0.034  -1.862  0.00  0.00    +0.047 A 
ATOM     22  C   UNL     1       1.756  -0.456  -3.154  0.00  0.00    +0.004 A 
ATOM     23  C   UNL     1       1.248  -1.710  -3.439  0.00  0.00    +0.002 A 
ATOM     24  C   UNL     1       0.694  -2.480  -2.434  0.00  0.00    +0.027 A 
ATOM     25  C   UNL     1       0.652  -1.997  -1.134  0.00  0.00    +0.076 A 
BRANCH  20  27
ATOM     26  C   UNL     1       1.655   1.055   0.641  0.00  0.00    +0.277 C 
ATOM     27  O   UNL     1       1.116  -0.251   0.423  0.00  0.00    -0.493 OA
ENDBRANCH  20  27
ENDBRANCH  16  25
ENDBRANCH   1  17
BRANCH   5  28
ATOM     28  C   UNL     1      -2.499  -8.455   2.799  0.00  0.00    +0.120 C 
BRANCH  28  29
ATOM     29  C   UNL     1      -2.563  -8.074   4.279  0.00  0.00    +0.054 C 
BRANCH  29  30
ATOM     30  C   UNL     1      -3.090  -9.240   5.075  0.00  0.00    -0.042 A 
ATOM     31  C   UNL     1      -4.450  -9.375   5.283  0.00  0.00    +0.007 A 
ATOM     32  C   UNL     1      -4.939 -10.443   6.013  0.00  0.00    +0.050 A 
ATOM     33  C   UNL     1      -4.065 -11.381   6.538  0.00  0.00    +0.166 A 
ATOM     34  C   UNL     1      -2.695 -11.246   6.328  0.00  0.00    +0.166 A 
ATOM     35  C   UNL     1      -2.213 -10.176   5.591  0.00  0.00    +0.053 A 
ATOM     36  O   UNL     1      -2.055 -12.286   6.939  0.00  0.00    -0.453 OA
ATOM     37  C   UNL     1      -3.010 -12.833   7.867  0.00  0.00    +0.466 C 
ATOM     38  O   UNL     1      -4.284 -12.506   7.280  0.00  0.00    -0.453 OA
ENDBRANCH  29  30
ENDBRANCH  28  29
ENDBRANCH   5  28
TORSDOF 7
