REMARK  Name = ZINC15658639
REMARK  4 active torsions:
REMARK  status: ('A' for Active; 'I' for Inactive)
REMARK    1  A    between atoms: C_3  and  N_35
REMARK    2  A    between atoms: C_6  and  C_7
REMARK    3  A    between atoms: C_18  and  S_31
REMARK    4  A    between atoms: S_31  and  N_34
REMARK                            x       y       z     vdW  Elec       q    Type
REMARK                         _______ _______ _______ _____ _____    ______ ____
ROOT
ATOM      1  C   UNL     1       2.003  -0.381  -2.880  0.00  0.00    +0.108 C 
ATOM      2  C   UNL     1       2.244  -1.870  -3.007  0.00  0.00    +0.029 C 
ATOM      3  C   UNL     1       1.102  -2.545  -3.804  0.00  0.00    +0.033 C 
ATOM      4  C   UNL     1       1.093  -3.963  -3.264  0.00  0.00    -0.030 C 
ATOM      5  C   UNL     1       1.662  -4.009  -2.087  0.00  0.00    -0.023 C 
ATOM      6  C   UNL     1       2.136  -2.628  -1.667  0.00  0.00    +0.049 C 
ATOM      7  C   UNL     1       1.054  -2.002  -0.821  0.00  0.00    -0.017 A 
ATOM      8  C   UNL     1       0.145  -2.765  -0.128  0.00  0.00    +0.034 A 
ATOM      9  C   UNL     1      -0.835  -2.154   0.636  0.00  0.00    +0.106 A 
ATOM     10  C   UNL     1      -0.902  -0.772   0.697  0.00  0.00    +0.034 A 
ATOM     11  C   UNL     1       0.002  -0.004   0.002  0.00  0.00    -0.017 A 
ATOM     12  C   UNL     1       1.001  -0.608  -0.762  0.00  0.00    +0.038 A 
ATOM     13  N   UNL     1       1.964   0.073  -1.494  0.00  0.00    -0.322 N 
ATOM     14  C   UNL     1       2.006   1.532  -1.369  0.00  0.00    +0.110 C 
ATOM     15  C   UNL     1       1.485   1.912  -0.002  0.00  0.00    +0.021 C 
ATOM     16  C   UNL     1      -0.018   1.480   0.010  0.00  0.00    +0.048 C 
ATOM     17  C   UNL     1      -0.566   2.234   1.169  0.00  0.00    -0.023 C 
ATOM     18  C   UNL     1       0.144   3.344   1.331  0.00  0.00    -0.030 C 
ATOM     19  C   UNL     1       1.268   3.400   0.295  0.00  0.00    +0.033 C 
ENDROOT
BRANCH   1  25
ATOM     20  C   UNL     1       4.333   0.528  -2.983  0.00  0.00    +0.008 A 
ATOM     21  C   UNL     1       5.347   1.197  -3.643  0.00  0.00    +0.033 A 
ATOM     22  C   UNL     1       5.133   1.696  -4.914  0.00  0.00    +0.126 A 
ATOM     23  C   UNL     1       3.906   1.524  -5.526  0.00  0.00    +0.033 A 
ATOM     24  C   UNL     1       2.893   0.851  -4.868  0.00  0.00    +0.008 A 
ATOM     25  C   UNL     1       3.107   0.351  -3.597  0.00  0.00    -0.027 A 
BRANCH  22  26
ATOM     26  N   UNL     1       6.218   2.415  -5.619  0.00  0.00    +0.056 N 
ATOM     27  O   UNL     1       6.029   2.854  -6.739  0.00  0.00    -0.126 OA
ATOM     28  O   UNL     1       7.299   2.567  -5.079  0.00  0.00    -0.126 OA
ENDBRANCH  22  26
ENDBRANCH   1  25
BRANCH   9  29
ATOM     29  S   UNL     1      -1.994  -3.134   1.531  0.00  0.00    +0.056 S 
ATOM     30  O   UNL     1      -3.143  -2.322   1.730  0.00  0.00    -0.153 OA
ATOM     31  O   UNL     1      -2.055  -4.392   0.873  0.00  0.00    -0.153 OA
BRANCH  29  32
ATOM     32  N   UNL     1      -1.346  -3.413   3.029  0.00  0.00    -0.204 NA
ATOM     33  H   UNL     1      -1.929  -3.532   3.795  0.00  0.00    +0.144 HD
ATOM     34  H   UNL     1      -0.384  -3.459   3.140  0.00  0.00    +0.144 HD
ENDBRANCH  29  32
ENDBRANCH   9  29
TORSDOF 4
