REMARK  Name = ZINC09123992
REMARK  12 active torsions:
REMARK  status: ('A' for Active; 'I' for Inactive)
REMARK    1  A    between atoms: C_1  and  C_2
REMARK    2  A    between atoms: C_4  and  C_39
REMARK    3  A    between atoms: C_5  and  O_38
REMARK    4  A    between atoms: C_6  and  C_8
REMARK    5  A    between atoms: N_16  and  C_26
REMARK    6  A    between atoms: C_17  and  C_19
REMARK    7  A    between atoms: C_26  and  C_27
REMARK    8  A    between atoms: C_27  and  C_28
REMARK    9  A    between atoms: C_31  and  O_36
REMARK   10  A    between atoms: C_32  and  O_34
REMARK   11  A    between atoms: O_34  and  C_35
REMARK   12  A    between atoms: O_36  and  C_37
REMARK                            x       y       z     vdW  Elec       q    Type
REMARK                         _______ _______ _______ _____ _____    ______ ____
ROOT
ATOM      1  C   UNL     1      -0.198  -3.103   2.763  0.00  0.00    +0.102 A 
ATOM      2  C   UNL     1       0.034  -2.388   3.943  0.00  0.00    +0.035 A 
ATOM      3  C   UNL     1       0.080  -3.331   4.952  0.00  0.00    +0.126 A 
ATOM      4  N   UNL     1      -0.120  -4.541   4.350  0.00  0.00    -0.272 N 
ATOM      5  H   UNL     1      -0.141  -5.395   4.809  0.00  0.00    +0.189 HD
ATOM      6  N   UNL     1      -0.283  -4.378   3.085  0.00  0.00    -0.173 NA
ATOM      7  C   UNL     1       0.322  -2.642   6.224  0.00  0.00    +0.265 C 
ATOM      8  O   UNL     1       0.417  -3.192   7.305  0.00  0.00    -0.268 OA
ATOM      9  N   UNL     1       0.424  -1.315   6.027  0.00  0.00    -0.285 N 
ATOM     10  C   UNL     1       0.253  -1.049   4.593  0.00  0.00    +0.141 C 
ENDROOT
BRANCH   1  16
ATOM     11  C   UNL     1       1.452  -0.029  -0.808  0.00  0.00    +0.044 C 
ATOM     12  C   UNL     1       0.460  -1.053  -0.320  0.00  0.00    -0.049 A 
ATOM     13  C   UNL     1      -0.575  -1.458  -1.144  0.00  0.00    +0.010 A 
ATOM     14  C   UNL     1      -1.490  -2.396  -0.705  0.00  0.00    -0.008 A 
ATOM     15  C   UNL     1      -1.374  -2.937   0.566  0.00  0.00    +0.129 A 
ATOM     16  C   UNL     1      -0.329  -2.530   1.401  0.00  0.00    +0.044 A 
ATOM     17  C   UNL     1       0.590  -1.588   0.946  0.00  0.00    +0.017 A 
ATOM     18  C   UNL     1      -2.615  -2.832  -1.608  0.00  0.00    +0.047 C 
BRANCH  15  19
ATOM     19  O   UNL     1      -2.273  -3.858   0.999  0.00  0.00    -0.506 OA
ATOM     20  H   UNL     1      -2.025  -4.772   0.803  0.00  0.00    +0.292 HD
ENDBRANCH  15  19
ENDBRANCH   1  16
BRANCH  10  21
ATOM     21  C   UNL     1      -0.944  -0.162   4.369  0.00  0.00    -0.022 A 
ATOM     22  C   UNL     1      -2.114  -0.390   5.069  0.00  0.00    +0.007 A 
ATOM     23  C   UNL     1      -3.213   0.423   4.864  0.00  0.00    +0.020 A 
ATOM     24  C   UNL     1      -3.141   1.466   3.958  0.00  0.00    +0.041 A 
ATOM     25  C   UNL     1      -1.970   1.694   3.257  0.00  0.00    +0.020 A 
ATOM     26  C   UNL     1      -0.871   0.884   3.467  0.00  0.00    +0.007 A 
ATOM     27 CL   UNL     1      -4.521   2.488   3.699  0.00  0.00    -0.084 Cl
ENDBRANCH  10  21
BRANCH   9  28
ATOM     28  C   UNL     1       0.665  -0.309   7.064  0.00  0.00    +0.114 C 
BRANCH  28  29
ATOM     29  C   UNL     1       2.171  -0.097   7.229  0.00  0.00    +0.054 C 
BRANCH  29  30
ATOM     30  C   UNL     1       2.418   0.938   8.296  0.00  0.00    -0.042 A 
ATOM     31  C   UNL     1       2.496   2.275   7.955  0.00  0.00    +0.007 A 
ATOM     32  C   UNL     1       2.723   3.229   8.930  0.00  0.00    +0.049 A 
ATOM     33  C   UNL     1       2.873   2.845  10.253  0.00  0.00    +0.161 A 
ATOM     34  C   UNL     1       2.795   1.498  10.596  0.00  0.00    +0.162 A 
ATOM     35  C   UNL     1       2.562   0.548   9.615  0.00  0.00    +0.053 A 
BRANCH  34  36
ATOM     36  O   UNL     1       2.941   1.117  11.893  0.00  0.00    -0.491 OA
ATOM     37  C   UNL     1       2.849  -0.282  12.172  0.00  0.00    +0.277 C 
ENDBRANCH  34  36
BRANCH  33  38
ATOM     38  O   UNL     1       3.097   3.781  11.213  0.00  0.00    -0.491 OA
ATOM     39  C   UNL     1       3.165   5.144  10.787  0.00  0.00    +0.277 C 
ENDBRANCH  33  38
ENDBRANCH  29  30
ENDBRANCH  28  29
ENDBRANCH   9  28
TORSDOF 8
