REMARK  Name = ZINC38994329
REMARK  8 active torsions:
REMARK  status: ('A' for Active; 'I' for Inactive)
REMARK    1  A    between atoms: C_4  and  C_7
REMARK    2  A    between atoms: C_9  and  C_13
REMARK    3  A    between atoms: C_17  and  S_21
REMARK    4  A    between atoms: N_19  and  N_20
REMARK    5  A    between atoms: S_21  and  C_22
REMARK    6  A    between atoms: C_22  and  C_23
REMARK    7  A    between atoms: N_25  and  C_26
REMARK    8  A    between atoms: C_30  and  C_32
REMARK                            x       y       z     vdW  Elec       q    Type
REMARK                         _______ _______ _______ _____ _____    ______ ____
ROOT
ATOM      1  C   UNL     1       5.775  -2.997  -1.307  0.00  0.00    +0.185 C 
ATOM      2  N   UNL     1       5.577  -2.131  -2.499  0.00  0.00    -0.234 NA
ATOM      3  N   UNL     1       6.517  -2.696  -3.480  0.00  0.00    -0.228 NA
ATOM      4  C   UNL     1       7.704  -3.075  -2.679  0.00  0.00    +0.214 C 
ATOM      5  N   UNL     1       7.230  -3.271  -1.291  0.00  0.00    -0.197 NA
ATOM      6  H   UNL     1       5.806  -1.171  -2.291  0.00  0.00    +0.143 HD
ATOM      7  H   UNL     1       6.759  -2.015  -4.184  0.00  0.00    +0.143 HD
ENDROOT
BRANCH   1  10
ATOM      8  C   UNL     1       3.718  -0.704   0.009  0.00  0.00    +0.091 C 
ATOM      9  C   UNL     1       3.852  -2.044  -0.010  0.00  0.00    +0.034 C 
ATOM     10  C   UNL     1       5.355  -2.259  -0.034  0.00  0.00    +0.187 C 
ATOM     11  N   UNL     1       5.890  -0.888  -0.024  0.00  0.00    -0.176 NA
ATOM     12  N   UNL     1       4.937  -0.105  -0.006  0.00  0.00    -0.154 NA
BRANCH   8  16
ATOM     13  C   UNL     1       0.002   1.361   0.088  0.00  0.00    +0.000 A 
ATOM     14  C   UNL     1       1.186   2.075   0.076  0.00  0.00    +0.001 A 
ATOM     15  C   UNL     1       2.396   1.410   0.050  0.00  0.00    +0.010 A 
ATOM     16  C   UNL     1       2.421   0.017   0.037  0.00  0.00    +0.002 A 
ATOM     17  C   UNL     1       1.224  -0.697   0.050  0.00  0.00    +0.010 A 
ATOM     18  C   UNL     1       0.021  -0.022   0.075  0.00  0.00    +0.001 A 
ENDBRANCH   8  16
ENDBRANCH   1  10
BRANCH   5  19
ATOM     19  N   UNL     1       7.919  -2.377  -0.374  0.00  0.00    -0.264 NA
ATOM     20  H   UNL     1       8.911  -2.564  -0.363  0.00  0.00    +0.137 HD
ATOM     21  H   UNL     1       7.736  -1.412  -0.605  0.00  0.00    +0.137 HD
ENDBRANCH   5  19
BRANCH   4  22
ATOM     22  S   UNL     1       8.417  -4.617  -3.315  0.00  0.00    -0.115 S 
BRANCH  22  23
ATOM     23  C   UNL     1       7.059  -5.814  -3.187  0.00  0.00    +0.168 C 
BRANCH  23  24
ATOM     24  C   UNL     1       7.524  -7.156  -3.689  0.00  0.00    +0.227 C 
ATOM     25  O   UNL     1       8.659  -7.292  -4.094  0.00  0.00    -0.275 OA
ATOM     26  N   UNL     1       6.678  -8.206  -3.689  0.00  0.00    -0.285 N 
ATOM     27  H   UNL     1       5.793  -8.115  -3.304  0.00  0.00    +0.155 HD
BRANCH  26  28
ATOM     28  C   UNL     1       7.078  -9.426  -4.244  0.00  0.00    +0.034 A 
ATOM     29  C   UNL     1       6.156 -10.221  -4.914  0.00  0.00    +0.023 A 
ATOM     30  C   UNL     1       6.553 -11.425  -5.461  0.00  0.00    +0.002 A 
ATOM     31  C   UNL     1       7.867 -11.840  -5.342  0.00  0.00    +0.012 A 
ATOM     32  C   UNL     1       8.787 -11.052  -4.676  0.00  0.00    +0.057 A 
ATOM     33  C   UNL     1       8.398  -9.843  -4.132  0.00  0.00    +0.035 A 
BRANCH  32  34
ATOM     34  C   UNL     1      10.218 -11.508  -4.548  0.00  0.00    +0.417 C 
ATOM     35  F   UNL     1      10.369 -12.748  -5.178  0.00  0.00    -0.166 F 
ATOM     36  F   UNL     1      11.062 -10.571  -5.154  0.00  0.00    -0.166 F 
ATOM     37  F   UNL     1      10.550 -11.629  -3.195  0.00  0.00    -0.166 F 
ENDBRANCH  32  34
ENDBRANCH  26  28
ENDBRANCH  23  24
ENDBRANCH  22  23
ENDBRANCH   4  22
TORSDOF 8
