REMARK  Name = ZINC24967464
REMARK  6 active torsions:
REMARK  status: ('A' for Active; 'I' for Inactive)
REMARK    1  A    between atoms: C_1  and  C_2
REMARK    2  A    between atoms: C_9  and  C_16
REMARK    3  A    between atoms: C_11  and  O_12
REMARK    4  A    between atoms: C_16  and  S_17
REMARK    5  A    between atoms: S_17  and  C_18
REMARK    6  A    between atoms: C_26  and  C_28
REMARK                            x       y       z     vdW  Elec       q    Type
REMARK                         _______ _______ _______ _____ _____    ______ ____
ROOT
ATOM      1  C   UNL     1      -2.193   1.470   0.609  0.00  0.00    +0.109 C 
ATOM      2  C   UNL     1      -2.168  -0.036   0.609  0.00  0.00    +0.214 C 
ATOM      3  O   UNL     1      -3.058  -0.658   1.150  0.00  0.00    -0.276 OA
ATOM      4  N   UNL     1      -1.156  -0.694   0.009  0.00  0.00    -0.286 N 
ATOM      5  C   UNL     1      -1.081  -2.085   0.091  0.00  0.00    +0.037 A 
ATOM      6  C   UNL     1       0.164  -2.708   0.166  0.00  0.00    +0.024 A 
ATOM      7  C   UNL     1       0.253  -4.066   0.253  0.00  0.00    +0.013 A 
ATOM      8  C   UNL     1      -0.913  -4.841   0.254  0.00  0.00    +0.022 A 
ATOM      9  C   UNL     1      -0.848  -6.301   0.341  0.00  0.00    -0.020 A 
ATOM     10  C   UNL     1      -2.014  -6.998   0.339  0.00  0.00    +0.092 A 
ATOM     11  C   UNL     1      -3.242  -6.309   0.254  0.00  0.00    +0.285 A 
ATOM     12  O   UNL     1      -3.295  -4.971   0.176  0.00  0.00    -0.425 OA
ATOM     13  C   UNL     1      -2.173  -4.219   0.173  0.00  0.00    +0.141 A 
ATOM     14  C   UNL     1      -2.246  -2.837   0.092  0.00  0.00    +0.070 A 
ATOM     15  H   UNL     1      -0.388  -0.134  -0.545  0.00  0.00    +0.155 HD
ENDROOT
BRANCH  11  16
ATOM     16  O   UNL     1      -4.280  -6.946   0.253  0.00  0.00    -0.480 OA
ATOM     17  H   UNL     1      -5.246  -6.423   0.188  0.00  0.00    +0.295 HD
ENDBRANCH  11  16
BRANCH   9  18
ATOM     18  C   UNL     1       0.478  -7.013   0.429  0.00  0.00    +0.112 C 
BRANCH  18  19
ATOM     19  S   UNL     1       1.070  -7.395  -1.238  0.00  0.00    -0.100 S 
BRANCH  19  20
ATOM     20  C   UNL     1       2.589  -8.198  -0.846  0.00  0.00    +0.109 A 
ATOM     21  C   UNL     1       3.433  -8.698  -1.869  0.00  0.00    +0.032 A 
ATOM     22  C   UNL     1       3.114  -8.571  -3.225  0.00  0.00    +0.012 A 
ATOM     23  C   UNL     1       3.969  -9.067  -4.166  0.00  0.00    +0.001 A 
ATOM     24  C   UNL     1       5.156  -9.692  -3.794  0.00  0.00    +0.002 A 
ATOM     25  C   UNL     1       5.498  -9.826  -2.481  0.00  0.00    +0.028 A 
ATOM     26  C   UNL     1       4.642  -9.329  -1.489  0.00  0.00    +0.076 A 
ATOM     27  N   UNL     1       4.931  -9.435  -0.183  0.00  0.00    -0.224 NA
ATOM     28  C   UNL     1       4.109  -8.958   0.721  0.00  0.00    +0.236 A 
ATOM     29  N   UNL     1       2.971  -8.357   0.415  0.00  0.00    -0.217 NA
BRANCH  28  30
ATOM     30  C   UNL     1       4.478  -9.102   2.175  0.00  0.00    +0.452 C 
ATOM     31  F   UNL     1       3.353  -8.854   2.969  0.00  0.00    -0.163 F 
ATOM     32  F   UNL     1       4.939 -10.401   2.413  0.00  0.00    -0.163 F 
ATOM     33  F   UNL     1       5.485  -8.185   2.494  0.00  0.00    -0.163 F 
ENDBRANCH  28  30
ENDBRANCH  19  20
ENDBRANCH  18  19
ENDBRANCH   9  18
TORSDOF 5
