REMARK  Name = ZINC14603730
REMARK  3 active torsions:
REMARK  status: ('A' for Active; 'I' for Inactive)
REMARK    1  A    between atoms: C_4  and  S_8
REMARK    2  A    between atoms: S_8  and  N_11
REMARK    3  A    between atoms: C_17  and  C_19
REMARK                            x       y       z     vdW  Elec       q    Type
REMARK                         _______ _______ _______ _____ _____    ______ ____
ROOT
ATOM      1  N   UNL     1       3.682   0.851  -1.685  0.00  0.00    -0.174 NA
ATOM      2  C   UNL     1       2.970  -0.190  -2.441  0.00  0.00    +0.128 C 
ATOM      3  C   UNL     1       2.111   0.494  -3.518  0.00  0.00    +0.125 C 
ATOM      4  N   UNL     1       2.954   1.450  -4.250  0.00  0.00    -0.292 N 
ATOM      5  C   UNL     1       3.670   2.487  -3.494  0.00  0.00    +0.125 C 
ATOM      6  C   UNL     1       4.524   1.807  -2.417  0.00  0.00    +0.128 C 
ATOM      7  C   UNL     1       3.067   1.377  -5.591  0.00  0.00    +0.282 C 
ATOM      8  O   UNL     1       2.583   0.437  -6.193  0.00  0.00    -0.267 OA
ENDROOT
BRANCH   7   9
ATOM      9  C   UNL     1       3.775   2.430  -6.325  0.00  0.00    +0.191 A 
ATOM     10  C   UNL     1       4.088   2.411  -7.655  0.00  0.00    +0.056 A 
ATOM     11  C   UNL     1       4.758   3.612  -7.930  0.00  0.00    +0.058 A 
ATOM     12  C   UNL     1       4.824   4.306  -6.770  0.00  0.00    +0.171 A 
ATOM     13  O   UNL     1       4.225   3.592  -5.807  0.00  0.00    -0.444 OA
ATOM     14 BR   UNL     1       5.623   6.005  -6.547  0.00  0.00    -0.008 Br
ENDBRANCH   7   9
BRANCH   1  15
ATOM     15  S   UNL     1       3.542   0.940  -0.037  0.00  0.00    +0.064 S 
ATOM     16  O   UNL     1       4.707   1.604   0.433  0.00  0.00    -0.153 OA
ATOM     17  O   UNL     1       3.172  -0.357   0.410  0.00  0.00    -0.153 OA
BRANCH  15  21
ATOM     18  C   UNL     1       0.042   3.667   0.865  0.00  0.00    +0.003 A 
ATOM     19  C   UNL     1       1.314   4.194   0.738  0.00  0.00    +0.022 A 
ATOM     20  C   UNL     1       2.384   3.361   0.463  0.00  0.00    +0.069 A 
ATOM     21  C   UNL     1       2.180   2.001   0.314  0.00  0.00    +0.142 A 
ATOM     22  C   UNL     1       0.908   1.474   0.441  0.00  0.00    +0.069 A 
ATOM     23  C   UNL     1      -0.162   2.309   0.711  0.00  0.00    +0.022 A 
ATOM     24 CL   UNL     1       0.652  -0.233   0.254  0.00  0.00    -0.081 Cl
ATOM     25 CL   UNL     1       3.981   4.023   0.303  0.00  0.00    -0.081 Cl
ENDBRANCH  15  21
ENDBRANCH   1  15
TORSDOF 3
