REMARK  Name = ZINC39984093
REMARK  7 active torsions:
REMARK  status: ('A' for Active; 'I' for Inactive)
REMARK    1  A    between atoms: C_1  and  C_2
REMARK    2  A    between atoms: N_4  and  C_5
REMARK    3  A    between atoms: C_8  and  S_11
REMARK    4  A    between atoms: S_11  and  N_14
REMARK    5  A    between atoms: C_16  and  N_26
REMARK    6  A    between atoms: N_26  and  C_27
REMARK    7  A    between atoms: C_30  and  O_33
REMARK                            x       y       z     vdW  Elec       q    Type
REMARK                         _______ _______ _______ _____ _____    ______ ____
ROOT
ATOM      1  N   UNL     1      -0.954  -6.905   2.039  0.00  0.00    -0.110 NA
ATOM      2  C   UNL     1      -0.868  -8.168   2.339  0.00  0.00    +0.192 C 
ATOM      3  C   UNL     1      -0.867  -8.615   3.784  0.00  0.00    +0.237 C 
ATOM      4  N   UNL     1      -0.768 -10.057   4.056  0.00  0.00    -0.359 N 
ATOM      5  C   UNL     1      -0.685 -10.877   3.046  0.00  0.00    +0.063 A 
ATOM      6  C   UNL     1      -0.584 -12.328   3.265  0.00  0.00    +0.027 A 
ATOM      7  C   UNL     1      -0.501 -13.146   2.193  0.00  0.00    +0.002 A 
ATOM      8  C   UNL     1      -0.509 -12.646   0.880  0.00  0.00    +0.002 A 
ATOM      9  C   UNL     1      -0.599 -11.327   0.600  0.00  0.00    +0.030 A 
ATOM     10  C   UNL     1      -0.691 -10.377   1.649  0.00  0.00    +0.089 A 
ATOM     11  N   UNL     1      -0.784  -9.094   1.371  0.00  0.00    -0.226 NA
ATOM     12  H   UNL     1      -0.763 -10.390   4.967  0.00  0.00    +0.162 HD
ENDROOT
BRANCH   1  13
ATOM     13  S   UNL     1      -0.960  -6.429   0.453  0.00  0.00    +0.100 S 
ATOM     14  O   UNL     1      -2.163  -6.929  -0.116  0.00  0.00    -0.146 OA
ATOM     15  O   UNL     1       0.321  -6.749  -0.072  0.00  0.00    -0.146 OA
BRANCH  13  19
ATOM     16  C   UNL     1      -1.286  -1.913   0.411  0.00  0.00    +0.033 A 
ATOM     17  C   UNL     1      -0.038  -2.520   0.439  0.00  0.00    +0.025 A 
ATOM     18  C   UNL     1       0.058  -3.898   0.451  0.00  0.00    +0.031 A 
ATOM     19  C   UNL     1      -1.087  -4.672   0.437  0.00  0.00    +0.113 A 
ATOM     20  C   UNL     1      -2.332  -4.071   0.409  0.00  0.00    +0.031 A 
ATOM     21  C   UNL     1      -2.435  -2.693   0.402  0.00  0.00    +0.025 A 
BRANCH  16  25
ATOM     22  C   UNL     1      -2.445   1.596   1.128  0.00  0.00    +0.109 C 
ATOM     23  C   UNL     1      -2.395   0.092   1.053  0.00  0.00    +0.214 C 
ATOM     24  O   UNL     1      -3.262  -0.571   1.582  0.00  0.00    -0.276 OA
ATOM     25  N   UNL     1      -1.387  -0.517   0.398  0.00  0.00    -0.286 N 
ATOM     26  H   UNL     1      -0.731   0.012  -0.083  0.00  0.00    +0.155 HD
ENDBRANCH  16  25
ENDBRANCH  13  19
ENDBRANCH   1  13
BRANCH   3  27
ATOM     27  N   UNL     1       0.255  -7.955   4.455  0.00  0.00    -0.318 N 
ATOM     28  H   UNL     1       1.120  -7.904   4.018  0.00  0.00    +0.148 HD
BRANCH  27  29
ATOM     29  C   UNL     1       0.080  -7.399   5.728  0.00  0.00    +0.029 A 
ATOM     30  C   UNL     1       1.164  -6.849   6.400  0.00  0.00    +0.026 A 
ATOM     31  C   UNL     1       0.990  -6.300   7.656  0.00  0.00    +0.047 A 
ATOM     32  C   UNL     1      -0.266  -6.298   8.244  0.00  0.00    +0.117 A 
ATOM     33  C   UNL     1      -1.348  -6.847   7.573  0.00  0.00    +0.047 A 
ATOM     34  C   UNL     1      -1.178  -7.391   6.315  0.00  0.00    +0.026 A 
BRANCH  32  35
ATOM     35  O   UNL     1      -0.436  -5.757   9.480  0.00  0.00    -0.507 OA
ATOM     36  H   UNL     1      -0.655  -4.815   9.471  0.00  0.00    +0.292 HD
ENDBRANCH  32  35
ENDBRANCH  27  29
ENDBRANCH   3  27
TORSDOF 6
