REMARK  Name = ZINC34854683
REMARK  4 active torsions:
REMARK  status: ('A' for Active; 'I' for Inactive)
REMARK    1  A    between atoms: C_1  and  C_2
REMARK    2  A    between atoms: C_9  and  C_13
REMARK    3  A    between atoms: N_18  and  C_21
REMARK    4  A    between atoms: C_22  and  C_24
REMARK                            x       y       z     vdW  Elec       q    Type
REMARK                         _______ _______ _______ _____ _____    ______ ____
ROOT
ATOM      1  C   UNL     1       0.322   1.594   1.011  0.00  0.00    +0.007 C 
ATOM      2  C   UNL     1       0.242   0.132   0.567  0.00  0.00    -0.014 C 
ATOM      3  C   UNL     1       0.915  -0.024  -0.798  0.00  0.00    +0.008 C 
ATOM      4  C   UNL     1       0.829  -1.485  -1.245  0.00  0.00    +0.056 C 
ATOM      5  C   UNL     1       1.532  -2.374  -0.219  0.00  0.00    +0.139 C 
ATOM      6  C   UNL     1       0.872  -2.214   1.151  0.00  0.00    +0.056 C 
ATOM      7  C   UNL     1       0.957  -0.751   1.591  0.00  0.00    +0.008 C 
ATOM      8  N   UNL     1       2.952  -2.000  -0.131  0.00  0.00    -0.255 N 
ATOM      9  C   UNL     1       3.718  -3.199  -0.541  0.00  0.00    +0.191 C 
ATOM     10  C   UNL     1       2.677  -4.007  -1.355  0.00  0.00    +0.194 C 
ATOM     11  O   UNL     1       1.450  -3.746  -0.636  0.00  0.00    -0.354 OA
ATOM     12  C   UNL     1       3.454  -0.808   0.247  0.00  0.00    +0.250 C 
ATOM     13  O   UNL     1       2.704   0.111   0.512  0.00  0.00    -0.270 OA
ENDROOT
BRANCH   9  14
ATOM     14  C   UNL     1       4.893  -2.813  -1.402  0.00  0.00    +0.239 C 
ATOM     15  O   UNL     1       4.889  -1.754  -1.994  0.00  0.00    -0.273 OA
ATOM     16  N   UNL     1       5.948  -3.644  -1.514  0.00  0.00    -0.297 N 
ATOM     17  C   UNL     1       5.928  -4.977  -0.893  0.00  0.00    +0.123 C 
ATOM     18  C   UNL     1       6.317  -6.014  -1.952  0.00  0.00    +0.103 C 
ATOM     19  N   UNL     1       7.598  -5.631  -2.560  0.00  0.00    -0.302 NA
ATOM     20  C   UNL     1       7.490  -4.347  -3.266  0.00  0.00    +0.103 C 
ATOM     21  C   UNL     1       7.147  -3.245  -2.265  0.00  0.00    +0.123 C 
ATOM     22  C   UNL     1       8.091  -6.685  -3.457  0.00  0.00    +0.105 C 
ENDBRANCH   9  14
BRANCH  12  23
ATOM     23  C   UNL     1       4.918  -0.617   0.338  0.00  0.00    +0.042 A 
ATOM     24  C   UNL     1       5.767  -1.724   0.373  0.00  0.00    +0.051 A 
ATOM     25  C   UNL     1       7.134  -1.540   0.458  0.00  0.00    +0.127 A 
ATOM     26  C   UNL     1       7.662  -0.260   0.509  0.00  0.00    +0.076 A 
ATOM     27  C   UNL     1       6.823   0.842   0.476  0.00  0.00    +0.127 A 
ATOM     28  C   UNL     1       5.455   0.670   0.384  0.00  0.00    +0.051 A 
ATOM     29  F   UNL     1       7.344   2.087   0.526  0.00  0.00    -0.205 F 
ATOM     30  F   UNL     1       7.958  -2.611   0.492  0.00  0.00    -0.205 F 
ENDBRANCH  12  23
TORSDOF 2
