REMARK  Name = ZINC49629654
REMARK  5 active torsions:
REMARK  status: ('A' for Active; 'I' for Inactive)
REMARK    1  A    between atoms: C_3  and  N_9
REMARK    2  A    between atoms: C_10  and  C_12
REMARK    3  A    between atoms: C_14  and  C_18
REMARK    4  A    between atoms: C_19  and  C_20
REMARK    5  A    between atoms: C_20  and  N_21
REMARK                            x       y       z     vdW  Elec       q    Type
REMARK                         _______ _______ _______ _____ _____    ______ ____
ROOT
ATOM      1  C   UNL     1       4.836   4.222  -0.236  0.00  0.00    +0.056 A 
ATOM      2  C   UNL     1       4.831   5.617  -0.329  0.00  0.00    +0.033 A 
ATOM      3  C   UNL     1       6.058   6.274  -0.441  0.00  0.00    +0.044 A 
ATOM      4  C   UNL     1       7.232   5.519  -0.455  0.00  0.00    +0.127 A 
ATOM      5  N   UNL     1       7.193   4.206  -0.365  0.00  0.00    -0.261 NA
ATOM      6  C   UNL     1       6.058   3.547  -0.252  0.00  0.00    +0.123 A 
ENDROOT
BRANCH   1   8
ATOM      7  N   UNL     1       3.584   2.129  -0.021  0.00  0.00    -0.279 N 
ATOM      8  C   UNL     1       3.567   3.473  -0.116  0.00  0.00    +0.250 C 
ATOM      9  O   UNL     1       2.508   4.070  -0.103  0.00  0.00    -0.270 OA
ATOM     10  H   UNL     1       4.429   1.658   0.049  0.00  0.00    +0.155 HD
BRANCH   7  13
ATOM     11  C   UNL     1       0.065   1.243  -0.621  0.00  0.00    +0.022 A 
ATOM     12  C   UNL     1       1.250   1.953  -0.619  0.00  0.00    +0.027 A 
ATOM     13  C   UNL     1       2.381   1.411  -0.025  0.00  0.00    +0.069 A 
ATOM     14  C   UNL     1       2.318   0.154   0.567  0.00  0.00    +0.146 A 
ATOM     15  C   UNL     1       1.129  -0.551   0.562  0.00  0.00    +0.060 A 
ATOM     16  C   UNL     1       0.004  -0.007  -0.032  0.00  0.00    +0.044 A 
ATOM     17 CL   UNL     1      -1.488  -0.895  -0.037  0.00  0.00    -0.083 Cl
ATOM     18  F   UNL     1       3.417  -0.377   1.146  0.00  0.00    -0.203 F 
ENDBRANCH   7  13
ENDBRANCH   1   8
BRANCH   3  19
ATOM     19  C   UNL     1       6.111   7.702  -0.540  0.00  0.00    -0.067 C 
ATOM     20  C   UNL     1       6.154   8.873  -0.621  0.00  0.00    -0.117 C 
BRANCH  20  21
ATOM     21  C   UNL     1       6.208  10.340  -0.723  0.00  0.00    +0.005 C 
BRANCH  21  22
ATOM     22  N   UNL     1       7.608  10.772  -0.829  0.00  0.00    +0.385 N 
ATOM     23  H   UNL     1       8.115  10.473  -0.009  0.00  0.00    -0.089 HD
ATOM     24  H   UNL     1       8.025  10.362  -1.651  0.00  0.00    -0.089 HD
ATOM     25  H   UNL     1       7.645  11.778  -0.898  0.00  0.00    -0.089 HD
ENDBRANCH  21  22
ENDBRANCH  20  21
ENDBRANCH   3  19
TORSDOF 5
