REMARK  Name = ZINC38994975
REMARK  10 active torsions:
REMARK  status: ('A' for Active; 'I' for Inactive)
REMARK    1  A    between atoms: C_1  and  C_2
REMARK    2  A    between atoms: C_5  and  C_8
REMARK    3  A    between atoms: C_10  and  C_14
REMARK    4  A    between atoms: C_18  and  S_22
REMARK    5  A    between atoms: N_20  and  N_21
REMARK    6  A    between atoms: S_22  and  C_23
REMARK    7  A    between atoms: C_23  and  C_24
REMARK    8  A    between atoms: N_26  and  C_27
REMARK    9  A    between atoms: C_28  and  C_35
REMARK   10  A    between atoms: C_30  and  C_34
REMARK                            x       y       z     vdW  Elec       q    Type
REMARK                         _______ _______ _______ _____ _____    ______ ____
ROOT
ATOM      1  C   UNL     1       1.447  -6.493   0.345  0.00  0.00    +0.185 C 
ATOM      2  N   UNL     1       0.662  -7.719   0.649  0.00  0.00    -0.234 NA
ATOM      3  N   UNL     1       1.268  -8.728  -0.233  0.00  0.00    -0.228 NA
ATOM      4  C   UNL     1       1.571  -7.994  -1.482  0.00  0.00    +0.214 C 
ATOM      5  N   UNL     1       1.689  -6.566  -1.114  0.00  0.00    -0.197 NA
ATOM      6  H   UNL     1       0.761  -7.980   1.619  0.00  0.00    +0.143 HD
ATOM      7  H   UNL     1       2.109  -9.108   0.176  0.00  0.00    +0.143 HD
ENDROOT
BRANCH   1  10
ATOM      8  C   UNL     1       0.955  -4.052   2.587  0.00  0.00    +0.091 C 
ATOM      9  C   UNL     1       0.349  -5.186   2.182  0.00  0.00    +0.034 C 
ATOM     10  C   UNL     1       0.639  -5.241   0.693  0.00  0.00    +0.187 C 
ATOM     11  N   UNL     1       1.434  -4.024   0.460  0.00  0.00    -0.176 NA
ATOM     12  N   UNL     1       1.554  -3.434   1.536  0.00  0.00    -0.154 NA
BRANCH   8  17
ATOM     13  C   UNL     1       0.978  -2.092   8.002  0.00  0.00    +0.044 C 
ATOM     14  C   UNL     1       0.972  -2.605   6.585  0.00  0.00    -0.050 A 
ATOM     15  C   UNL     1       1.618  -1.891   5.591  0.00  0.00    +0.004 A 
ATOM     16  C   UNL     1       1.616  -2.357   4.292  0.00  0.00    +0.010 A 
ATOM     17  C   UNL     1       0.961  -3.547   3.982  0.00  0.00    +0.002 A 
ATOM     18  C   UNL     1       0.312  -4.262   4.987  0.00  0.00    +0.010 A 
ATOM     19  C   UNL     1       0.325  -3.790   6.284  0.00  0.00    +0.004 A 
ENDBRANCH   8  17
ENDBRANCH   1  10
BRANCH   5  20
ATOM     20  N   UNL     1       3.004  -6.045  -1.451  0.00  0.00    -0.264 NA
ATOM     21  H   UNL     1       3.169  -6.094  -2.445  0.00  0.00    +0.137 HD
ATOM     22  H   UNL     1       3.116  -5.101  -1.112  0.00  0.00    +0.137 HD
ENDBRANCH   5  20
BRANCH   4  23
ATOM     23  S   UNL     1       3.135  -8.584  -2.188  0.00  0.00    -0.115 S 
BRANCH  23  24
ATOM     24  C   UNL     1       4.349  -8.284  -0.874  0.00  0.00    +0.168 C 
BRANCH  24  25
ATOM     25  C   UNL     1       5.710  -8.736  -1.336  0.00  0.00    +0.227 C 
ATOM     26  O   UNL     1       5.848  -9.213  -2.442  0.00  0.00    -0.275 OA
ATOM     27  N   UNL     1       6.775  -8.610  -0.519  0.00  0.00    -0.283 N 
ATOM     28  H   UNL     1       6.680  -8.162   0.336  0.00  0.00    +0.155 HD
BRANCH  27  29
ATOM     29  C   UNL     1       8.018  -9.124  -0.906  0.00  0.00    +0.055 A 
ATOM     30  C   UNL     1       8.941  -8.307  -1.546  0.00  0.00    -0.028 A 
ATOM     31  C   UNL     1      10.167  -8.817  -1.925  0.00  0.00    +0.008 A 
ATOM     32  C   UNL     1      10.477 -10.140  -1.669  0.00  0.00    -0.049 A 
ATOM     33  C   UNL     1       9.561 -10.957  -1.033  0.00  0.00    +0.025 A 
ATOM     34  C   UNL     1       8.334 -10.452  -0.645  0.00  0.00    +0.063 A 
ATOM     35 CL   UNL     1       7.187 -11.476   0.161  0.00  0.00    -0.082 Cl
ATOM     36  C   UNL     1      11.815 -10.693  -2.086  0.00  0.00    +0.044 C 
ATOM     37  C   UNL     1       8.605  -6.865  -1.826  0.00  0.00    +0.046 C 
ENDBRANCH  27  29
ENDBRANCH  24  25
ENDBRANCH  23  24
ENDBRANCH   4  23
TORSDOF 7
