REMARK  Name = ZINC21664345
REMARK  10 active torsions:
REMARK  status: ('A' for Active; 'I' for Inactive)
REMARK    1  A    between atoms: C_1  and  C_2
REMARK    2  A    between atoms: C_2  and  C_3
REMARK    3  A    between atoms: C_3  and  C_5
REMARK    4  A    between atoms: C_3  and  N_6
REMARK    5  A    between atoms: C_7  and  C_9
REMARK    6  A    between atoms: C_11  and  N_21
REMARK    7  A    between atoms: C_14  and  N_15
REMARK    8  A    between atoms: N_21  and  S_22
REMARK    9  A    between atoms: S_22  and  C_25
REMARK   10  A    between atoms: C_28  and  C_32
REMARK                            x       y       z     vdW  Elec       q    Type
REMARK                         _______ _______ _______ _____ _____    ______ ____
ROOT
ATOM      1  C   UNL     1      -3.457  -1.057   1.195  0.00  0.00    +0.059 A 
ATOM      2  C   UNL     1      -4.130  -1.289  -0.008  0.00  0.00    +0.039 A 
ATOM      3  C   UNL     1      -5.380  -1.881   0.006  0.00  0.00    +0.049 A 
ATOM      4  C   UNL     1      -5.974  -2.235   1.213  0.00  0.00    +0.026 A 
ATOM      5  C   UNL     1      -5.320  -2.004   2.406  0.00  0.00    +0.026 A 
ATOM      6  C   UNL     1      -4.062  -1.416   2.409  0.00  0.00    +0.042 A 
ENDROOT
BRANCH   6   7
ATOM      7  N   UNL     1      -3.403  -1.184   3.612  0.00  0.00    -0.333 N 
ATOM      8  C   UNL     1      -4.193  -0.304   4.484  0.00  0.00    +0.086 C 
ATOM      9  C   UNL     1      -3.401  -0.009   5.760  0.00  0.00    -0.063 C 
ATOM     10  N   UNL     1      -3.085  -1.274   6.440  0.00  0.00    +0.381 N 
ATOM     11  C   UNL     1      -2.295  -2.154   5.568  0.00  0.00    -0.063 C 
ATOM     12  C   UNL     1      -3.087  -2.448   4.292  0.00  0.00    +0.086 C 
ATOM     13  H   UNL     1      -2.505  -1.065   7.351  0.00  0.00    -0.086 HD
ATOM     14  H   UNL     1      -4.019  -1.788   6.710  0.00  0.00    -0.086 HD
ENDBRANCH   6   7
BRANCH   1  16
ATOM     15  N   UNL     1      -1.500  -0.183   0.019  0.00  0.00    -0.309 N 
ATOM     16  C   UNL     1      -2.122  -0.432   1.189  0.00  0.00    +0.246 C 
ATOM     17  O   UNL     1      -1.581  -0.142   2.239  0.00  0.00    -0.270 OA
ATOM     18  H   UNL     1      -1.989  -0.446  -0.931  0.00  0.00    +0.149 HD
BRANCH  15  19
ATOM     19  C   UNL     1      -0.173   0.438   0.013  0.00  0.00    +0.070 C 
ATOM     20  C   UNL     1      -0.321   1.959   0.090  0.00  0.00    +0.028 C 
BRANCH  19  22
ATOM     21  C   UNL     1       0.819  -1.447  -1.294  0.00  0.00    +0.005 C 
ATOM     22  C   UNL     1       0.560   0.061  -1.276  0.00  0.00    +0.018 C 
ENDBRANCH  19  22
ENDBRANCH  15  19
ENDBRANCH   1  16
BRANCH   3  23
ATOM     23  N   UNL     1      -6.052  -2.120  -1.199  0.00  0.00    -0.216 N 
ATOM     24  H   UNL     1      -5.514  -2.560  -2.052  0.00  0.00    +0.174 HD
BRANCH  23  25
ATOM     25  S   UNL     1      -7.658  -1.740  -1.341  0.00  0.00    +0.072 S 
ATOM     26  O   UNL     1      -8.038  -2.070  -2.670  0.00  0.00    -0.150 OA
ATOM     27  O   UNL     1      -8.307  -2.292  -0.203  0.00  0.00    -0.150 OA
BRANCH  25  28
ATOM     28  C   UNL     1      -7.794   0.011  -1.198  0.00  0.00    +0.110 A 
ATOM     29  C   UNL     1      -7.982   0.591   0.042  0.00  0.00    +0.029 A 
ATOM     30  C   UNL     1      -8.084   1.965   0.155  0.00  0.00    +0.007 A 
ATOM     31  C   UNL     1      -8.008   2.759  -0.974  0.00  0.00    -0.032 A 
ATOM     32  C   UNL     1      -7.824   2.179  -2.216  0.00  0.00    +0.046 A 
ATOM     33  C   UNL     1      -7.717   0.804  -2.328  0.00  0.00    +0.049 A 
ATOM     34 CL   UNL     1      -7.728   3.175  -3.634  0.00  0.00    -0.083 Cl
ATOM     35  C   UNL     1      -8.124   4.256  -0.851  0.00  0.00    +0.045 C 
ENDBRANCH  25  28
ENDBRANCH  23  25
ENDBRANCH   3  23
TORSDOF 7
