REMARK  Name = ZINC39554682
REMARK  4 active torsions:
REMARK  status: ('A' for Active; 'I' for Inactive)
REMARK    1  A    between atoms: C_1  and  C_2
REMARK    2  A    between atoms: C_4  and  C_16
REMARK    3  A    between atoms: N_18  and  N_19
REMARK    4  A    between atoms: C_20  and  C_22
REMARK                            x       y       z     vdW  Elec       q    Type
REMARK                         _______ _______ _______ _____ _____    ______ ____
ROOT
ATOM      1  C   UNL     1       0.030  -2.821  -2.492  0.00  0.00    +0.262 C 
ATOM      2  O   UNL     1       0.047  -4.037  -2.479  0.00  0.00    -0.269 OA
ATOM      3  N   UNL     1       0.015  -2.160  -3.666  0.00  0.00    -0.230 N 
ATOM      4  H   UNL     1       0.001  -1.190  -3.677  0.00  0.00    +0.173 HD
ENDROOT
BRANCH   1   8
ATOM      5  C   UNL     1      -0.018   1.503   0.010  0.00  0.00    +0.065 C 
ATOM      6  C   UNL     1       0.002  -0.004   0.002  0.00  0.00    +0.041 A 
ATOM      7  C   UNL     1       0.005  -0.673  -1.209  0.00  0.00    +0.038 A 
ATOM      8  C   UNL     1       0.025  -2.069  -1.220  0.00  0.00    +0.069 A 
ATOM      9  C   UNL     1       0.040  -2.737   0.021  0.00  0.00    +0.120 A 
ATOM     10  C   UNL     1       0.035  -1.974   1.204  0.00  0.00    +0.161 A 
ATOM     11  N   UNL     1       0.022  -0.653   1.148  0.00  0.00    -0.233 NA
ATOM     12  N   UNL     1       0.048  -2.886   2.236  0.00  0.00    -0.312 N 
ATOM     13  C   UNL     1       0.071  -4.130   1.684  0.00  0.00    +0.112 A 
ATOM     14  N   UNL     1       0.061  -4.034   0.383  0.00  0.00    -0.230 NA
ATOM     15  C   UNL     1       0.112  -5.423   2.464  0.00  0.00    +0.074 C 
ATOM     16  C   UNL     1      -0.929  -5.372   3.584  0.00  0.00    +0.008 C 
ATOM     17  C   UNL     1      -0.307  -4.756   4.833  0.00  0.00    +0.002 C 
ATOM     18  C   UNL     1       0.721  -3.694   4.448  0.00  0.00    +0.022 C 
ATOM     19  C   UNL     1       0.032  -2.571   3.668  0.00  0.00    +0.125 C 
ENDBRANCH   1   8
BRANCH   3  20
ATOM     20  N   UNL     1       0.019  -2.874  -4.872  0.00  0.00    -0.234 N 
ATOM     21  C   UNL     1       0.004  -2.213  -6.046  0.00  0.00    +0.235 C 
ATOM     22  O   UNL     1      -0.014  -1.000  -6.059  0.00  0.00    -0.274 OA
ATOM     23  H   UNL     1       0.033  -3.844  -4.862  0.00  0.00    +0.173 HD
BRANCH  21  24
ATOM     24  C   UNL     1       0.008  -2.980  -7.343  0.00  0.00    +0.049 C 
ATOM     25  C   UNL     1       1.269  -3.843  -7.421  0.00  0.00    +0.019 C 
ATOM     26  C   UNL     1       1.274  -4.622  -8.738  0.00  0.00    -0.009 C 
ATOM     27  C   UNL     1       1.254  -3.641  -9.911  0.00  0.00    +0.007 C 
ATOM     28  C   UNL     1      -0.007  -2.778  -9.834  0.00  0.00    -0.009 C 
ATOM     29  C   UNL     1      -0.012  -1.999  -8.517  0.00  0.00    +0.019 C 
ATOM     30  C   UNL     1      -1.244  -3.676  -9.899  0.00  0.00    +0.007 C 
ATOM     31  C   UNL     1      -1.224  -4.658  -8.725  0.00  0.00    -0.009 C 
ATOM     32  C   UNL     1       0.037  -5.520  -8.803  0.00  0.00    +0.007 C 
ATOM     33  C   UNL     1      -1.229  -3.878  -7.409  0.00  0.00    +0.019 C 
ENDBRANCH  21  24
ENDBRANCH   3  20
TORSDOF 3
