REMARK  Name = ZINC35851756
REMARK  6 active torsions:
REMARK  status: ('A' for Active; 'I' for Inactive)
REMARK    1  A    between atoms: C_1  and  C_2
REMARK    2  A    between atoms: C_2  and  C_3
REMARK    3  A    between atoms: N_25  and  C_28
REMARK    4  A    between atoms: C_30  and  C_37
REMARK    5  A    between atoms: C_33  and  O_34
REMARK    6  A    between atoms: O_34  and  C_35
REMARK                            x       y       z     vdW  Elec       q    Type
REMARK                         _______ _______ _______ _____ _____    ______ ____
ROOT
ATOM      1  C   UNL     1       0.707  -0.490  -1.238  0.00  0.00    -0.026 A 
ATOM      2  C   UNL     1      -0.024  -0.816  -2.362  0.00  0.00    +0.005 A 
ATOM      3  C   UNL     1       0.614  -1.263  -3.504  0.00  0.00    +0.001 A 
ATOM      4  C   UNL     1       1.993  -1.384  -3.521  0.00  0.00    +0.008 A 
ATOM      5  C   UNL     1       2.726  -1.060  -2.402  0.00  0.00    +0.004 A 
ATOM      6  C   UNL     1       2.095  -0.603  -1.248  0.00  0.00    +0.042 A 
ATOM      7  N   UNL     1       3.041  -0.335  -0.255  0.00  0.00    -0.283 N 
ATOM      8  C   UNL     1       4.299  -0.581  -0.673  0.00  0.00    +0.243 C 
ATOM      9  O   UNL     1       5.316  -0.443  -0.027  0.00  0.00    -0.273 OA
ATOM     10  C   UNL     1       4.195  -1.074  -2.087  0.00  0.00    +0.138 C 
ATOM     11  C   UNL     1       5.000  -0.219  -3.051  0.00  0.00    +0.123 C 
ATOM     12  C   UNL     1       6.417  -0.811  -2.693  0.00  0.00    +0.107 C 
ATOM     13  C   UNL     1       6.214  -2.270  -2.676  0.00  0.00    +0.071 C 
ATOM     14  N   UNL     1       4.771  -2.423  -2.263  0.00  0.00    -0.281 NA
ATOM     15  C   UNL     1       4.671  -3.279  -1.089  0.00  0.00    +0.086 C 
ATOM     16  C   UNL     1       6.048  -3.957  -0.916  0.00  0.00    +0.017 C 
ATOM     17  C   UNL     1       7.041  -2.927  -1.546  0.00  0.00    +0.021 C 
ATOM     18  C   UNL     1       7.306   0.178  -3.251  0.00  0.00    +0.232 C 
ATOM     19  O   UNL     1       8.395  -0.004  -3.753  0.00  0.00    -0.274 OA
ATOM     20  N   UNL     1       6.646   1.371  -3.088  0.00  0.00    -0.206 N 
ATOM     21  C   UNL     1       5.317   1.214  -2.752  0.00  0.00    +0.233 C 
ATOM     22  O   UNL     1       4.562   2.050  -2.304  0.00  0.00    -0.274 OA
ATOM     23  H   UNL     1       2.819  -0.008   0.630  0.00  0.00    +0.155 HD
ENDROOT
BRANCH  20  24
ATOM     24  C   UNL     1       7.255   2.625  -3.258  0.00  0.00    +0.086 A 
ATOM     25  C   UNL     1       7.247   3.239  -4.502  0.00  0.00    +0.032 A 
ATOM     26  C   UNL     1       7.846   4.473  -4.667  0.00  0.00    -0.030 A 
ATOM     27  C   UNL     1       8.456   5.099  -3.594  0.00  0.00    +0.047 A 
ATOM     28  C   UNL     1       8.467   4.493  -2.351  0.00  0.00    +0.067 A 
ATOM     29  C   UNL     1       7.863   3.258  -2.177  0.00  0.00    +0.143 A 
ATOM     30 CL   UNL     1       9.208   6.649  -3.809  0.00  0.00    -0.083 Cl
ATOM     31  C   UNL     1       7.836   5.138  -6.020  0.00  0.00    +0.045 C 
BRANCH  29  32
ATOM     32  O   UNL     1       7.868   2.663  -0.954  0.00  0.00    -0.493 OA
ATOM     33  C   UNL     1       8.510   3.371   0.108  0.00  0.00    +0.277 C 
ENDBRANCH  29  32
ENDBRANCH  20  24
BRANCH   1  35
ATOM     34  C   UNL     1      -0.019   1.526   0.010  0.00  0.00    +0.009 C 
ATOM     35  C   UNL     1       0.002  -0.004   0.002  0.00  0.00    +0.033 C 
ENDBRANCH   1  35
TORSDOF 3
