REMARK  Name = ZINC08425999
REMARK  3 active torsions:
REMARK  status: ('A' for Active; 'I' for Inactive)
REMARK    1  A    between atoms: C_14  and  C_34
REMARK    2  A    between atoms: N_21  and  C_24
REMARK    3  A    between atoms: C_29  and  N_30
REMARK                            x       y       z     vdW  Elec       q    Type
REMARK                         _______ _______ _______ _____ _____    ______ ____
ROOT
ATOM      1  C   UNL     1       5.262   3.861   1.393  0.00  0.00    +0.000 A 
ATOM      2  C   UNL     1       4.730   5.138   1.404  0.00  0.00    +0.000 A 
ATOM      3  C   UNL     1       3.355   5.328   1.373  0.00  0.00    +0.005 A 
ATOM      4  C   UNL     1       2.540   4.233   1.333  0.00  0.00    -0.026 A 
ATOM      5  C   UNL     1       3.062   2.941   1.343  0.00  0.00    -0.035 A 
ATOM      6  C   UNL     1       4.413   2.747   1.385  0.00  0.00    +0.004 A 
ATOM      7  C   UNL     1       2.027   1.829   1.281  0.00  0.00    +0.062 C 
ATOM      8  C   UNL     1       1.101   2.116   2.438  0.00  0.00    -0.035 A 
ATOM      9  C   UNL     1       0.778   1.216   3.413  0.00  0.00    +0.004 A 
ATOM     10  C   UNL     1      -0.095   1.606   4.420  0.00  0.00    +0.000 A 
ATOM     11  C   UNL     1      -0.626   2.882   4.432  0.00  0.00    +0.000 A 
ATOM     12  C   UNL     1      -0.293   3.792   3.436  0.00  0.00    +0.005 A 
ATOM     13  C   UNL     1       0.566   3.402   2.449  0.00  0.00    -0.026 A 
ATOM     14  C   UNL     1       1.021   4.282   1.296  0.00  0.00    +0.088 C 
ATOM     15  C   UNL     1       0.616   3.523   0.014  0.00  0.00    +0.110 C 
ATOM     16  C   UNL     1       1.207   2.102   0.002  0.00  0.00    +0.101 C 
ATOM     17  C   UNL     1      -0.014   1.208   0.009  0.00  0.00    +0.231 C 
ATOM     18  O   UNL     1       0.002  -0.004   0.002  0.00  0.00    -0.274 OA
ATOM     19  N   UNL     1      -1.116   1.969   0.017  0.00  0.00    -0.208 N 
ATOM     20  C   UNL     1      -0.879   3.287   0.026  0.00  0.00    +0.232 C 
ATOM     21  O   UNL     1      -1.727   4.154   0.038  0.00  0.00    -0.274 OA
ENDROOT
BRANCH  19  22
ATOM     22  C   UNL     1      -2.411   1.431   0.021  0.00  0.00    +0.074 A 
ATOM     23  C   UNL     1      -3.045   1.153   1.224  0.00  0.00    +0.027 A 
ATOM     24  C   UNL     1      -4.322   0.629   1.225  0.00  0.00    +0.017 A 
ATOM     25  C   UNL     1      -4.965   0.368   0.028  0.00  0.00    +0.020 A 
ATOM     26  C   UNL     1      -4.333   0.639  -1.173  0.00  0.00    +0.050 A 
ATOM     27  C   UNL     1      -3.058   1.169  -1.179  0.00  0.00    +0.149 A 
ATOM     28 BR   UNL     1      -6.712  -0.358   0.033  0.00  0.00    -0.050 Br
BRANCH  27  29
ATOM     29  N   UNL     1      -2.382   1.458  -2.463  0.00  0.00    +0.058 N 
ATOM     30  O   UNL     1      -2.950   1.228  -3.516  0.00  0.00    -0.126 OA
ATOM     31  O   UNL     1      -1.257   1.925  -2.468  0.00  0.00    -0.126 OA
ENDBRANCH  27  29
ENDBRANCH  19  22
BRANCH  14  32
ATOM     32  C   UNL     1       0.455   5.678   1.359  0.00  0.00    +0.240 C 
ATOM     33  O   UNL     1      -0.237   6.090   0.459  0.00  0.00    -0.300 OA
ENDBRANCH  14  32
TORSDOF 3
