REMARK  Name = ZINC35867406
REMARK  7 active torsions:
REMARK  status: ('A' for Active; 'I' for Inactive)
REMARK    1  A    between atoms: C_1  and  C_2
REMARK    2  A    between atoms: C_11  and  N_18
REMARK    3  A    between atoms: C_13  and  C_15
REMARK    4  A    between atoms: C_15  and  C_16
REMARK    5  A    between atoms: C_15  and  C_17
REMARK    6  A    between atoms: N_26  and  C_27
REMARK    7  A    between atoms: C_31  and  C_33
REMARK                            x       y       z     vdW  Elec       q    Type
REMARK                         _______ _______ _______ _____ _____    ______ ____
ROOT
ATOM      1  N   UNL     1      -2.478  -5.387  -0.401  0.00  0.00    -0.312 N 
ATOM      2  C   UNL     1      -2.217  -5.633  -1.826  0.00  0.00    +0.125 C 
ATOM      3  C   UNL     1      -3.399  -6.414  -2.414  0.00  0.00    +0.128 C 
ATOM      4  N   UNL     1      -4.646  -5.738  -2.029  0.00  0.00    -0.282 N 
ATOM      5  C   UNL     1      -4.908  -5.491  -0.604  0.00  0.00    +0.128 C 
ATOM      6  C   UNL     1      -3.728  -4.716  -0.016  0.00  0.00    +0.125 C 
ATOM      7  C   UNL     1      -5.533  -5.350  -2.967  0.00  0.00    +0.307 C 
ATOM      8  O   UNL     1      -5.370  -5.671  -4.128  0.00  0.00    -0.252 OA
ATOM      9  N   UNL     1      -6.601  -4.606  -2.617  0.00  0.00    -0.269 N 
ATOM     10  H   UNL     1      -6.663  -4.236  -1.722  0.00  0.00    +0.156 HD
ENDROOT
BRANCH   1  20
ATOM     11  C   UNL     1       1.377   0.077  -1.183  0.00  0.00    +0.008 C 
ATOM     12  C   UNL     1       1.023  -1.385  -0.904  0.00  0.00    -0.009 C 
ATOM     13  C   UNL     1      -0.496  -1.531  -0.779  0.00  0.00    +0.008 C 
ATOM     14  C   UNL     1      -0.874  -3.012  -0.749  0.00  0.00    +0.037 C 
ATOM     15  C   UNL     1      -0.058  -3.708   0.338  0.00  0.00    -0.025 A 
ATOM     16  C   UNL     1       1.068  -3.138   0.824  0.00  0.00    -0.004 A 
ATOM     17  S   UNL     1       1.678  -4.273   2.045  0.00  0.00    -0.073 S 
ATOM     18  C   UNL     1       0.427  -5.508   1.906  0.00  0.00    +0.114 A 
ATOM     19  C   UNL     1      -0.434  -4.993   0.903  0.00  0.00    +0.051 A 
ATOM     20  C   UNL     1      -1.568  -5.785   0.561  0.00  0.00    +0.133 A 
ATOM     21  N   UNL     1      -1.696  -6.932   1.225  0.00  0.00    -0.216 NA
ATOM     22  C   UNL     1      -0.852  -7.347   2.148  0.00  0.00    +0.135 A 
ATOM     23  N   UNL     1       0.223  -6.659   2.514  0.00  0.00    -0.224 NA
ATOM     24  C   UNL     1       1.673  -1.829   0.414  0.00  0.00    +0.046 C 
BRANCH  22  25
ATOM     25  C   UNL     1      -1.120  -8.669   2.821  0.00  0.00    +0.051 C 
ATOM     26  C   UNL     1       0.056  -9.616   2.572  0.00  0.00    +0.015 C 
ATOM     27  C   UNL     1      -1.288  -8.450   4.326  0.00  0.00    +0.015 C 
ENDBRANCH  22  25
ENDBRANCH   1  20
BRANCH   9  28
ATOM     28  C   UNL     1      -7.621  -4.366  -3.545  0.00  0.00    +0.035 A 
ATOM     29  C   UNL     1      -7.351  -4.423  -4.906  0.00  0.00    +0.023 A 
ATOM     30  C   UNL     1      -8.359  -4.186  -5.819  0.00  0.00    +0.002 A 
ATOM     31  C   UNL     1      -9.637  -3.892  -5.380  0.00  0.00    +0.012 A 
ATOM     32  C   UNL     1      -9.909  -3.834  -4.025  0.00  0.00    +0.057 A 
ATOM     33  C   UNL     1      -8.906  -4.076  -3.107  0.00  0.00    +0.035 A 
BRANCH  32  34
ATOM     34  C   UNL     1     -11.303  -3.512  -3.550  0.00  0.00    +0.417 C 
ATOM     35  F   UNL     1     -12.138  -3.314  -4.655  0.00  0.00    -0.166 F 
ATOM     36  F   UNL     1     -11.790  -4.575  -2.782  0.00  0.00    -0.166 F 
ATOM     37  F   UNL     1     -11.274  -2.349  -2.773  0.00  0.00    -0.166 F 
ENDBRANCH  32  34
ENDBRANCH   9  28
TORSDOF 4
