REMARK  Name = ZINC38989732
REMARK  7 active torsions:
REMARK  status: ('A' for Active; 'I' for Inactive)
REMARK    1  A    between atoms: C_6  and  C_7
REMARK    2  A    between atoms: C_9  and  C_13
REMARK    3  A    between atoms: C_17  and  S_21
REMARK    4  A    between atoms: N_19  and  N_20
REMARK    5  A    between atoms: S_21  and  C_22
REMARK    6  A    between atoms: C_22  and  C_23
REMARK    7  A    between atoms: N_25  and  C_26
REMARK                            x       y       z     vdW  Elec       q    Type
REMARK                         _______ _______ _______ _____ _____    ______ ____
ROOT
ATOM      1  C   UNL     1      -3.279  -3.157   1.239  0.00  0.00    +0.185 C 
ATOM      2  N   UNL     1      -3.116  -2.294   2.439  0.00  0.00    -0.234 NA
ATOM      3  N   UNL     1      -4.040  -2.898   3.411  0.00  0.00    -0.228 NA
ATOM      4  C   UNL     1      -5.210  -3.310   2.602  0.00  0.00    +0.214 C 
ATOM      5  N   UNL     1      -4.724  -3.480   1.214  0.00  0.00    -0.197 NA
ATOM      6  H   UNL     1      -2.166  -2.322   2.778  0.00  0.00    +0.143 HD
ATOM      7  H   UNL     1      -4.308  -2.230   4.119  0.00  0.00    +0.143 HD
ENDROOT
BRANCH   1  10
ATOM      8  C   UNL     1      -1.295  -0.786  -0.051  0.00  0.00    +0.091 C 
ATOM      9  C   UNL     1      -1.384  -2.130  -0.042  0.00  0.00    +0.034 C 
ATOM     10  C   UNL     1      -2.879  -2.395  -0.026  0.00  0.00    +0.187 C 
ATOM     11  N   UNL     1      -3.460  -1.043  -0.029  0.00  0.00    -0.176 NA
ATOM     12  N   UNL     1      -2.534  -0.229  -0.037  0.00  0.00    -0.154 NA
BRANCH   8  18
ATOM     13  C   UNL     1      -0.045   1.372  -0.070  0.00  0.00    +0.013 A 
ATOM     14  C   UNL     1       1.140   2.078  -0.085  0.00  0.00    +0.039 A 
ATOM     15  C   UNL     1       2.350   1.404  -0.098  0.00  0.00    +0.123 A 
ATOM     16  C   UNL     1       2.377   0.019  -0.096  0.00  0.00    +0.039 A 
ATOM     17  C   UNL     1       1.196  -0.696  -0.081  0.00  0.00    +0.013 A 
ATOM     18  C   UNL     1      -0.023  -0.022  -0.068  0.00  0.00    +0.002 A 
ATOM     19  F   UNL     1       3.508   2.100  -0.114  0.00  0.00    -0.205 F 
ENDBRANCH   8  18
ENDBRANCH   1  10
BRANCH   5  20
ATOM     20  N   UNL     1      -5.439  -2.602   0.302  0.00  0.00    -0.264 NA
ATOM     21  H   UNL     1      -6.424  -2.822   0.285  0.00  0.00    +0.137 HD
ATOM     22  H   UNL     1      -5.289  -1.633   0.540  0.00  0.00    +0.137 HD
ENDBRANCH   5  20
BRANCH   4  23
ATOM     23  S   UNL     1      -5.873  -4.880   3.223  0.00  0.00    -0.115 S 
BRANCH  23  24
ATOM     24  C   UNL     1      -4.476  -6.029   3.092  0.00  0.00    +0.168 C 
BRANCH  24  25
ATOM     25  C   UNL     1      -4.897  -7.391   3.583  0.00  0.00    +0.227 C 
ATOM     26  O   UNL     1      -6.029  -7.568   3.981  0.00  0.00    -0.275 OA
ATOM     27  N   UNL     1      -4.016  -8.411   3.578  0.00  0.00    -0.284 N 
ATOM     28  H   UNL     1      -3.132  -8.287   3.200  0.00  0.00    +0.155 HD
BRANCH  27  29
ATOM     29  C   UNL     1      -4.378  -9.650   4.120  0.00  0.00    +0.052 A 
ATOM     30  C   UNL     1      -5.684 -10.106   4.003  0.00  0.00    +0.026 A 
ATOM     31  C   UNL     1      -6.038 -11.329   4.539  0.00  0.00    +0.022 A 
ATOM     32  C   UNL     1      -5.093 -12.100   5.193  0.00  0.00    +0.042 A 
ATOM     33  C   UNL     1      -3.791 -11.649   5.311  0.00  0.00    +0.041 A 
ATOM     34  C   UNL     1      -3.429 -10.429   4.772  0.00  0.00    +0.064 A 
ATOM     35 CL   UNL     1      -1.793  -9.866   4.914  0.00  0.00    -0.082 Cl
ATOM     36 CL   UNL     1      -5.543 -13.636   5.865  0.00  0.00    -0.083 Cl
ENDBRANCH  27  29
ENDBRANCH  24  25
ENDBRANCH  23  24
ENDBRANCH   4  23
TORSDOF 7
