REMARK  Name = ZINC00923322
REMARK  11 active torsions:
REMARK  status: ('A' for Active; 'I' for Inactive)
REMARK    1  A    between atoms: C_1  and  C_2
REMARK    2  A    between atoms: C_2  and  C_3
REMARK    3  A    between atoms: C_10  and  C_15
REMARK    4  A    between atoms: C_15  and  N_16
REMARK    5  A    between atoms: N_16  and  C_17
REMARK    6  A    between atoms: N_16  and  S_27
REMARK    7  A    between atoms: C_17  and  C_18
REMARK    8  A    between atoms: S_27  and  C_30
REMARK    9  A    between atoms: C_31  and  C_38
REMARK   10  A    between atoms: C_33  and  C_37
REMARK   11  A    between atoms: C_35  and  C_36
REMARK                            x       y       z     vdW  Elec       q    Type
REMARK                         _______ _______ _______ _____ _____    ______ ____
ROOT
ATOM      1  N   UNL     1       6.280  -0.252   0.225  0.00  0.00    -0.168 NA
ENDROOT
BRANCH   1   2
ATOM      2  S   UNL     1       6.016  -1.824   0.676  0.00  0.00    +0.062 S 
ATOM      3  O   UNL     1       5.762  -1.808   2.074  0.00  0.00    -0.153 OA
ATOM      4  O   UNL     1       5.094  -2.366  -0.260  0.00  0.00    -0.153 OA
BRANCH   2   5
ATOM      5  C   UNL     1       7.532  -2.692   0.450  0.00  0.00    +0.111 A 
ATOM      6  C   UNL     1       7.732  -3.449  -0.690  0.00  0.00    -0.024 A 
ATOM      7  C   UNL     1       8.923  -4.127  -0.870  0.00  0.00    +0.008 A 
ATOM      8  C   UNL     1       9.911  -4.056   0.095  0.00  0.00    -0.050 A 
ATOM      9  C   UNL     1       9.710  -3.303   1.237  0.00  0.00    +0.008 A 
ATOM     10  C   UNL     1       8.520  -2.621   1.414  0.00  0.00    -0.024 A 
ATOM     11  C   UNL     1       8.300  -1.801   2.659  0.00  0.00    +0.046 C 
ATOM     12  C   UNL     1      11.208  -4.799  -0.099  0.00  0.00    +0.044 C 
ATOM     13  C   UNL     1       6.652  -3.532  -1.738  0.00  0.00    +0.046 C 
ENDBRANCH   2   5
ENDBRANCH   1   2
BRANCH   1  14
ATOM     14  C   UNL     1       6.425   0.088  -1.192  0.00  0.00    +0.150 C 
BRANCH  14  22
ATOM     15  C   UNL     1      12.216  -1.055  -3.047  0.00  0.00    -0.047 A 
ATOM     16  C   UNL     1      12.711   0.220  -2.809  0.00  0.00    +0.005 A 
ATOM     17  C   UNL     1      11.892   1.209  -2.309  0.00  0.00    +0.026 A 
ATOM     18  C   UNL     1      10.557   0.929  -2.038  0.00  0.00    +0.049 A 
ATOM     19  C   UNL     1      10.059  -0.364  -2.281  0.00  0.00    -0.001 A 
ATOM     20  C   UNL     1      10.908  -1.353  -2.790  0.00  0.00    +0.013 A 
ATOM     21  C   UNL     1       8.653  -0.651  -1.988  0.00  0.00    +0.020 A 
ATOM     22  C   UNL     1       7.877   0.348  -1.500  0.00  0.00    +0.033 A 
ATOM     23  C   UNL     1       8.425   1.629  -1.274  0.00  0.00    +0.254 A 
ATOM     24  O   UNL     1       7.711   2.512  -0.831  0.00  0.00    -0.268 OA
ATOM     25  N   UNL     1       9.716   1.900  -1.536  0.00  0.00    -0.322 N 
ATOM     26  H   UNL     1      10.072   2.819  -1.364  0.00  0.00    +0.169 HD
BRANCH  15  28
ATOM     27  C   UNL     1      13.087  -2.093  -5.125  0.00  0.00    +0.009 C 
ATOM     28  C   UNL     1      13.130  -2.121  -3.595  0.00  0.00    +0.032 C 
ENDBRANCH  15  28
ENDBRANCH  14  22
ENDBRANCH   1  14
BRANCH   1  29
ATOM     29  C   UNL     1       6.368   0.797   1.244  0.00  0.00    +0.145 C 
BRANCH  29  30
ATOM     30  C   UNL     1       5.039   1.498   1.359  0.00  0.00    -0.028 A 
ATOM     31  C   UNL     1       4.054   0.978   2.178  0.00  0.00    +0.009 A 
ATOM     32  C   UNL     1       2.833   1.617   2.287  0.00  0.00    +0.050 A 
ATOM     33  C   UNL     1       2.594   2.781   1.576  0.00  0.00    +0.166 A 
ATOM     34  C   UNL     1       3.587   3.305   0.752  0.00  0.00    +0.167 A 
ATOM     35  C   UNL     1       4.808   2.660   0.647  0.00  0.00    +0.054 A 
ATOM     36  O   UNL     1       3.112   4.444   0.167  0.00  0.00    -0.453 OA
ATOM     37  C   UNL     1       1.970   4.833   0.954  0.00  0.00    +0.466 C 
ATOM     38  O   UNL     1       1.497   3.591   1.508  0.00  0.00    -0.453 OA
ENDBRANCH  29  30
ENDBRANCH   1  29
TORSDOF 7
