REMARK  Name = ZINC27990310
REMARK  2 active torsions:
REMARK  status: ('A' for Active; 'I' for Inactive)
REMARK    1  A    between atoms: C_6  and  C_7
REMARK    2  A    between atoms: C_9  and  C_18
REMARK                            x       y       z     vdW  Elec       q    Type
REMARK                         _______ _______ _______ _____ _____    ______ ____
ROOT
ATOM      1  C   UNL     1      -1.390  -0.705  -0.523  0.00  0.00    -0.002 A 
ATOM      2  C   UNL     1      -2.529   0.043  -0.795  0.00  0.00    +0.037 A 
ATOM      3  C   UNL     1      -2.462   1.439  -0.757  0.00  0.00    +0.075 A 
ATOM      4  N   UNL     1      -1.337   2.072  -0.462  0.00  0.00    -0.227 NA
ATOM      5  C   UNL     1      -0.212   1.410  -0.198  0.00  0.00    +0.166 A 
ATOM      6  C   UNL     1      -0.201  -0.006  -0.217  0.00  0.00    +0.066 A 
ATOM      7  C   UNL     1       1.007  -0.674   0.074  0.00  0.00    +0.129 A 
ATOM      8  N   UNL     1       2.079   0.060   0.352  0.00  0.00    -0.220 NA
ATOM      9  C   UNL     1       2.025   1.381   0.359  0.00  0.00    +0.225 A 
ATOM     10  N   UNL     1       0.929   2.053   0.096  0.00  0.00    -0.216 NA
ATOM     11  N   UNL     1       1.073  -2.051   0.069  0.00  0.00    -0.343 N 
ATOM     12  H   UNL     1       2.023  -2.557   0.298  0.00  0.00    +0.144 HD
ATOM     13  H   UNL     1       0.177  -2.644  -0.163  0.00  0.00    +0.144 HD
ENDROOT
BRANCH   3  14
ATOM     14  C   UNL     1      -3.680   2.230  -1.048  0.00  0.00    +0.019 A 
ATOM     15  C   UNL     1      -3.621   3.628  -1.114  0.00  0.00    +0.015 A 
ATOM     16  C   UNL     1      -4.781   4.321  -1.393  0.00  0.00    +0.044 A 
ATOM     17  C   UNL     1      -5.966   3.615  -1.587  0.00  0.00    +0.121 A 
ATOM     18  N   UNL     1      -5.989   2.292  -1.512  0.00  0.00    -0.240 NA
ATOM     19  C   UNL     1      -4.902   1.593  -1.253  0.00  0.00    +0.123 A 
ATOM     20  N   UNL     1      -7.137   4.306  -1.863  0.00  0.00    -0.311 N 
ATOM     21  C   UNL     1      -7.426   5.293  -0.813  0.00  0.00    +0.134 C 
ATOM     22  C   UNL     1      -8.691   6.071  -1.186  0.00  0.00    +0.178 C 
ATOM     23  O   UNL     1      -9.770   5.153  -1.378  0.00  0.00    -0.377 OA
ATOM     24  C   UNL     1      -9.523   4.178  -2.394  0.00  0.00    +0.178 C 
ATOM     25  C   UNL     1      -8.267   3.380  -2.034  0.00  0.00    +0.134 C 
ENDBRANCH   3  14
BRANCH   1  31
ATOM     26  C   UNL     1      -1.790  -2.853  -1.722  0.00  0.00    +0.009 A 
ATOM     27  C   UNL     1      -1.812  -4.232  -1.747  0.00  0.00    +0.016 A 
ATOM     28  C   UNL     1      -1.479  -4.953  -0.612  0.00  0.00    +0.018 A 
ATOM     29  C   UNL     1      -1.117  -4.295   0.551  0.00  0.00    +0.016 A 
ATOM     30  C   UNL     1      -1.087  -2.916   0.585  0.00  0.00    +0.009 A 
ATOM     31  C   UNL     1      -1.421  -2.185  -0.554  0.00  0.00    -0.017 A 
ATOM     32 BR   UNL     1      -1.518  -6.843  -0.652  0.00  0.00    -0.050 Br
ENDBRANCH   1  31
TORSDOF 2
