REMARK  Name = ZINC16080050
REMARK  12 active torsions:
REMARK  status: ('A' for Active; 'I' for Inactive)
REMARK    1  A    between atoms: C_1  and  C_2
REMARK    2  A    between atoms: C_2  and  C_3
REMARK    3  A    between atoms: C_3  and  N_72
REMARK    4  A    between atoms: C_6  and  N_9
REMARK    5  A    between atoms: N_9  and  C_10
REMARK    6  A    between atoms: C_17  and  C_20
REMARK    7  A    between atoms: C_20  and  C_21
REMARK    8  A    between atoms: C_20  and  C_22
REMARK    9  A    between atoms: C_20  and  C_23
REMARK   10  A    between atoms: C_24  and  C_26
REMARK   11  A    between atoms: C_29  and  S_32
REMARK   12  A    between atoms: S_32  and  C_35
REMARK                            x       y       z     vdW  Elec       q    Type
REMARK                         _______ _______ _______ _____ _____    ______ ____
ROOT
ATOM      1  N   UNL     1       5.573  -0.855   0.428  0.00  0.00    -0.265 N 
ATOM      2  C   UNL     1       6.271   0.208  -0.019  0.00  0.00    +0.251 C 
ATOM      3  O   UNL     1       7.402   0.059  -0.441  0.00  0.00    -0.270 OA
ENDROOT
BRANCH   1   4
ATOM      4  C   UNL     1       4.241  -0.698   0.832  0.00  0.00    +0.038 A 
ATOM      5  C   UNL     1       3.936   0.127   1.914  0.00  0.00    +0.025 A 
ATOM      6  C   UNL     1       2.633   0.291   2.324  0.00  0.00    +0.028 A 
ATOM      7  C   UNL     1       1.605  -0.368   1.658  0.00  0.00    +0.047 A 
ATOM      8  C   UNL     1       1.909  -1.201   0.566  0.00  0.00    +0.002 A 
ATOM      9  C   UNL     1       3.234  -1.361   0.157  0.00  0.00    +0.033 A 
ATOM     10  C   UNL     1       0.628  -1.735   0.095  0.00  0.00    +0.031 A 
ATOM     11  C   UNL     1      -0.326  -1.223   0.888  0.00  0.00    +0.022 A 
ATOM     12  N   UNL     1       0.237  -0.403   1.827  0.00  0.00    -0.357 N 
ATOM     13  H   UNL     1      -0.253   0.081   2.510  0.00  0.00    +0.166 HD
BRANCH  11  14
ATOM     14  C   UNL     1      -1.800  -1.512   0.764  0.00  0.00    +0.002 C 
ATOM     15  C   UNL     1      -2.574  -0.654   1.767  0.00  0.00    +0.017 C 
ATOM     16  C   UNL     1      -2.268  -1.183  -0.655  0.00  0.00    +0.017 C 
ATOM     17  C   UNL     1      -2.056  -2.992   1.056  0.00  0.00    +0.017 C 
ENDBRANCH  11  14
ENDBRANCH   1   4
BRANCH   1  20
ATOM     18  C   UNL     1       7.338  -3.960  -0.837  0.00  0.00    -0.077 C 
ATOM     19  C   UNL     1       6.622  -2.610  -0.917  0.00  0.00    +0.004 C 
ATOM     20  C   UNL     1       6.207  -2.174   0.491  0.00  0.00    +0.078 C 
ATOM     21  C   UNL     1       7.450  -2.102   1.383  0.00  0.00    +0.004 C 
ATOM     22  C   UNL     1       8.143  -3.467   1.395  0.00  0.00    -0.077 C 
ATOM     23  N   UNL     1       8.538  -3.817   0.014  0.00  0.00    +0.380 N 
ATOM     24  H   UNL     1       9.127  -3.067  -0.364  0.00  0.00    -0.082 HD
BRANCH  23  25
ATOM     25  C   UNL     1       9.309  -5.078   0.015  0.00  0.00    -0.079 C 
BRANCH  25  27
ATOM     26  C   UNL     1      11.204  -6.299   1.092  0.00  0.00    +0.002 C 
ATOM     27  C   UNL     1      10.383  -5.008   1.103  0.00  0.00    -0.022 C 
ENDBRANCH  25  27
ENDBRANCH  23  25
ENDBRANCH   1  20
BRANCH   2  28
ATOM     28  C   UNL     1       5.663   1.555   0.004  0.00  0.00    +0.037 A 
ATOM     29  C   UNL     1       4.281   1.702  -0.123  0.00  0.00    +0.015 A 
ATOM     30  C   UNL     1       3.719   2.962  -0.096  0.00  0.00    +0.027 A 
ATOM     31  C   UNL     1       4.523   4.078   0.046  0.00  0.00    +0.088 A 
ATOM     32  C   UNL     1       5.894   3.940   0.167  0.00  0.00    +0.027 A 
ATOM     33  C   UNL     1       6.469   2.686   0.147  0.00  0.00    +0.015 A 
BRANCH  31  34
ATOM     34  S   UNL     1       3.798   5.684   0.073  0.00  0.00    -0.006 S 
ATOM     35  O   UNL     1       2.473   5.475   0.542  0.00  0.00    -0.170 OA
ATOM     36  O   UNL     1       4.711   6.482   0.814  0.00  0.00    -0.170 OA
ATOM     37  C   UNL     1       3.770   6.213  -1.662  0.00  0.00    +0.200 C 
ENDBRANCH  31  34
ENDBRANCH   2  28
TORSDOF 7
