REMARK  Name = ZINC36742901
REMARK  4 active torsions:
REMARK  status: ('A' for Active; 'I' for Inactive)
REMARK    1  A    between atoms: C_2  and  N_19
REMARK    2  A    between atoms: C_3  and  N_12
REMARK    3  A    between atoms: N_12  and  S_13
REMARK    4  A    between atoms: S_13  and  C_16
REMARK                            x       y       z     vdW  Elec       q    Type
REMARK                         _______ _______ _______ _____ _____    ______ ____
ROOT
ATOM      1  C   UNL     1      -0.017   1.380   0.010  0.00  0.00    +0.072 A 
ATOM      2  C   UNL     1       1.176   2.088   0.002  0.00  0.00    +0.053 A 
ATOM      3  C   UNL     1       2.393   1.407  -0.013  0.00  0.00    +0.097 A 
ATOM      4  C   UNL     1       2.410   0.020  -0.020  0.00  0.00    +0.055 A 
ATOM      5  C   UNL     1       1.218  -0.685  -0.012  0.00  0.00    +0.078 A 
ATOM      6  C   UNL     1       0.002  -0.004   0.002  0.00  0.00    +0.144 A 
ATOM      7  O   UNL     1      -1.161  -0.712   0.007  0.00  0.00    -0.481 OA
ATOM      8  C   UNL     1      -1.158  -1.958  -0.695  0.00  0.00    +0.325 C 
ATOM      9  C   UNL     1       0.076  -2.742  -0.328  0.00  0.00    +0.255 C 
ATOM     10  O   UNL     1       0.044  -3.955  -0.311  0.00  0.00    -0.272 OA
ATOM     11  N   UNL     1       1.217  -2.090  -0.018  0.00  0.00    -0.280 N 
ATOM     12  H   UNL     1       2.024  -2.583   0.197  0.00  0.00    +0.155 HD
ENDROOT
BRANCH   2  13
ATOM     13  N   UNL     1       1.159   3.490   0.009  0.00  0.00    -0.356 N 
ATOM     14  H   UNL     1       0.313   3.965   0.020  0.00  0.00    +0.142 HD
ATOM     15  H   UNL     1       1.993   3.986   0.004  0.00  0.00    +0.142 HD
ENDBRANCH   2  13
BRANCH   3  16
ATOM     16  N   UNL     1       3.598   2.124  -0.022  0.00  0.00    -0.095 NA
BRANCH  16  17
ATOM     17  S   UNL     1       5.043   1.315  -0.041  0.00  0.00    +0.125 S 
ATOM     18  O   UNL     1       5.077   0.606   1.191  0.00  0.00    -0.148 OA
ATOM     19  O   UNL     1       5.052   0.617  -1.278  0.00  0.00    -0.148 OA
BRANCH  17  20
ATOM     20  C   UNL     1       6.306   2.617  -0.048  0.00  0.00    +0.501 C 
ATOM     21  F   UNL     1       7.572   2.037  -0.178  0.00  0.00    -0.182 F 
ATOM     22  F   UNL     1       6.077   3.483  -1.122  0.00  0.00    -0.182 F 
ENDBRANCH  17  20
ENDBRANCH  16  17
ENDBRANCH   3  16
TORSDOF 4
