REMARK  Name = ZINC66135909
REMARK  7 active torsions:
REMARK  status: ('A' for Active; 'I' for Inactive)
REMARK    1  A    between atoms: C_1  and  C_2
REMARK    2  A    between atoms: C_7  and  O_8
REMARK    3  A    between atoms: O_8  and  C_9
REMARK    4  A    between atoms: C_9  and  C_10
REMARK    5  A    between atoms: C_11  and  C_18
REMARK    6  A    between atoms: C_12  and  C_17
REMARK    7  A    between atoms: N_20  and  C_21
REMARK                            x       y       z     vdW  Elec       q    Type
REMARK                         _______ _______ _______ _____ _____    ______ ____
ROOT
ATOM      1  C   UNL     1      -1.046   1.013   4.254  0.00  0.00    +0.096 A 
ATOM      2  C   UNL     1      -0.926   0.312   5.462  0.00  0.00    +0.082 A 
ATOM      3  C   UNL     1      -0.741   1.048   6.639  0.00  0.00    +0.056 A 
ATOM      4  N   UNL     1      -0.686   2.365   6.569  0.00  0.00    -0.219 NA
ATOM      5  C   UNL     1      -0.804   2.991   5.406  0.00  0.00    +0.213 A 
ATOM      6  N   UNL     1      -0.976   2.330   4.268  0.00  0.00    -0.215 NA
ATOM      7  N   UNL     1      -0.742   4.369   5.377  0.00  0.00    -0.327 N 
ATOM      8  C   UNL     1      -0.606   0.346   7.966  0.00  0.00    +0.066 C 
ATOM      9  H   UNL     1      -0.613   4.865   6.200  0.00  0.00    +0.145 HD
ATOM     10  H   UNL     1      -0.826   4.840   4.534  0.00  0.00    +0.145 HD
ENDROOT
BRANCH   2  11
ATOM     11  C   UNL     1      -0.994  -1.161   5.492  0.00  0.00    +0.247 C 
ATOM     12  O   UNL     1       0.022  -1.819   5.372  0.00  0.00    -0.270 OA
ATOM     13  N   UNL     1      -2.181  -1.778   5.654  0.00  0.00    -0.314 N 
ATOM     14  C   UNL     1      -2.248  -3.241   5.684  0.00  0.00    +0.128 C 
ATOM     15  H   UNL     1      -2.991  -1.253   5.750  0.00  0.00    +0.149 HD
ENDBRANCH   2  11
BRANCH   1  16
ATOM     16  C   UNL     1      -1.246   0.272   2.957  0.00  0.00    +0.285 C 
BRANCH  16  17
ATOM     17  O   UNL     1       0.025  -0.032   2.381  0.00  0.00    -0.484 OA
BRANCH  17  24
ATOM     18  C   UNL     1      -0.018   1.503   0.010  0.00  0.00    +0.047 C 
ATOM     19  C   UNL     1       0.002  -0.004   0.002  0.00  0.00    -0.007 A 
ATOM     20  C   UNL     1       0.006  -0.689  -1.198  0.00  0.00    +0.022 A 
ATOM     21  C   UNL     1       0.024  -2.072  -1.207  0.00  0.00    +0.019 A 
ATOM     22  C   UNL     1       0.040  -2.773  -0.014  0.00  0.00    +0.034 A 
ATOM     23  C   UNL     1       0.035  -2.092   1.188  0.00  0.00    +0.061 A 
ATOM     24  C   UNL     1       0.023  -0.704   1.199  0.00  0.00    +0.138 A 
ATOM     25 BR   UNL     1       0.055  -3.051   2.818  0.00  0.00    -0.046 Br
ATOM     26 BR   UNL     1       0.029  -3.006  -2.851  0.00  0.00    -0.050 Br
ENDBRANCH  17  24
ENDBRANCH  16  17
ENDBRANCH   1  16
TORSDOF 4
