REMARK  Name = ZINC20646357
REMARK  3 active torsions:
REMARK  status: ('A' for Active; 'I' for Inactive)
REMARK    1  A    between atoms: C_3  and  N_31
REMARK    2  A    between atoms: C_6  and  N_7
REMARK    3  A    between atoms: C_13  and  C_15
REMARK                            x       y       z     vdW  Elec       q    Type
REMARK                         _______ _______ _______ _____ _____    ______ ____
ROOT
ATOM      1  N   UNL     1       0.746   1.453  -4.027  0.00  0.00    -0.327 N 
ATOM      2  C   UNL     1      -0.373   1.956  -3.219  0.00  0.00    +0.124 C 
ATOM      3  C   UNL     1      -0.178   1.529  -1.760  0.00  0.00    +0.127 C 
ATOM      4  N   UNL     1       0.012   0.071  -1.722  0.00  0.00    -0.295 N 
ATOM      5  C   UNL     1       1.025  -0.523  -2.607  0.00  0.00    +0.127 C 
ATOM      6  C   UNL     1       0.782  -0.015  -4.033  0.00  0.00    +0.124 C 
ATOM      7  C   UNL     1      -0.722  -0.701  -0.896  0.00  0.00    +0.248 C 
ATOM      8  O   UNL     1      -1.483  -0.186  -0.099  0.00  0.00    -0.270 OA
ENDROOT
BRANCH   7   9
ATOM      9  C   UNL     1      -0.604  -2.170  -0.959  0.00  0.00    +0.054 A 
ATOM     10  C   UNL     1       0.189  -2.862  -0.009  0.00  0.00    +0.018 A 
ATOM     11  C   UNL     1       0.290  -4.211  -0.079  0.00  0.00    +0.047 A 
ATOM     12  C   UNL     1      -0.395  -4.920  -1.095  0.00  0.00    +0.141 A 
ATOM     13  N   UNL     1      -0.275  -6.238  -1.133  0.00  0.00    -0.229 NA
ATOM     14  C   UNL     1      -0.890  -6.983  -2.064  0.00  0.00    +0.080 A 
ATOM     15  C   UNL     1      -0.756  -8.377  -2.095  0.00  0.00    +0.048 A 
ATOM     16  C   UNL     1      -1.402  -9.096  -3.061  0.00  0.00    +0.043 A 
ATOM     17  C   UNL     1      -2.192  -8.465  -4.016  0.00  0.00    +0.021 A 
ATOM     18  C   UNL     1      -2.343  -7.107  -4.013  0.00  0.00    +0.017 A 
ATOM     19  C   UNL     1      -1.696  -6.346  -3.039  0.00  0.00    +0.065 A 
ATOM     20  C   UNL     1      -1.821  -4.888  -2.986  0.00  0.00    +0.266 A 
ATOM     21  O   UNL     1      -2.500  -4.286  -3.797  0.00  0.00    -0.267 OA
ATOM     22  N   UNL     1      -1.158  -4.230  -2.005  0.00  0.00    -0.267 N 
ATOM     23  C   UNL     1      -1.266  -2.875  -1.936  0.00  0.00    +0.109 A 
ATOM     24 CL   UNL     1      -1.234 -10.824  -3.095  0.00  0.00    -0.083 Cl
ENDBRANCH   7   9
BRANCH   1  30
ATOM     25  C   UNL     1       0.682   1.089  -6.412  0.00  0.00    +0.025 A 
ATOM     26  C   UNL     1       0.622   1.591  -7.697  0.00  0.00    +0.034 A 
ATOM     27  C   UNL     1       0.581   2.958  -7.906  0.00  0.00    +0.126 A 
ATOM     28  C   UNL     1       0.595   3.826  -6.829  0.00  0.00    +0.034 A 
ATOM     29  C   UNL     1       0.650   3.330  -5.541  0.00  0.00    +0.025 A 
ATOM     30  C   UNL     1       0.691   1.958  -5.328  0.00  0.00    +0.030 A 
BRANCH  27  31
ATOM     31  N   UNL     1       0.522   3.493  -9.285  0.00  0.00    +0.056 N 
ATOM     32  O   UNL     1       0.486   4.696  -9.470  0.00  0.00    -0.126 OA
ATOM     33  O   UNL     1       0.510   2.729 -10.234  0.00  0.00    -0.126 OA
ENDBRANCH  27  31
ENDBRANCH   1  30
TORSDOF 3
