REMARK  Name = ZINC36684488
REMARK  9 active torsions:
REMARK  status: ('A' for Active; 'I' for Inactive)
REMARK    1  A    between atoms: C_1  and  C_2
REMARK    2  A    between atoms: C_5  and  C_36
REMARK    3  A    between atoms: N_8  and  S_10
REMARK    4  A    between atoms: S_10  and  C_13
REMARK    5  A    between atoms: C_17  and  C_19
REMARK    6  A    between atoms: N_21  and  C_22
REMARK    7  A    between atoms: C_22  and  C_23
REMARK    8  A    between atoms: C_23  and  C_25
REMARK    9  A    between atoms: C_23  and  N_30
REMARK                            x       y       z     vdW  Elec       q    Type
REMARK                         _______ _______ _______ _____ _____    ______ ____
ROOT
ATOM      1  C   UNL     1       5.735  -2.206  -2.491  0.00  0.00    +0.244 C 
ATOM      2  O   UNL     1       6.446  -1.409  -1.911  0.00  0.00    -0.270 OA
ATOM      3  N   UNL     1       5.769  -2.286  -3.836  0.00  0.00    -0.312 N 
ATOM      4  H   UNL     1       5.201  -2.922  -4.299  0.00  0.00    +0.149 HD
ENDROOT
BRANCH   1   9
ATOM      5  C   UNL     1       3.951  -3.836   0.385  0.00  0.00    +0.106 A 
ATOM      6  C   UNL     1       3.143  -4.742  -0.278  0.00  0.00    +0.028 A 
ATOM      7  C   UNL     1       3.175  -4.826  -1.659  0.00  0.00    +0.003 A 
ATOM      8  C   UNL     1       4.014  -4.005  -2.383  0.00  0.00    +0.013 A 
ATOM      9  C   UNL     1       4.832  -3.089  -1.721  0.00  0.00    +0.039 A 
ATOM     10  C   UNL     1       4.791  -3.005  -0.328  0.00  0.00    +0.041 A 
BRANCH   5  11
ATOM     11  S   UNL     1       3.903  -3.737   2.144  0.00  0.00    +0.061 S 
ATOM     12  O   UNL     1       5.147  -3.186   2.554  0.00  0.00    -0.153 OA
ATOM     13  O   UNL     1       3.437  -4.996   2.608  0.00  0.00    -0.153 OA
BRANCH  11  19
ATOM     14  C   UNL     1       2.406   1.113   2.042  0.00  0.00    +0.009 C 
ATOM     15  C   UNL     1       2.156  -0.377   1.796  0.00  0.00    +0.002 C 
ATOM     16  C   UNL     1       0.700  -0.711   2.127  0.00  0.00    +0.009 C 
ATOM     17  C   UNL     1       0.440  -2.194   1.850  0.00  0.00    +0.002 C 
ATOM     18  C   UNL     1       1.346  -3.043   2.746  0.00  0.00    +0.112 C 
ATOM     19  N   UNL     1       2.740  -2.626   2.540  0.00  0.00    -0.176 NA
ATOM     20  C   UNL     1       3.083  -1.206   2.691  0.00  0.00    +0.112 C 
ATOM     21  C   UNL     1      -1.025  -2.520   2.149  0.00  0.00    +0.009 C 
ENDBRANCH  11  19
ENDBRANCH   5  11
ENDBRANCH   1   9
BRANCH   3  22
ATOM     22  C   UNL     1       6.663  -1.412  -4.599  0.00  0.00    +0.097 C 
BRANCH  22  23
ATOM     23  C   UNL     1       6.605  -1.791  -6.080  0.00  0.00    +0.016 C 
BRANCH  23  24
ATOM     24  N   UNL     1       6.953  -3.210  -6.236  0.00  0.00    +0.387 N 
ATOM     25  C   UNL     1       8.263  -3.461  -5.623  0.00  0.00    -0.078 C 
ATOM     26  C   UNL     1       8.594  -4.952  -5.711  0.00  0.00    -0.019 C 
ATOM     27  C   UNL     1       8.627  -5.377  -7.182  0.00  0.00    -0.004 C 
ATOM     28  C   UNL     1       7.280  -5.042  -7.830  0.00  0.00    -0.019 C 
ATOM     29  C   UNL     1       6.998  -3.547  -7.664  0.00  0.00    -0.078 C 
ATOM     30  H   UNL     1       6.256  -3.778  -5.779  0.00  0.00    -0.081 HD
ENDBRANCH  23  24
BRANCH  23  31
ATOM     31  C   UNL     1       7.584  -0.946  -6.854  0.00  0.00    +0.093 A 
ATOM     32  C   UNL     1       7.266   0.047  -7.703  0.00  0.00    +0.043 A 
ATOM     33  C   UNL     1       8.483   0.565  -8.202  0.00  0.00    +0.041 A 
ATOM     34  C   UNL     1       9.473  -0.143  -7.628  0.00  0.00    +0.195 A 
ATOM     35  O   UNL     1       8.922  -1.053  -6.808  0.00  0.00    -0.469 OA
ENDBRANCH  23  31
ENDBRANCH  22  23
ENDBRANCH   3  22
TORSDOF 7
