REMARK  Name = ZINC13174181
REMARK  8 active torsions:
REMARK  status: ('A' for Active; 'I' for Inactive)
REMARK    1  A    between atoms: C_1  and  C_2
REMARK    2  A    between atoms: N_8  and  C_33
REMARK    3  A    between atoms: N_10  and  C_11
REMARK    4  A    between atoms: C_11  and  C_13
REMARK    5  A    between atoms: C_16  and  S_19
REMARK    6  A    between atoms: S_19  and  N_22
REMARK    7  A    between atoms: C_24  and  C_31
REMARK    8  A    between atoms: C_27  and  C_30
REMARK                            x       y       z     vdW  Elec       q    Type
REMARK                         _______ _______ _______ _____ _____    ______ ____
ROOT
ATOM      1  C   UNL     1      -2.594  -4.022   2.009  0.00  0.00    +0.039 A 
ATOM      2  C   UNL     1      -1.680  -3.351   2.821  0.00  0.00    +0.015 A 
ATOM      3  C   UNL     1      -1.871  -2.016   3.112  0.00  0.00    +0.029 A 
ATOM      4  C   UNL     1      -2.967  -1.343   2.602  0.00  0.00    +0.106 A 
ATOM      5  C   UNL     1      -3.880  -2.005   1.800  0.00  0.00    +0.029 A 
ATOM      6  C   UNL     1      -3.697  -3.338   1.497  0.00  0.00    +0.015 A 
ENDROOT
BRANCH   4   7
ATOM      7  S   UNL     1      -3.204   0.361   2.979  0.00  0.00    +0.061 S 
ATOM      8  O   UNL     1      -2.510   0.608   4.195  0.00  0.00    -0.153 OA
ATOM      9  O   UNL     1      -4.592   0.622   2.828  0.00  0.00    -0.153 OA
BRANCH   7  10
ATOM     10  N   UNL     1      -2.428   1.235   1.806  0.00  0.00    -0.172 NA
ATOM     11  C   UNL     1      -1.017   1.628   1.962  0.00  0.00    +0.140 C 
ATOM     12  C   UNL     1      -0.261   1.223   0.691  0.00  0.00    +0.131 C 
ATOM     13  O   UNL     1      -0.944   1.746  -0.451  0.00  0.00    -0.371 OA
ATOM     14  C   UNL     1      -2.268   1.236  -0.626  0.00  0.00    +0.131 C 
ATOM     15  C   UNL     1      -3.128   1.641   0.577  0.00  0.00    +0.140 C 
ATOM     16  C   UNL     1      -2.873   1.816  -1.906  0.00  0.00    +0.039 C 
ATOM     17  C   UNL     1       1.160   1.788   0.740  0.00  0.00    +0.039 C 
ENDBRANCH   7  10
ENDBRANCH   4   7
BRANCH   1  18
ATOM     18  C   UNL     1      -2.395  -5.455   1.691  0.00  0.00    +0.269 C 
ATOM     19  O   UNL     1      -1.430  -6.050   2.139  0.00  0.00    -0.268 OA
BRANCH  18  29
ATOM     20  C   UNL     1      -5.464 -10.142  -1.797  0.00  0.00    +0.046 C 
ATOM     21  C   UNL     1      -4.192 -10.498  -1.071  0.00  0.00    -0.026 A 
ATOM     22  C   UNL     1      -3.701 -11.780  -1.148  0.00  0.00    +0.007 A 
ATOM     23  C   UNL     1      -2.536 -12.143  -0.495  0.00  0.00    +0.021 A 
ATOM     24  C   UNL     1      -1.855 -11.195   0.250  0.00  0.00    +0.057 A 
ATOM     25  C   UNL     1      -2.345  -9.912   0.328  0.00  0.00    +0.057 A 
ATOM     26  C   UNL     1      -3.523  -9.516  -0.323  0.00  0.00    +0.062 A 
ATOM     27  N   UNL     1      -3.875  -8.193  -0.135  0.00  0.00    -0.324 N 
ATOM     28  C   UNL     1      -3.094  -7.381   0.627  0.00  0.00    +0.167 A 
ATOM     29  N   UNL     1      -3.273  -6.096   0.912  0.00  0.00    -0.152 NA
ATOM     30  S   UNL     1      -1.812  -8.429   1.143  0.00  0.00    -0.051 S 
ATOM     31  C   UNL     1      -5.090  -7.663  -0.760  0.00  0.00    +0.151 C 
ATOM     32 CL   UNL     1      -0.391 -11.623   1.080  0.00  0.00    -0.082 Cl
ENDBRANCH  18  29
ENDBRANCH   1  18
TORSDOF 4
