REMARK  Name = ZINC04341012
REMARK  5 active torsions:
REMARK  status: ('A' for Active; 'I' for Inactive)
REMARK    1  A    between atoms: C_1  and  C_2
REMARK    2  A    between atoms: C_7  and  O_28
REMARK    3  A    between atoms: C_8  and  C_10
REMARK    4  A    between atoms: C_10  and  C_12
REMARK    5  A    between atoms: C_10  and  N_49
REMARK                            x       y       z     vdW  Elec       q    Type
REMARK                         _______ _______ _______ _____ _____    ______ ____
ROOT
ATOM      1  C   UNL     1       2.452   3.936   0.000  0.00  0.00    +0.007 C 
ENDROOT
BRANCH   1  11
ATOM      2  C   UNL     1       3.211   2.519  -1.810  0.00  0.00    -0.072 C 
ATOM      3  C   UNL     1       4.285   1.509  -2.219  0.00  0.00    +0.046 C 
ATOM      4  C   UNL     1       5.648   2.206  -2.248  0.00  0.00    +0.167 C 
ATOM      5  C   UNL     1       5.939   2.820  -0.877  0.00  0.00    +0.046 C 
ATOM      6  C   UNL     1       4.814   3.790  -0.509  0.00  0.00    -0.072 C 
ATOM      7  O   UNL     1       6.669   1.249  -2.573  0.00  0.00    -0.346 OA
ATOM      8  C   UNL     1       6.857   1.380  -4.003  0.00  0.00    +0.191 C 
ATOM      9  C   UNL     1       6.663   2.903  -4.208  0.00  0.00    +0.191 C 
ATOM     10  O   UNL     1       5.641   3.235  -3.246  0.00  0.00    -0.346 OA
ATOM     11  N   UNL     1       3.536   3.048  -0.468  0.00  0.00    +0.388 N 
ATOM     12  H   UNL     1       3.628   2.261   0.186  0.00  0.00    -0.080 HD
ENDBRANCH   1  11
BRANCH   1  20
ATOM     13  C   UNL     1       3.805   7.500   6.411  0.00  0.00    +0.090 C 
ATOM     14  C   UNL     1       3.585   6.645   5.190  0.00  0.00    +0.150 A 
ATOM     15  N   UNL     1       3.843   5.342   5.104  0.00  0.00    -0.205 NA
ATOM     16  C   UNL     1       3.537   4.919   3.908  0.00  0.00    +0.199 A 
ATOM     17  N   UNL     1       3.062   5.956   3.165  0.00  0.00    -0.173 N 
ATOM     18  N   UNL     1       3.112   7.066   4.047  0.00  0.00    -0.147 NA
ATOM     19  C   UNL     1       2.695   5.685   1.869  0.00  0.00    +0.225 A 
ATOM     20  C   UNL     1       2.798   4.445   1.376  0.00  0.00    +0.045 A 
ATOM     21  S   UNL     1       3.460   3.553   2.775  0.00  0.00    -0.050 S 
BRANCH  19  22
ATOM     22  O   UNL     1       2.219   6.686   1.080  0.00  0.00    -0.492 OA
ATOM     23  H   UNL     1       1.260   6.799   1.124  0.00  0.00    +0.294 HD
ENDBRANCH  19  22
ENDBRANCH   1  20
BRANCH   1  24
ATOM     24  C   UNL     1       1.169   3.148   0.064  0.00  0.00    -0.038 A 
ATOM     25  C   UNL     1       1.204   1.788   0.306  0.00  0.00    +0.004 A 
ATOM     26  C   UNL     1       0.027   1.065   0.365  0.00  0.00    +0.000 A 
ATOM     27  C   UNL     1      -1.186   1.702   0.176  0.00  0.00    +0.001 A 
ATOM     28  C   UNL     1      -1.222   3.063  -0.060  0.00  0.00    +0.020 A 
ATOM     29  C   UNL     1      -0.045   3.787  -0.119  0.00  0.00    +0.043 A 
ATOM     30 CL   UNL     1      -0.090   5.495  -0.424  0.00  0.00    -0.083 Cl
ENDBRANCH   1  24
TORSDOF 4
