REMARK  Name = ZINC24772152
REMARK  11 active torsions:
REMARK  status: ('A' for Active; 'I' for Inactive)
REMARK    1  A    between atoms: C_1  and  C_2
REMARK    2  A    between atoms: C_2  and  O_3
REMARK    3  A    between atoms: O_3  and  C_4
REMARK    4  A    between atoms: C_4  and  C_6
REMARK    5  A    between atoms: C_7  and  C_8
REMARK    6  A    between atoms: C_11  and  N_14
REMARK    7  A    between atoms: C_15  and  C_17
REMARK    8  A    between atoms: C_17  and  S_18
REMARK    9  A    between atoms: S_18  and  C_19
REMARK   10  A    between atoms: C_22  and  C_25
REMARK   11  A    between atoms: N_23  and  N_24
REMARK                            x       y       z     vdW  Elec       q    Type
REMARK                         _______ _______ _______ _____ _____    ______ ____
ROOT
ATOM      1  C   UNL     1       0.150   0.985   0.075  0.00  0.00    +0.173 C 
ENDROOT
BRANCH   1   3
ATOM      2  N   UNL     1      -0.252   1.249   2.501  0.00  0.00    -0.285 N 
ATOM      3  C   UNL     1      -0.642   1.520   1.240  0.00  0.00    +0.227 C 
ATOM      4  O   UNL     1      -1.631   2.193   1.042  0.00  0.00    -0.275 OA
ATOM      5  H   UNL     1       0.683   0.699   2.682  0.00  0.00    +0.155 HD
BRANCH   2   9
ATOM      6  C   UNL     1      -2.589   2.497   5.718  0.00  0.00    -0.025 A 
ATOM      7  C   UNL     1      -1.895   1.282   5.783  0.00  0.00    +0.010 A 
ATOM      8  C   UNL     1      -1.125   0.874   4.718  0.00  0.00    +0.024 A 
ATOM      9  C   UNL     1      -1.035   1.667   3.578  0.00  0.00    +0.033 A 
ATOM     10  C   UNL     1      -1.718   2.877   3.510  0.00  0.00    +0.024 A 
ATOM     11  C   UNL     1      -2.496   3.290   4.568  0.00  0.00    +0.010 A 
BRANCH   6  13
ATOM     12  C   UNL     1      -4.082   4.108   6.786  0.00  0.00    +0.092 C 
ATOM     13  C   UNL     1      -3.413   2.936   6.852  0.00  0.00    +0.015 C 
BRANCH  12  14
ATOM     14  C   UNL     1      -4.877   4.533   7.881  0.00  0.00    +0.332 C 
ATOM     15  O   UNL     1      -4.957   3.842   8.879  0.00  0.00    -0.246 OA
BRANCH  14  16
ATOM     16  O   UNL     1      -5.545   5.703   7.815  0.00  0.00    -0.462 OA
BRANCH  16  18
ATOM     17  C   UNL     1      -7.006   7.415   8.697  0.00  0.00    +0.048 C 
ATOM     18  C   UNL     1      -6.327   6.069   8.954  0.00  0.00    +0.229 C 
ENDBRANCH  16  18
ENDBRANCH  14  16
ENDBRANCH  12  14
ENDBRANCH   6  13
ENDBRANCH   2   9
ENDBRANCH   1   3
BRANCH   1  19
ATOM     19  S   UNL     1      -0.621   1.516  -1.474  0.00  0.00    -0.075 S 
BRANCH  19  20
ATOM     20  C   UNL     1       0.478   0.773  -2.634  0.00  0.00    +0.209 A 
ATOM     21  N   UNL     1       1.542   0.056  -2.350  0.00  0.00    -0.121 NA
ATOM     22  N   UNL     1       2.113  -0.334  -3.433  0.00  0.00    -0.127 NA
ATOM     23  C   UNL     1       1.454   0.118  -4.475  0.00  0.00    +0.183 A 
ATOM     24  N   UNL     1       0.387   0.841  -3.995  0.00  0.00    -0.224 N 
BRANCH  23  25
ATOM     25  C   UNL     1       1.795  -0.108  -5.895  0.00  0.00    +0.039 A 
ATOM     26  C   UNL     1       1.841   0.967  -6.785  0.00  0.00    +0.014 A 
ATOM     27  C   UNL     1       2.164   0.751  -8.108  0.00  0.00    +0.021 A 
ATOM     28  C   UNL     1       2.433  -0.531  -8.558  0.00  0.00    +0.042 A 
ATOM     29  C   UNL     1       2.385  -1.603  -7.683  0.00  0.00    +0.040 A 
ATOM     30  C   UNL     1       2.067  -1.399  -6.355  0.00  0.00    +0.053 A 
ATOM     31 CL   UNL     1       2.006  -2.743  -5.258  0.00  0.00    -0.083 Cl
ATOM     32 CL   UNL     1       2.833  -0.795 -10.226  0.00  0.00    -0.083 Cl
ENDBRANCH  23  25
BRANCH  24  33
ATOM     33  N   UNL     1      -0.565   1.492  -4.727  0.00  0.00    -0.295 N 
ATOM     34  H   UNL     1      -0.525   1.469  -5.826  0.00  0.00    +0.163 HD
ATOM     35  H   UNL     1      -1.373   2.038  -4.217  0.00  0.00    +0.163 HD
ENDBRANCH  24  33
ENDBRANCH  19  20
ENDBRANCH   1  19
TORSDOF 10
