REMARK  Name = ZINC38597846
REMARK  7 active torsions:
REMARK  status: ('A' for Active; 'I' for Inactive)
REMARK    1  A    between atoms: C_3  and  C_6
REMARK    2  A    between atoms: C_6  and  C_8
REMARK    3  A    between atoms: C_6  and  N_21
REMARK    4  A    between atoms: C_8  and  N_9
REMARK    5  A    between atoms: N_9  and  S_10
REMARK    6  A    between atoms: S_10  and  C_13
REMARK    7  A    between atoms: N_24  and  C_27
REMARK                            x       y       z     vdW  Elec       q    Type
REMARK                         _______ _______ _______ _____ _____    ______ ____
ROOT
ATOM      1  C   UNL     1       3.600   0.690   0.111  0.00  0.00    +0.015 C 
ENDROOT
BRANCH   1   2
ATOM      2  N   UNL     1       3.941  -0.305   1.137  0.00  0.00    +0.389 N 
ATOM      3  C   UNL     1       3.389  -1.610   0.753  0.00  0.00    -0.059 C 
ATOM      4  C   UNL     1       3.841  -2.671   1.762  0.00  0.00    +0.086 C 
ATOM      5  N   UNL     1       3.459  -2.224   3.111  0.00  0.00    -0.333 N 
ATOM      6  C   UNL     1       3.832  -0.861   3.520  0.00  0.00    +0.086 C 
ATOM      7  C   UNL     1       3.381   0.115   2.428  0.00  0.00    -0.059 C 
ATOM      8  H   UNL     1       4.945  -0.376   1.215  0.00  0.00    -0.081 HD
BRANCH   5   9
ATOM      9  C   UNL     1       2.763  -3.070   3.979  0.00  0.00    +0.030 A 
ATOM     10  C   UNL     1       2.524  -4.390   3.620  0.00  0.00    +0.026 A 
ATOM     11  C   UNL     1       1.836  -5.225   4.480  0.00  0.00    +0.040 A 
ATOM     12  C   UNL     1       1.385  -4.746   5.698  0.00  0.00    +0.124 A 
ATOM     13  C   UNL     1       1.623  -3.430   6.058  0.00  0.00    +0.040 A 
ATOM     14  C   UNL     1       2.314  -2.594   5.204  0.00  0.00    +0.026 A 
ATOM     15  F   UNL     1       0.713  -5.564   6.537  0.00  0.00    -0.205 F 
ENDBRANCH   5   9
ENDBRANCH   1   2
BRANCH   1  18
ATOM     16  C   UNL     1       0.065   1.722  -0.020  0.00  0.00    +0.041 A 
ATOM     17  C   UNL     1       1.444   2.030   0.042  0.00  0.00    +0.043 A 
ATOM     18  C   UNL     1       2.104   0.858   0.052  0.00  0.00    +0.093 A 
ATOM     19  O   UNL     1       1.203  -0.137  -0.001  0.00  0.00    -0.469 OA
ATOM     20  C   UNL     1      -0.035   0.381  -0.045  0.00  0.00    +0.195 A 
ENDBRANCH   1  18
BRANCH   1  21
ATOM     21  C   UNL     1       4.115   0.215  -1.250  0.00  0.00    +0.098 C 
BRANCH  21  22
ATOM     22  N   UNL     1       5.556  -0.037  -1.166  0.00  0.00    -0.191 NA
ATOM     23  H   UNL     1       6.063   0.297  -0.410  0.00  0.00    +0.148 HD
BRANCH  22  24
ATOM     24  S   UNL     1       6.317  -0.892  -2.363  0.00  0.00    +0.060 S 
ATOM     25  O   UNL     1       7.693  -0.943  -2.012  0.00  0.00    -0.153 OA
ATOM     26  O   UNL     1       5.542  -2.063  -2.581  0.00  0.00    -0.153 OA
BRANCH  24  27
ATOM     27  C   UNL     1       6.208   0.066  -3.837  0.00  0.00    +0.125 A 
ATOM     28  C   UNL     1       7.356   0.567  -4.423  0.00  0.00    +0.050 A 
ATOM     29  C   UNL     1       7.271   1.319  -5.580  0.00  0.00    +0.043 A 
ATOM     30  C   UNL     1       6.037   1.570  -6.153  0.00  0.00    +0.021 A 
ATOM     31  C   UNL     1       4.889   1.070  -5.568  0.00  0.00    +0.023 A 
ATOM     32  C   UNL     1       4.975   0.313  -4.413  0.00  0.00    +0.067 A 
ATOM     33 CL   UNL     1       3.534  -0.321  -3.682  0.00  0.00    -0.082 Cl
ATOM     34 CL   UNL     1       8.713   1.947  -6.315  0.00  0.00    -0.083 Cl
ENDBRANCH  24  27
ENDBRANCH  22  24
ENDBRANCH  21  22
ENDBRANCH   1  21
TORSDOF 7
