REMARK  Name = ZINC67295006
REMARK  4 active torsions:
REMARK  status: ('A' for Active; 'I' for Inactive)
REMARK    1  A    between atoms: C_1  and  C_2
REMARK    2  A    between atoms: C_6  and  N_9
REMARK    3  A    between atoms: C_7  and  C_8
REMARK    4  A    between atoms: C_11  and  C_21
REMARK                            x       y       z     vdW  Elec       q    Type
REMARK                         _______ _______ _______ _____ _____    ______ ____
ROOT
ATOM      1  N   UNL     1       0.099  -2.735   2.311  0.00  0.00    -0.325 N 
ATOM      2  C   UNL     1      -0.073  -4.039   2.344  0.00  0.00    +0.212 A 
ATOM      3  C   UNL     1      -0.325  -4.742   3.617  0.00  0.00    +0.098 A 
ATOM      4  C   UNL     1      -1.034  -5.935   3.551  0.00  0.00    +0.030 A 
ATOM      5  C   UNL     1      -1.467  -6.388   2.228  0.00  0.00    +0.019 A 
ATOM      6  C   UNL     1      -2.403  -7.421   2.095  0.00  0.00    +0.026 A 
ATOM      7  C   UNL     1      -2.795  -7.826   0.838  0.00  0.00    +0.019 A 
ATOM      8  C   UNL     1      -2.270  -7.216  -0.292  0.00  0.00    +0.019 A 
ATOM      9  C   UNL     1      -1.346  -6.197  -0.177  0.00  0.00    +0.048 A 
ATOM     10  C   UNL     1      -0.934  -5.774   1.078  0.00  0.00    +0.137 A 
ATOM     11  O   UNL     1      -0.028  -4.779   1.206  0.00  0.00    -0.439 OA
ATOM     12 BR   UNL     1      -4.057  -9.222   0.652  0.00  0.00    -0.050 Br
ATOM     13  H   UNL     1      -0.007  -2.212   3.121  0.00  0.00    +0.169 HD
ENDROOT
BRANCH   3  14
ATOM     14  C   UNL     1       0.153  -4.203   4.901  0.00  0.00    +0.254 C 
ATOM     15  O   UNL     1      -0.152  -4.751   5.943  0.00  0.00    -0.270 OA
ATOM     16  N   UNL     1       0.930  -3.101   4.921  0.00  0.00    -0.266 N 
ATOM     17  C   UNL     1       1.349  -2.567   6.138  0.00  0.00    +0.125 A 
ATOM     18  C   UNL     1       1.335  -3.360   7.280  0.00  0.00    +0.044 A 
ATOM     19  C   UNL     1       1.754  -2.817   8.481  0.00  0.00    +0.005 A 
ATOM     20  C   UNL     1       2.175  -1.494   8.499  0.00  0.00    +0.020 A 
ATOM     21  C   UNL     1       2.163  -0.765   7.327  0.00  0.00    +0.113 A 
ATOM     22  N   UNL     1       1.762  -1.311   6.194  0.00  0.00    -0.240 NA
ATOM     23  H   UNL     1       1.197  -2.681   4.089  0.00  0.00    +0.157 HD
ENDBRANCH   3  14
BRANCH   1  29
ATOM     24  C   UNL     1      -0.736   0.821  -0.948  0.00  0.00    +0.044 C 
ATOM     25  C   UNL     1       0.041  -0.384  -0.481  0.00  0.00    -0.046 A 
ATOM     26  C   UNL     1       1.090  -0.866  -1.244  0.00  0.00    +0.004 A 
ATOM     27  C   UNL     1       1.809  -1.971  -0.823  0.00  0.00    +0.002 A 
ATOM     28  C   UNL     1       1.484  -2.599   0.361  0.00  0.00    +0.026 A 
ATOM     29  C   UNL     1       0.426  -2.118   1.136  0.00  0.00    +0.045 A 
ATOM     30  C   UNL     1      -0.292  -0.998   0.708  0.00  0.00    -0.024 A 
ATOM     31  C   UNL     1      -1.431  -0.468   1.540  0.00  0.00    +0.046 C 
ENDBRANCH   1  29
TORSDOF 2
