REMARK  Name = ZINC38798865
REMARK  11 active torsions:
REMARK  status: ('A' for Active; 'I' for Inactive)
REMARK    1  A    between atoms: C_1  and  C_2
REMARK    2  A    between atoms: C_2  and  C_31
REMARK    3  A    between atoms: C_3  and  C_4
REMARK    4  A    between atoms: C_6  and  C_11
REMARK    5  A    between atoms: C_8  and  C_9
REMARK    6  A    between atoms: C_8  and  C_10
REMARK    7  A    between atoms: N_13  and  C_14
REMARK    8  A    between atoms: C_17  and  C_20
REMARK    9  A    between atoms: C_20  and  C_21
REMARK   10  A    between atoms: N_27  and  C_28
REMARK   11  A    between atoms: C_28  and  C_29
REMARK                            x       y       z     vdW  Elec       q    Type
REMARK                         _______ _______ _______ _____ _____    ______ ____
ROOT
ATOM      1  C   UNL     1       1.275  -4.355   4.417  0.00  0.00    +0.243 C 
ATOM      2  N   UNL     1       2.497  -4.837   5.096  0.00  0.00    -0.221 NA
ATOM      3  C   UNL     1       3.346  -5.596   4.323  0.00  0.00    +0.042 C 
ATOM      4  C   UNL     1       3.092  -5.880   3.056  0.00  0.00    +0.064 C 
ATOM      5  S   UNL     1       1.528  -5.074   2.743  0.00  0.00    -0.088 S 
ENDROOT
BRANCH   1   8
ATOM      6  C   UNL     1       0.108  -2.259   3.991  0.00  0.00    +0.219 C 
ATOM      7  O   UNL     1      -0.877  -2.902   3.695  0.00  0.00    -0.275 OA
ATOM      8  N   UNL     1       1.237  -2.891   4.366  0.00  0.00    -0.287 N 
ATOM      9  H   UNL     1       2.025  -2.377   4.603  0.00  0.00    +0.151 HD
BRANCH   6  11
ATOM     10  C   UNL     1       1.023  -0.055   2.968  0.00  0.00    +0.030 C 
ATOM     11  C   UNL     1       0.069  -0.753   3.939  0.00  0.00    +0.089 C 
ATOM     12  C   UNL     1      -0.476  -0.103   2.664  0.00  0.00    -0.016 C 
ATOM     13  C   UNL     1      -0.939  -1.032   1.540  0.00  0.00    +0.012 C 
ATOM     14  C   UNL     1      -1.270   1.196   2.817  0.00  0.00    +0.012 C 
BRANCH  10  17
ATOM     15  C   UNL     1       3.070   1.112   1.424  0.00  0.00    +0.038 C 
ATOM     16  C   UNL     1       2.882  -0.383   1.419  0.00  0.00    -0.079 C 
ATOM     17  C   UNL     1       1.930  -0.926   2.137  0.00  0.00    -0.023 C 
ATOM     18  C   UNL     1       3.788  -1.253   0.587  0.00  0.00    +0.038 C 
ENDBRANCH  10  17
ENDBRANCH   6  11
ENDBRANCH   1   8
BRANCH   3  19
ATOM     19  C   UNL     1       4.614  -6.125   4.943  0.00  0.00    +0.129 C 
BRANCH  19  20
ATOM     20  C   UNL     1       5.691  -5.075   4.857  0.00  0.00    +0.138 A 
ATOM     21  H   UNL     1       6.972  -2.325   4.150  0.00  0.00    +0.191 HD
ATOM     22  N   UNL     1       5.555  -3.897   4.339  0.00  0.00    -0.158 NA
ATOM     23  N   UNL     1       6.780  -3.226   4.453  0.00  0.00    -0.254 N 
ATOM     24  C   UNL     1       7.642  -4.065   5.064  0.00  0.00    +0.176 A 
ATOM     25  S   UNL     1       9.278  -3.736   5.447  0.00  0.00    -0.011 S 
ATOM     26  N   UNL     1       6.976  -5.209   5.322  0.00  0.00    -0.303 N 
BRANCH  26  27
ATOM     27  C   UNL     1       7.531  -6.393   5.982  0.00  0.00    +0.152 C 
BRANCH  27  28
ATOM     28  C   UNL     1       8.123  -7.315   4.947  0.00  0.00    -0.013 C 
ATOM     29  C   UNL     1       9.370  -7.702   5.052  0.00  0.00    +0.005 C 
ENDBRANCH  27  28
ENDBRANCH  26  27
ENDBRANCH  19  20
ENDBRANCH   3  19
TORSDOF 7
