REMARK  Name = ZINC13112271
REMARK  10 active torsions:
REMARK  status: ('A' for Active; 'I' for Inactive)
REMARK    1  A    between atoms: C_1  and  C_2
REMARK    2  A    between atoms: C_5  and  N_8
REMARK    3  A    between atoms: C_9  and  C_32
REMARK    4  A    between atoms: C_10  and  N_14
REMARK    5  A    between atoms: C_11  and  C_13
REMARK    6  A    between atoms: C_15  and  C_17
REMARK    7  A    between atoms: C_17  and  S_18
REMARK    8  A    between atoms: S_18  and  C_19
REMARK    9  A    between atoms: C_22  and  C_25
REMARK   10  A    between atoms: N_23  and  N_24
REMARK                            x       y       z     vdW  Elec       q    Type
REMARK                         _______ _______ _______ _____ _____    ______ ____
ROOT
ATOM      1  N   UNL     1      -1.612   1.329   2.402  0.00  0.00    -0.282 N 
ATOM      2  C   UNL     1      -1.912   1.191   1.095  0.00  0.00    +0.228 C 
ATOM      3  O   UNL     1      -3.054   1.345   0.716  0.00  0.00    -0.275 OA
ATOM      4  H   UNL     1      -0.688   1.288   2.695  0.00  0.00    +0.155 HD
ENDROOT
BRANCH   1   7
ATOM      5  N   UNL     1      -3.893   1.379   5.134  0.00  0.00    -0.235 N 
ATOM      6  C   UNL     1      -2.776   0.892   4.530  0.00  0.00    +0.063 A 
ATOM      7  C   UNL     1      -2.639   1.534   3.342  0.00  0.00    +0.078 A 
ATOM      8  C   UNL     1      -3.702   2.443   3.220  0.00  0.00    +0.082 A 
ATOM      9  N   UNL     1      -4.452   2.345   4.288  0.00  0.00    -0.170 NA
ATOM     10  C   UNL     1      -3.940   3.371   2.057  0.00  0.00    +0.069 C 
ATOM     11  C   UNL     1      -1.857  -0.169   5.080  0.00  0.00    +0.068 C 
BRANCH   5  16
ATOM     12  C   UNL     1      -5.930  -0.221  10.184  0.00  0.00    +0.044 C 
ATOM     13  C   UNL     1      -5.389   0.204   8.843  0.00  0.00    -0.050 A 
ATOM     14  C   UNL     1      -4.028   0.370   8.670  0.00  0.00    +0.005 A 
ATOM     15  C   UNL     1      -3.529   0.760   7.442  0.00  0.00    +0.028 A 
ATOM     16  C   UNL     1      -4.396   0.984   6.381  0.00  0.00    +0.066 A 
ATOM     17  C   UNL     1      -5.764   0.822   6.560  0.00  0.00    +0.028 A 
ATOM     18  C   UNL     1      -6.256   0.426   7.789  0.00  0.00    +0.005 A 
ENDBRANCH   5  16
ENDBRANCH   1   7
BRANCH   2  19
ATOM     19  C   UNL     1      -0.829   0.846   0.106  0.00  0.00    +0.173 C 
BRANCH  19  20
ATOM     20  S   UNL     1      -1.542   0.732  -1.554  0.00  0.00    -0.075 S 
BRANCH  20  21
ATOM     21  C   UNL     1      -0.098   0.330  -2.480  0.00  0.00    +0.209 A 
ATOM     22  N   UNL     1       1.118   0.183  -2.003  0.00  0.00    -0.121 NA
ATOM     23  N   UNL     1       1.931  -0.113  -2.953  0.00  0.00    -0.127 NA
ATOM     24  C   UNL     1       1.287  -0.164  -4.096  0.00  0.00    +0.182 A 
ATOM     25  N   UNL     1      -0.033   0.118  -3.827  0.00  0.00    -0.224 N 
BRANCH  24  26
ATOM     26  C   UNL     1       1.869  -0.466  -5.420  0.00  0.00    +0.022 A 
ATOM     27  C   UNL     1       1.175  -0.130  -6.584  0.00  0.00    +0.012 A 
ATOM     28  C   UNL     1       1.724  -0.415  -7.818  0.00  0.00    +0.002 A 
ATOM     29  C   UNL     1       2.959  -1.032  -7.903  0.00  0.00    +0.020 A 
ATOM     30  C   UNL     1       3.652  -1.369  -6.753  0.00  0.00    +0.042 A 
ATOM     31  C   UNL     1       3.117  -1.084  -5.513  0.00  0.00    +0.031 A 
ATOM     32 CL   UNL     1       5.202  -2.143  -6.871  0.00  0.00    -0.084 Cl
ENDBRANCH  24  26
BRANCH  25  33
ATOM     33  N   UNL     1      -1.063   0.175  -4.723  0.00  0.00    -0.295 N 
ATOM     34  H   UNL     1      -1.175   1.110  -5.086  0.00  0.00    +0.163 HD
ATOM     35  H   UNL     1      -0.930  -0.489  -5.470  0.00  0.00    +0.163 HD
ENDBRANCH  25  33
ENDBRANCH  20  21
ENDBRANCH  19  20
ENDBRANCH   2  19
TORSDOF 7
