REMARK  Name = ZINC40780304
REMARK  7 active torsions:
REMARK  status: ('A' for Active; 'I' for Inactive)
REMARK    1  A    between atoms: C_1  and  O_2
REMARK    2  A    between atoms: O_2  and  C_3
REMARK    3  A    between atoms: C_5  and  O_28
REMARK    4  A    between atoms: C_8  and  N_9
REMARK    5  A    between atoms: C_11  and  N_26
REMARK    6  A    between atoms: C_12  and  N_16
REMARK    7  A    between atoms: O_28  and  C_29
REMARK                            x       y       z     vdW  Elec       q    Type
REMARK                         _______ _______ _______ _____ _____    ______ ____
ROOT
ATOM      1  N   UNL     1       0.109  -2.779  -0.084  0.00  0.00    -0.296 N 
ATOM      2  C   UNL     1       0.065  -4.161  -0.219  0.00  0.00    +0.126 A 
ATOM      3  C   UNL     1      -0.595  -4.945   0.730  0.00  0.00    +0.104 A 
ATOM      4  C   UNL     1      -0.610  -6.329   0.546  0.00  0.00    +0.151 A 
ATOM      5  N   UNL     1       0.001  -6.845  -0.518  0.00  0.00    -0.220 NA
ATOM      6  C   UNL     1       0.612  -6.069  -1.390  0.00  0.00    +0.200 A 
ATOM      7  N   UNL     1       0.645  -4.758  -1.257  0.00  0.00    -0.333 N 
ATOM      8  H   UNL     1      -0.240  -2.358   0.717  0.00  0.00    +0.154 HD
ATOM      9  H   UNL     1       1.102  -4.222  -1.924  0.00  0.00    +0.168 HD
ENDROOT
BRANCH   4  10
ATOM     10  N   UNL     1      -1.252  -7.156   1.462  0.00  0.00    -0.283 N 
ATOM     11  C   UNL     1      -2.691  -7.426   1.342  0.00  0.00    +0.113 C 
ATOM     12  C   UNL     1      -3.309  -7.304   2.741  0.00  0.00    +0.024 C 
ATOM     13  C   UNL     1      -2.703  -8.379   3.644  0.00  0.00    +0.038 C 
ATOM     14  C   UNL     1      -1.199  -8.338   3.576  0.00  0.00    -0.026 A 
ATOM     15  C   UNL     1      -0.537  -7.750   2.508  0.00  0.00    +0.038 A 
ATOM     16  C   UNL     1       0.853  -7.738   2.471  0.00  0.00    +0.024 A 
ATOM     17  C   UNL     1       1.577  -8.315   3.495  0.00  0.00    +0.002 A 
ATOM     18  C   UNL     1       0.918  -8.905   4.558  0.00  0.00    +0.000 A 
ATOM     19  C   UNL     1      -0.467  -8.909   4.603  0.00  0.00    +0.005 A 
ENDBRANCH   4  10
BRANCH   1  25
ATOM     20  C   UNL     1       0.029  -1.921  -2.347  0.00  0.00    +0.145 A 
ATOM     21  C   UNL     1       0.571  -1.139  -3.353  0.00  0.00    +0.094 A 
ATOM     22  C   UNL     1       1.742  -0.432  -3.127  0.00  0.00    +0.142 A 
ATOM     23  C   UNL     1       2.372  -0.508  -1.892  0.00  0.00    +0.084 A 
ATOM     24  C   UNL     1       1.834  -1.288  -0.886  0.00  0.00    +0.050 A 
ATOM     25  C   UNL     1       0.659  -1.992  -1.107  0.00  0.00    +0.076 A 
ATOM     26 CL   UNL     1       3.838   0.378  -1.611  0.00  0.00    -0.080 Cl
BRANCH  20  28
ATOM     27  C   UNL     1      -1.711  -2.495  -3.863  0.00  0.00    +0.277 C 
ATOM     28  O   UNL     1      -1.120  -2.615  -2.568  0.00  0.00    -0.493 OA
ENDBRANCH  20  28
BRANCH  22  29
ATOM     29  O   UNL     1       2.275   0.336  -4.115  0.00  0.00    -0.494 OA
ATOM     30  C   UNL     1       1.575   0.367  -5.360  0.00  0.00    +0.277 C 
ENDBRANCH  22  29
ENDBRANCH   1  25
BRANCH   3  31
ATOM     31  N   UNL     1      -1.226  -4.358   1.838  0.00  0.00    -0.353 N 
ATOM     32  H   UNL     1      -1.272  -3.392   1.914  0.00  0.00    +0.143 HD
ATOM     33  H   UNL     1      -1.615  -4.918   2.528  0.00  0.00    +0.143 HD
ENDBRANCH   3  31
TORSDOF 5
