REMARK  Name = ZINC03359548
REMARK  6 active torsions:
REMARK  status: ('A' for Active; 'I' for Inactive)
REMARK    1  A    between atoms: C_1  and  C_2
REMARK    2  A    between atoms: C_2  and  C_4
REMARK    3  A    between atoms: C_2  and  S_24
REMARK    4  A    between atoms: C_7  and  C_19
REMARK    5  A    between atoms: C_10  and  C_12
REMARK    6  A    between atoms: S_24  and  C_25
REMARK                            x       y       z     vdW  Elec       q    Type
REMARK                         _______ _______ _______ _____ _____    ______ ____
ROOT
ATOM      1  C   UNL     1       0.731  -0.503   1.223  0.00  0.00    +0.246 C 
ATOM      2  O   UNL     1       0.105  -0.891   2.187  0.00  0.00    -0.273 OA
ATOM      3  N   UNL     1       2.079  -0.519   1.244  0.00  0.00    -0.207 N 
ATOM      4  C   UNL     1       2.942  -0.976   2.345  0.00  0.00    +0.187 C 
ATOM      5  C   UNL     1       4.352  -0.775   1.837  0.00  0.00    +0.030 C 
ATOM      6  C   UNL     1       4.264  -0.270   0.610  0.00  0.00    +0.050 C 
ATOM      7  N   UNL     1       2.942  -0.108   0.220  0.00  0.00    -0.261 N 
ATOM      8  H   UNL     1       2.657   0.242  -0.639  0.00  0.00    +0.170 HD
ENDROOT
BRANCH   6   9
ATOM      9  C   UNL     1       5.431   0.072  -0.236  0.00  0.00    -0.003 A 
ATOM     10  C   UNL     1       6.726  -0.137   0.240  0.00  0.00    +0.011 A 
ATOM     11  C   UNL     1       7.809   0.183  -0.552  0.00  0.00    +0.020 A 
ATOM     12  C   UNL     1       7.613   0.710  -1.817  0.00  0.00    +0.041 A 
ATOM     13  C   UNL     1       6.330   0.919  -2.295  0.00  0.00    +0.020 A 
ATOM     14  C   UNL     1       5.239   0.598  -1.513  0.00  0.00    +0.011 A 
ATOM     15 CL   UNL     1       8.980   1.111  -2.809  0.00  0.00    -0.084 Cl
ENDBRANCH   6   9
BRANCH   4  16
ATOM     16  C   UNL     1       2.702  -0.146   3.580  0.00  0.00    +0.131 A 
ATOM     17  C   UNL     1       2.656  -0.609   4.842  0.00  0.00    +0.047 A 
ATOM     18  C   UNL     1       2.410   0.505   5.678  0.00  0.00    +0.041 A 
ATOM     19  C   UNL     1       2.321   1.582   4.876  0.00  0.00    +0.195 A 
ATOM     20  O   UNL     1       2.505   1.182   3.607  0.00  0.00    -0.466 OA
ENDBRANCH   4  16
BRANCH   1  22
ATOM     21  C   UNL     1      -0.019   1.526   0.010  0.00  0.00    +0.029 C 
ATOM     22  C   UNL     1       0.002  -0.004   0.002  0.00  0.00    +0.138 C 
BRANCH  22  23
ATOM     23  S   UNL     1      -1.700  -0.632   0.015  0.00  0.00    -0.084 S 
BRANCH  23  24
ATOM     24  C   UNL     1      -2.365  -0.093  -1.525  0.00  0.00    +0.161 A 
ATOM     25  N   UNL     1      -1.787   0.599  -2.489  0.00  0.00    -0.133 NA
ATOM     26  N   UNL     1      -2.498   0.916  -3.623  0.00  0.00    -0.125 NA
ATOM     27  C   UNL     1      -3.752   0.527  -3.743  0.00  0.00    +0.180 A 
ATOM     28  S   UNL     1      -3.998  -0.345  -2.204  0.00  0.00    -0.025 S 
ATOM     29  N   UNL     1      -4.643   0.735  -4.789  0.00  0.00    -0.336 N 
ATOM     30  H   UNL     1      -4.362   1.231  -5.574  0.00  0.00    +0.144 HD
ATOM     31  H   UNL     1      -5.545   0.384  -4.735  0.00  0.00    +0.144 HD
ENDBRANCH  23  24
ENDBRANCH  22  23
ENDBRANCH   1  22
TORSDOF 5
