REMARK  Name = ZINC09202040
REMARK  2 active torsions:
REMARK  status: ('A' for Active; 'I' for Inactive)
REMARK    1  A    between atoms: C_5  and  C_7
REMARK    2  A    between atoms: C_14  and  C_15
REMARK                            x       y       z     vdW  Elec       q    Type
REMARK                         _______ _______ _______ _____ _____    ______ ____
ROOT
ATOM      1  C   UNL     1       1.127  -1.985  -0.049  0.00  0.00    +0.179 C 
ATOM      2  C   UNL     1       0.364  -2.593  -1.195  0.00  0.00    +0.036 A 
ATOM      3  C   UNL     1      -0.870  -3.198  -1.025  0.00  0.00    +0.110 A 
ATOM      4  C   UNL     1      -1.509  -3.732  -2.150  0.00  0.00    +0.310 A 
ATOM      5  N   UNL     1      -0.923  -3.649  -3.333  0.00  0.00    -0.104 NA
ATOM      6  N   UNL     1       0.222  -3.092  -3.493  0.00  0.00    -0.145 NA
ATOM      7  C   UNL     1       0.900  -2.557  -2.486  0.00  0.00    +0.101 A 
ATOM      8  O   UNL     1      -2.722  -4.331  -2.029  0.00  0.00    -0.262 OA
ATOM      9  N   UNL     1      -1.472  -3.288   0.234  0.00  0.00    -0.278 N 
ATOM     10  C   UNL     1      -0.684  -2.992   1.335  0.00  0.00    +0.240 A 
ATOM     11  N   UNL     1       0.526  -2.391   1.215  0.00  0.00    -0.201 N 
ATOM     12  N   UNL     1       1.009  -2.270   2.519  0.00  0.00    -0.042 NA
ATOM     13  N   UNL     1       0.104  -2.772   3.295  0.00  0.00    -0.021 NA
ATOM     14  N   UNL     1      -0.893  -3.196   2.606  0.00  0.00    -0.092 NA
ATOM     15  H   UNL     1      -2.402  -3.548   0.333  0.00  0.00    +0.155 HD
ENDROOT
BRANCH   1  20
ATOM     16  C   UNL     1      -0.164   1.547  -0.390  0.00  0.00    +0.001 A 
ATOM     17  C   UNL     1       1.012   2.275  -0.372  0.00  0.00    +0.003 A 
ATOM     18  C   UNL     1       2.225   1.625  -0.250  0.00  0.00    +0.039 A 
ATOM     19  C   UNL     1       2.264   0.245  -0.145  0.00  0.00    +0.129 A 
ATOM     20  C   UNL     1       1.086  -0.483  -0.163  0.00  0.00    +0.017 A 
ATOM     21  C   UNL     1      -0.127   0.169  -0.285  0.00  0.00    +0.009 A 
ATOM     22  F   UNL     1       3.450  -0.391  -0.025  0.00  0.00    -0.205 F 
ENDBRANCH   1  20
BRANCH   7  23
ATOM     23  C   UNL     1       2.220  -1.925  -2.728  0.00  0.00    +0.003 A 
ATOM     24  C   UNL     1       3.317  -2.275  -1.944  0.00  0.00    +0.013 A 
ATOM     25  C   UNL     1       4.543  -1.684  -2.172  0.00  0.00    +0.039 A 
ATOM     26  C   UNL     1       4.684  -0.743  -3.180  0.00  0.00    +0.123 A 
ATOM     27  C   UNL     1       3.595  -0.392  -3.962  0.00  0.00    +0.039 A 
ATOM     28  C   UNL     1       2.367  -0.982  -3.744  0.00  0.00    +0.013 A 
ATOM     29  F   UNL     1       5.885  -0.167  -3.401  0.00  0.00    -0.205 F 
ENDBRANCH   7  23
TORSDOF 2
