REMARK  Name = ZINC08648416
REMARK  4 active torsions:
REMARK  status: ('A' for Active; 'I' for Inactive)
REMARK    1  A    between atoms: C_6  and  S_7
REMARK    2  A    between atoms: S_7  and  N_10
REMARK    3  A    between atoms: N_14  and  C_17
REMARK    4  A    between atoms: C_20  and  C_22
REMARK                            x       y       z     vdW  Elec       q    Type
REMARK                         _______ _______ _______ _____ _____    ______ ____
ROOT
ATOM      1  N   UNL     1       1.055  -6.245   0.001  0.00  0.00    -0.106 NA
ATOM      2  S   UNL     1       0.616  -5.013  -0.720  0.00  0.00    -0.070 S 
ATOM      3  C   UNL     1      -0.241  -4.038   0.555  0.00  0.00    +0.102 C 
ATOM      4  C   UNL     1      -0.261  -2.572   0.109  0.00  0.00    +0.118 C 
ATOM      5  N   UNL     1       1.111  -2.073  -0.020  0.00  0.00    -0.314 N 
ATOM      6  C   UNL     1       1.795  -2.606  -1.201  0.00  0.00    +0.118 C 
ATOM      7  C   UNL     1       2.157  -4.078  -0.972  0.00  0.00    +0.102 C 
ENDROOT
BRANCH   5   8
ATOM      8  C   UNL     1       1.138  -0.683  -0.013  0.00  0.00    +0.118 A 
ATOM      9  C   UNL     1       1.802  -0.011   1.011  0.00  0.00    +0.079 A 
ATOM     10  C   UNL     1       1.822   1.372   1.006  0.00  0.00    +0.037 A 
ATOM     11  C   UNL     1       1.175   2.040  -0.027  0.00  0.00    +0.072 A 
ATOM     12  C   UNL     1       0.537   1.310  -1.009  0.00  0.00    +0.096 A 
ATOM     13 CL   UNL     1       2.593  -0.898   2.277  0.00  0.00    -0.080 Cl
ATOM     14  N   UNL     1       0.497  -0.049  -1.036  0.00  0.00    -0.348 N 
ATOM     15  H   UNL     1       0.014  -0.566  -1.780  0.00  0.00    +0.167 HD
BRANCH  11  16
ATOM     16  C   UNL     1       1.171   3.546  -0.074  0.00  0.00    +0.419 C 
ATOM     17  F   UNL     1       0.461   3.976  -1.200  0.00  0.00    -0.166 F 
ATOM     18  F   UNL     1       0.561   4.047   1.081  0.00  0.00    -0.166 F 
ATOM     19  F   UNL     1       2.488   4.014  -0.146  0.00  0.00    -0.166 F 
ENDBRANCH  11  16
ENDBRANCH   5   8
BRANCH   1  20
ATOM     20  S   UNL     1       1.890  -7.425  -0.807  0.00  0.00    +0.104 S 
ATOM     21  O   UNL     1       0.994  -7.973  -1.765  0.00  0.00    -0.146 OA
ATOM     22  O   UNL     1       3.142  -6.860  -1.172  0.00  0.00    -0.146 OA
BRANCH  20  28
ATOM     23  C   UNL     1       3.404  -8.678   1.087  0.00  0.00    +0.030 A 
ATOM     24  C   UNL     1       3.672  -9.680   2.000  0.00  0.00    +0.022 A 
ATOM     25  C   UNL     1       2.774 -10.719   2.170  0.00  0.00    +0.041 A 
ATOM     26  C   UNL     1       1.606 -10.750   1.429  0.00  0.00    +0.022 A 
ATOM     27  C   UNL     1       1.336  -9.745   0.521  0.00  0.00    +0.030 A 
ATOM     28  C   UNL     1       2.234  -8.707   0.351  0.00  0.00    +0.113 A 
ATOM     29 CL   UNL     1       3.113 -11.981   3.312  0.00  0.00    -0.084 Cl
ENDBRANCH  20  28
ENDBRANCH   1  20
TORSDOF 4
