REMARK  Name = ZINC20203504
REMARK  6 active torsions:
REMARK  status: ('A' for Active; 'I' for Inactive)
REMARK    1  A    between atoms: C_1  and  C_2
REMARK    2  A    between atoms: C_11  and  C_21
REMARK    3  A    between atoms: C_21  and  N_22
REMARK    4  A    between atoms: N_22  and  C_23
REMARK    5  A    between atoms: C_28  and  C_30
REMARK    6  A    between atoms: C_28  and  C_31
REMARK                            x       y       z     vdW  Elec       q    Type
REMARK                         _______ _______ _______ _____ _____    ______ ____
ROOT
ATOM      1  C   UNL     1      -6.668  -2.767   1.575  0.00  0.00    +0.109 C 
ATOM      2  C   UNL     1      -6.600  -2.070   0.241  0.00  0.00    +0.213 C 
ATOM      3  O   UNL     1      -6.903  -2.666  -0.771  0.00  0.00    -0.276 OA
ATOM      4  N   UNL     1      -6.203  -0.784   0.172  0.00  0.00    -0.299 N 
ATOM      5  C   UNL     1      -6.032  -0.116  -1.127  0.00  0.00    +0.126 C 
ATOM      6  C   UNL     1      -4.645   0.536  -1.161  0.00  0.00    +0.125 C 
ATOM      7  N   UNL     1      -4.489   1.407   0.012  0.00  0.00    -0.312 N 
ATOM      8  C   UNL     1      -4.547   0.636   1.260  0.00  0.00    +0.125 C 
ATOM      9  C   UNL     1      -5.930  -0.011   1.393  0.00  0.00    +0.126 C 
ATOM     10  C   UNL     1      -3.313   2.138  -0.066  0.00  0.00    +0.123 A 
ATOM     11  C   UNL     1      -3.370   3.537   0.019  0.00  0.00    -0.024 A 
ATOM     12  C   UNL     1      -2.223   4.269  -0.056  0.00  0.00    +0.015 A 
ATOM     13  C   UNL     1      -1.002   3.583  -0.220  0.00  0.00    +0.001 A 
ATOM     14  C   UNL     1       0.216   4.275  -0.305  0.00  0.00    +0.011 A 
ATOM     15  C   UNL     1       1.376   3.580  -0.463  0.00  0.00    +0.021 A 
ATOM     16  C   UNL     1       1.371   2.188  -0.542  0.00  0.00    +0.043 A 
ATOM     17  C   UNL     1       0.206   1.486  -0.462  0.00  0.00    +0.048 A 
ATOM     18  C   UNL     1      -1.012   2.169  -0.304  0.00  0.00    +0.074 A 
ATOM     19  N   UNL     1      -2.169   1.503  -0.219  0.00  0.00    -0.232 NA
ATOM     20 CL   UNL     1       2.870   1.337  -0.744  0.00  0.00    -0.083 Cl
ENDROOT
BRANCH  11  21
ATOM     21  C   UNL     1      -4.697   4.229   0.193  0.00  0.00    -0.043 C 
BRANCH  21  22
ATOM     22  N   UNL     1      -5.154   4.071   1.581  0.00  0.00    +0.384 N 
ATOM     23  H   UNL     1      -5.181   3.002   1.837  0.00  0.00    -0.085 HD
ATOM     24  H   UNL     1      -4.460   4.593   2.257  0.00  0.00    -0.085 HD
BRANCH  22  25
ATOM     25  C   UNL     1      -6.499   4.633   1.759  0.00  0.00    -0.067 C 
ATOM     26  C   UNL     1      -6.393   6.136   2.036  0.00  0.00    +0.012 C 
ATOM     27  C   UNL     1      -7.793   6.699   2.299  0.00  0.00    +0.159 C 
ATOM     28  O   UNL     1      -8.386   6.002   3.397  0.00  0.00    -0.374 OA
ATOM     29  C   UNL     1      -8.553   4.600   3.176  0.00  0.00    +0.063 C 
ATOM     30  C   UNL     1      -7.185   3.953   2.948  0.00  0.00    +0.019 C 
ATOM     31  C   UNL     1      -9.220   3.967   4.399  0.00  0.00    +0.041 C 
ATOM     32  C   UNL     1      -9.434   4.379   1.944  0.00  0.00    +0.041 C 
ENDBRANCH  22  25
ENDBRANCH  21  22
ENDBRANCH  11  21
TORSDOF 3
