REMARK  Name = ZINC34888290
REMARK  2 active torsions:
REMARK  status: ('A' for Active; 'I' for Inactive)
REMARK    1  A    between atoms: C_1  and  C_2
REMARK    2  A    between atoms: N_24  and  C_27
REMARK                            x       y       z     vdW  Elec       q    Type
REMARK                         _______ _______ _______ _____ _____    ______ ____
ROOT
ATOM      1  C   UNL     1       1.061   1.672   0.827  0.00  0.00    +0.047 C 
ATOM      2  C   UNL     1       0.864   0.192   0.622  0.00  0.00    -0.011 A 
ATOM      3  C   UNL     1       0.875  -0.333  -0.655  0.00  0.00    +0.046 A 
ATOM      4  C   UNL     1       0.695  -1.691  -0.853  0.00  0.00    +0.021 A 
ATOM      5  C   UNL     1       0.503  -2.525   0.234  0.00  0.00    +0.009 A 
ATOM      6  C   UNL     1       0.490  -2.005   1.508  0.00  0.00    +0.004 A 
ATOM      7  C   UNL     1       0.676  -0.642   1.721  0.00  0.00    +0.043 A 
ATOM      8  N   UNL     1       0.631  -0.356   3.087  0.00  0.00    -0.283 N 
ATOM      9  C   UNL     1       0.427  -1.460   3.831  0.00  0.00    +0.243 C 
ATOM     10  O   UNL     1       0.342  -1.513   5.039  0.00  0.00    -0.273 OA
ATOM     11  C   UNL     1       0.311  -2.613   2.871  0.00  0.00    +0.138 C 
ATOM     12  C   UNL     1      -1.040  -3.327   2.992  0.00  0.00    +0.123 C 
ATOM     13  C   UNL     1      -0.753  -4.565   3.885  0.00  0.00    +0.107 C 
ATOM     14  C   UNL     1       0.751  -4.488   4.209  0.00  0.00    +0.071 C 
ATOM     15  N   UNL     1       1.342  -3.629   3.147  0.00  0.00    -0.281 NA
ATOM     16  C   UNL     1       1.478  -4.536   1.983  0.00  0.00    +0.086 C 
ATOM     17  C   UNL     1       1.886  -5.899   2.578  0.00  0.00    +0.017 C 
ATOM     18  C   UNL     1       1.379  -5.885   4.046  0.00  0.00    +0.021 C 
ATOM     19  C   UNL     1      -1.564  -4.293   5.131  0.00  0.00    +0.232 C 
ATOM     20  O   UNL     1      -1.625  -5.019   6.100  0.00  0.00    -0.274 OA
ATOM     21  N   UNL     1      -2.204  -3.125   4.998  0.00  0.00    -0.210 N 
ATOM     22  C   UNL     1      -1.986  -2.491   3.824  0.00  0.00    +0.233 C 
ATOM     23  O   UNL     1      -2.464  -1.429   3.486  0.00  0.00    -0.274 OA
ATOM     24 CL   UNL     1       1.116   0.715  -2.018  0.00  0.00    -0.083 Cl
ATOM     25  H   UNL     1       0.735   0.535   3.457  0.00  0.00    +0.155 HD
ENDROOT
BRANCH  21  26
ATOM     26  C   UNL     1      -3.041  -2.601   5.995  0.00  0.00    +0.045 A 
ATOM     27  C   UNL     1      -2.502  -2.182   7.204  0.00  0.00    +0.027 A 
ATOM     28  C   UNL     1      -3.327  -1.665   8.184  0.00  0.00    +0.041 A 
ATOM     29  C   UNL     1      -4.690  -1.565   7.962  0.00  0.00    +0.142 A 
ATOM     30  C   UNL     1      -5.229  -1.982   6.756  0.00  0.00    +0.078 A 
ATOM     31  C   UNL     1      -4.406  -2.495   5.771  0.00  0.00    +0.046 A 
ATOM     32 CL   UNL     1      -6.938  -1.856   6.480  0.00  0.00    -0.081 Cl
ATOM     33  F   UNL     1      -5.495  -1.060   8.922  0.00  0.00    -0.204 F 
ENDBRANCH  21  26
TORSDOF 1
