REMARK  Name = ZINC03872132
REMARK  10 active torsions:
REMARK  status: ('A' for Active; 'I' for Inactive)
REMARK    1  A    between atoms: C_1  and  N_2
REMARK    2  A    between atoms: N_2  and  C_3
REMARK    3  A    between atoms: C_9  and  O_27
REMARK    4  A    between atoms: C_10  and  O_25
REMARK    5  A    between atoms: C_11  and  O_23
REMARK    6  A    between atoms: C_18  and  O_21
REMARK    7  A    between atoms: O_21  and  C_22
REMARK    8  A    between atoms: O_23  and  C_24
REMARK    9  A    between atoms: O_25  and  C_26
REMARK   10  A    between atoms: O_27  and  C_28
REMARK                            x       y       z     vdW  Elec       q    Type
REMARK                         _______ _______ _______ _____ _____    ______ ____
ROOT
ATOM      1  C   UNL     1      -1.303  -0.511  -0.139  0.00  0.00    -0.040 C 
ATOM      2  C   UNL     1      -1.321  -2.017  -0.307  0.00  0.00    -0.007 C 
ATOM      3  C   UNL     1      -2.656  -2.604   0.143  0.00  0.00    +0.035 C 
ATOM      4  C   UNL     1      -3.787  -1.762  -0.390  0.00  0.00    -0.033 A 
ATOM      5  C   UNL     1      -4.530  -2.200  -1.467  0.00  0.00    +0.054 A 
ATOM      6  C   UNL     1      -5.578  -1.426  -1.948  0.00  0.00    +0.165 A 
ATOM      7  C   UNL     1      -5.885  -0.208  -1.350  0.00  0.00    +0.204 A 
ATOM      8  C   UNL     1      -5.138   0.240  -0.269  0.00  0.00    +0.173 A 
ATOM      9  C   UNL     1      -4.082  -0.542   0.208  0.00  0.00    +0.031 A 
ATOM     10  C   UNL     1      -3.258  -0.053   1.353  0.00  0.00    -0.012 A 
ATOM     11  C   UNL     1      -1.870  -0.090   1.202  0.00  0.00    -0.050 A 
ATOM     12  C   UNL     1      -0.976   0.219   2.157  0.00  0.00    +0.057 A 
ATOM     13  C   UNL     1      -1.105   0.654   3.446  0.00  0.00    +0.220 A 
ATOM     14  O   UNL     1      -0.062   0.769   4.075  0.00  0.00    -0.284 OA
ATOM     15  C   UNL     1      -2.267   0.985   4.135  0.00  0.00    +0.167 A 
ATOM     16  C   UNL     1      -3.533   0.857   3.655  0.00  0.00    +0.050 A 
ATOM     17  C   UNL     1      -3.939   0.397   2.455  0.00  0.00    +0.012 A 
ENDROOT
BRANCH   1  19
ATOM     18  C   UNL     1       0.589  -0.298  -1.597  0.00  0.00    -0.100 C 
ATOM     19  N   UNL     1       0.082  -0.034  -0.244  0.00  0.00    +0.382 N 
ATOM     20  H   UNL     1       0.656  -0.517   0.431  0.00  0.00    -0.085 HD
ATOM     21  H   UNL     1       0.111   0.958  -0.061  0.00  0.00    -0.085 HD
ENDBRANCH   1  19
BRANCH  15  22
ATOM     22  O   UNL     1      -2.126   1.475   5.391  0.00  0.00    -0.491 OA
ATOM     23  C   UNL     1      -3.323   1.812   6.094  0.00  0.00    +0.277 C 
ENDBRANCH  15  22
BRANCH   8  24
ATOM     24  O   UNL     1      -5.432   1.428   0.321  0.00  0.00    -0.491 OA
ATOM     25  C   UNL     1      -4.856   2.600  -0.259  0.00  0.00    +0.277 C 
ENDBRANCH   8  24
BRANCH   7  26
ATOM     26  O   UNL     1      -6.916   0.543  -1.825  0.00  0.00    -0.488 OA
ATOM     27  C   UNL     1      -8.205   0.309  -1.256  0.00  0.00    +0.277 C 
ENDBRANCH   7  26
BRANCH   6  28
ATOM     28  O   UNL     1      -6.307  -1.861  -3.010  0.00  0.00    -0.491 OA
ATOM     29  C   UNL     1      -5.939  -3.119  -3.578  0.00  0.00    +0.277 C 
ENDBRANCH   6  28
TORSDOF 5
