REMARK  Name = ZINC66246157
REMARK  9 active torsions:
REMARK  status: ('A' for Active; 'I' for Inactive)
REMARK    1  A    between atoms: C_1  and  C_2
REMARK    2  A    between atoms: C_2  and  N_3
REMARK    3  A    between atoms: N_5  and  C_6
REMARK    4  A    between atoms: C_6  and  C_7
REMARK    5  A    between atoms: N_8  and  C_9
REMARK    6  A    between atoms: C_9  and  C_10
REMARK    7  A    between atoms: C_10  and  C_11
REMARK    8  A    between atoms: C_11  and  N_12
REMARK    9  A    between atoms: C_13  and  C_15
REMARK                            x       y       z     vdW  Elec       q    Type
REMARK                         _______ _______ _______ _____ _____    ______ ____
ROOT
ATOM      1  C   UNL     1       2.181  -3.819  -4.253  0.00  0.00    +0.040 C 
ENDROOT
BRANCH   1   2
ATOM      2  C   UNL     1       1.530  -3.634  -2.881  0.00  0.00    +0.117 C 
BRANCH   2   6
ATOM      3  N   UNL     1       0.358  -2.683  -0.556  0.00  0.00    -0.358 N 
ATOM      4  C   UNL     1       0.826  -1.788  -1.425  0.00  0.00    +0.171 C 
ATOM      5  N   UNL     1       0.673  -0.487  -1.187  0.00  0.00    -0.358 N 
ATOM      6  N   UNL     1       1.463  -2.206  -2.561  0.00  0.00    -0.358 N 
ATOM      7  H   UNL     1       0.469  -3.631  -0.730  0.00  0.00    +0.162 HD
ATOM      8  H   UNL     1       1.870  -1.556  -3.155  0.00  0.00    +0.162 HD
ATOM      9  H   UNL     1       0.155  -0.191  -0.422  0.00  0.00    +0.162 HD
BRANCH   3  11
ATOM     10  C   UNL     1      -0.758  -3.454   1.478  0.00  0.00    +0.026 C 
ATOM     11  C   UNL     1      -0.324  -2.236   0.660  0.00  0.00    +0.112 C 
ENDBRANCH   3  11
BRANCH   5  12
ATOM     12  C   UNL     1       1.287   0.498  -2.080  0.00  0.00    +0.112 C 
ATOM     13  C   UNL     1       1.066   1.904  -1.519  0.00  0.00    +0.026 C 
ENDBRANCH   5  12
ENDBRANCH   2   6
ENDBRANCH   1   2
BRANCH   1  14
ATOM     14  C   UNL     1       2.252  -5.311  -4.586  0.00  0.00    +0.106 C 
BRANCH  14  15
ATOM     15  N   UNL     1       2.875  -5.488  -5.900  0.00  0.00    -0.311 N 
ATOM     16  C   UNL     1       3.043  -6.727  -6.404  0.00  0.00    +0.244 C 
ATOM     17  O   UNL     1       2.678  -7.697  -5.769  0.00  0.00    -0.270 OA
ATOM     18  H   UNL     1       3.167  -4.715  -6.407  0.00  0.00    +0.149 HD
BRANCH  16  19
ATOM     19  C   UNL     1       3.672  -6.906  -7.730  0.00  0.00    +0.037 A 
ATOM     20  C   UNL     1       4.098  -5.795  -8.460  0.00  0.00    +0.014 A 
ATOM     21  C   UNL     1       4.684  -5.968  -9.696  0.00  0.00    +0.016 A 
ATOM     22  C   UNL     1       4.850  -7.242 -10.214  0.00  0.00    +0.018 A 
ATOM     23  C   UNL     1       4.429  -8.348  -9.495  0.00  0.00    +0.016 A 
ATOM     24  C   UNL     1       3.847  -8.188  -8.255  0.00  0.00    +0.014 A 
ATOM     25 BR   UNL     1       5.654  -7.471 -11.910  0.00  0.00    -0.050 Br
ENDBRANCH  16  19
ENDBRANCH  14  15
ENDBRANCH   1  14
TORSDOF 7
