REMARK  Name = ZINC24206736
REMARK  5 active torsions:
REMARK  status: ('A' for Active; 'I' for Inactive)
REMARK    1  A    between atoms: C_1  and  C_2
REMARK    2  A    between atoms: C_2  and  C_22
REMARK    3  A    between atoms: N_5  and  C_9
REMARK    4  A    between atoms: C_9  and  C_10
REMARK    5  A    between atoms: N_12  and  C_13
REMARK                            x       y       z     vdW  Elec       q    Type
REMARK                         _______ _______ _______ _____ _____    ______ ____
ROOT
ATOM      1  C   UNL     1       5.341   8.262   2.866  0.00  0.00    +0.047 C 
ATOM      2  C   UNL     1       5.275   6.875   2.223  0.00  0.00    +0.135 C 
ATOM      3  C   UNL     1       3.855   6.347   2.249  0.00  0.00    +0.251 C 
ATOM      4  O   UNL     1       3.175   6.123   3.227  0.00  0.00    -0.272 OA
ATOM      5  N   UNL     1       3.506   6.176   0.958  0.00  0.00    -0.215 N 
ATOM      6  C   UNL     1       4.496   6.526   0.129  0.00  0.00    +0.310 C 
ATOM      7  O   UNL     1       4.417   6.464  -1.082  0.00  0.00    -0.252 OA
ATOM      8  N   UNL     1       5.589   6.955   0.786  0.00  0.00    -0.281 N 
ATOM      9  H   UNL     1       6.574   7.317   0.457  0.00  0.00    +0.152 HD
ENDROOT
BRANCH   2  10
ATOM     10  C   UNL     1       6.215   5.925   2.919  0.00  0.00    -0.015 A 
ATOM     11  C   UNL     1       5.783   5.204   4.016  0.00  0.00    +0.006 A 
ATOM     12  C   UNL     1       6.644   4.330   4.649  0.00  0.00    +0.004 A 
ATOM     13  C   UNL     1       7.944   4.180   4.194  0.00  0.00    -0.044 A 
ATOM     14  C   UNL     1       8.378   4.905   3.100  0.00  0.00    -0.044 A 
ATOM     15  C   UNL     1       7.511   5.777   2.464  0.00  0.00    +0.010 A 
ATOM     16  C   UNL     1       9.823   4.567   2.803  0.00  0.00    +0.036 C 
ATOM     17  C   UNL     1      10.092   3.245   3.554  0.00  0.00    +0.009 C 
ATOM     18  C   UNL     1       9.068   3.305   4.707  0.00  0.00    +0.036 C 
ENDBRANCH   2  10
BRANCH   5  19
ATOM     19  C   UNL     1       2.202   5.674   0.517  0.00  0.00    +0.214 C 
BRANCH  19  20
ATOM     20  C   UNL     1       2.255   4.173   0.402  0.00  0.00    +0.235 C 
ATOM     21  O   UNL     1       3.280   3.580   0.662  0.00  0.00    -0.274 OA
ATOM     22  N   UNL     1       1.162   3.488   0.009  0.00  0.00    -0.282 N 
ATOM     23  H   UNL     1       0.258   4.030  -0.305  0.00  0.00    +0.155 HD
BRANCH  22  24
ATOM     24  C   UNL     1       1.178   2.088   0.002  0.00  0.00    +0.071 A 
ATOM     25  C   UNL     1       0.807   1.381   1.139  0.00  0.00    +0.065 A 
ATOM     26  C   UNL     1       0.824  -0.001   1.128  0.00  0.00    +0.042 A 
ATOM     27  C   UNL     1       1.208  -0.681  -0.014  0.00  0.00    +0.044 A 
ATOM     28  C   UNL     1       1.577   0.020  -1.148  0.00  0.00    +0.042 A 
ATOM     29  C   UNL     1       1.564   1.402  -1.143  0.00  0.00    +0.065 A 
ATOM     30 CL   UNL     1       2.028   2.281  -2.567  0.00  0.00    -0.082 Cl
ATOM     31 CL   UNL     1       1.227  -2.417  -0.024  0.00  0.00    -0.083 Cl
ATOM     32 CL   UNL     1       0.318   2.233   2.570  0.00  0.00    -0.082 Cl
ENDBRANCH  22  24
ENDBRANCH  19  20
ENDBRANCH   5  19
TORSDOF 4
