REMARK  Name = ZINC39468598
REMARK  4 active torsions:
REMARK  status: ('A' for Active; 'I' for Inactive)
REMARK    1  A    between atoms: C_1  and  S_2
REMARK    2  A    between atoms: S_2  and  P_3
REMARK    3  A    between atoms: C_11  and  C_22
REMARK    4  A    between atoms: C_27  and  O_28
REMARK                            x       y       z     vdW  Elec       q    Type
REMARK                         _______ _______ _______ _____ _____    ______ ____
ROOT
ATOM      1  P   UNL     1      -2.048  -0.545   0.019  0.00  0.00    +0.314 P 
ATOM      2  O   UNL     1      -2.697  -0.053   1.254  0.00  0.00    -0.262 OA
ATOM      3  N   UNL     1      -2.209  -2.183  -0.103  0.00  0.00    -0.283 NA
ATOM      4  N   UNL     1      -2.055  -2.753  -1.349  0.00  0.00    +0.398 N 
ATOM      5  C   UNL     1      -2.362  -4.183  -1.183  0.00  0.00    -0.046 C 
ATOM      6  C   UNL     1      -2.208  -4.930  -2.501  0.00  0.00    +0.005 C 
ATOM      7  C   UNL     1      -0.795  -4.817  -3.009  0.00  0.00    -0.015 C 
ATOM      8  C   UNL     1      -0.551  -4.996  -4.318  0.00  0.00    -0.005 C 
ATOM      9  C   UNL     1      -1.675  -5.312  -5.226  0.00  0.00    +0.017 C 
ATOM     10  C   UNL     1      -2.916  -5.003  -4.870  0.00  0.00    -0.008 C 
ATOM     11  C   UNL     1      -3.159  -4.331  -3.541  0.00  0.00    +0.017 C 
ATOM     12  C   UNL     1      -2.859  -2.837  -3.672  0.00  0.00    -0.003 C 
ATOM     13  C   UNL     1      -2.976  -2.143  -2.311  0.00  0.00    -0.020 C 
ATOM     14  C   UNL     1      -2.655  -0.659  -2.533  0.00  0.00    +0.157 C 
ATOM     15  O   UNL     1      -2.801   0.056  -1.293  0.00  0.00    -0.312 OA
ATOM     16  I   UNL     1      -1.310  -6.244  -7.067  0.00  0.00    -0.044 I 
ATOM     17  H   UNL     1      -2.404  -2.727   0.676  0.00  0.00    +0.112 HD
ATOM     18  H   UNL     1      -1.105  -2.631  -1.665  0.00  0.00    -0.055 HD
ENDROOT
BRANCH   8  19
ATOM     19  C   UNL     1       0.830  -4.877  -4.847  0.00  0.00    +0.024 A 
ATOM     20  C   UNL     1       1.754  -5.897  -4.628  0.00  0.00    +0.012 A 
ATOM     21  C   UNL     1       3.037  -5.782  -5.122  0.00  0.00    +0.001 A 
ATOM     22  C   UNL     1       3.410  -4.656  -5.835  0.00  0.00    +0.004 A 
ATOM     23  C   UNL     1       2.502  -3.638  -6.058  0.00  0.00    +0.046 A 
ATOM     24  C   UNL     1       1.209  -3.744  -5.573  0.00  0.00    +0.125 A 
BRANCH  24  25
ATOM     25  O   UNL     1       0.314  -2.747  -5.796  0.00  0.00    -0.506 OA
ATOM     26  H   UNL     1       0.308  -2.063  -5.112  0.00  0.00    +0.292 HD
ENDBRANCH  24  25
ENDBRANCH   8  19
BRANCH   1  28
ATOM     27  C   UNL     1      -0.022   1.810   0.012  0.00  0.00    +0.096 C 
ATOM     28  S   UNL     1       0.002  -0.004   0.002  0.00  0.00    -0.059 S 
ENDBRANCH   1  28
TORSDOF 3
