REMARK  Name = ZINC02926811
REMARK  8 active torsions:
REMARK  status: ('A' for Active; 'I' for Inactive)
REMARK    1  A    between atoms: C_1  and  C_2
REMARK    2  A    between atoms: C_2  and  N_65
REMARK    3  A    between atoms: C_8  and  C_10
REMARK    4  A    between atoms: C_11  and  C_33
REMARK    5  A    between atoms: N_17  and  C_20
REMARK    6  A    between atoms: C_20  and  C_21
REMARK    7  A    between atoms: C_25  and  C_32
REMARK    8  A    between atoms: C_28  and  C_31
REMARK                            x       y       z     vdW  Elec       q    Type
REMARK                         _______ _______ _______ _____ _____    ______ ____
ROOT
ATOM      1  C   UNL     1       5.518  -1.887  -2.028  0.00  0.00    +0.080 A 
ATOM      2  C   UNL     1       4.616  -0.865  -2.063  0.00  0.00    -0.017 A 
ATOM      3  C   UNL     1       3.692  -0.717  -1.026  0.00  0.00    +0.076 A 
ATOM      4  C   UNL     1       3.774  -1.673   0.012  0.00  0.00    +0.116 A 
ATOM      5  S   UNL     1       5.114  -2.718  -0.501  0.00  0.00    -0.064 S 
ATOM      6  N   UNL     1       2.955  -1.645   1.056  0.00  0.00    -0.230 NA
ATOM      7  C   UNL     1       2.032  -0.730   1.177  0.00  0.00    +0.203 A 
ATOM      8  N   UNL     1       1.857   0.239   0.245  0.00  0.00    -0.290 N 
ATOM      9  C   UNL     1       2.630   0.301  -0.856  0.00  0.00    +0.263 A 
ATOM     10  O   UNL     1       2.462   1.173  -1.690  0.00  0.00    -0.267 OA
ATOM     11  C   UNL     1       4.615   0.102  -3.219  0.00  0.00    +0.046 C 
ENDROOT
BRANCH   1  17
ATOM     12  C   UNL     1       9.344  -1.783  -0.848  0.00  0.00    -0.060 C 
ATOM     13  C   UNL     1       8.108  -2.639  -1.146  0.00  0.00    +0.089 C 
ATOM     14  N   UNL     1       7.803  -2.535  -2.581  0.00  0.00    -0.301 N 
ATOM     15  C   UNL     1       8.886  -2.788  -3.543  0.00  0.00    +0.089 C 
ATOM     16  C   UNL     1      10.092  -1.921  -3.150  0.00  0.00    -0.060 C 
ATOM     17  C   UNL     1       6.562  -2.220  -3.003  0.00  0.00    +0.253 C 
ATOM     18  O   UNL     1       6.307  -2.213  -4.193  0.00  0.00    -0.269 OA
ATOM     19  N   UNL     1      10.442  -2.208  -1.742  0.00  0.00    +0.382 N 
ATOM     20  H   UNL     1      10.587  -3.219  -1.635  0.00  0.00    -0.082 HD
BRANCH  19  22
ATOM     21  C   UNL     1      12.849  -2.118  -2.165  0.00  0.00    -0.017 C 
ATOM     22  C   UNL     1      11.689  -1.503  -1.379  0.00  0.00    -0.082 C 
ENDBRANCH  19  22
ENDBRANCH   1  17
BRANCH   8  23
ATOM     23  C   UNL     1       0.802   1.237   0.438  0.00  0.00    +0.222 C 
BRANCH  23  24
ATOM     24  C   UNL     1       1.356   2.413   1.200  0.00  0.00    +0.236 C 
ATOM     25  O   UNL     1       2.518   2.417   1.548  0.00  0.00    -0.274 OA
ATOM     26  N   UNL     1       0.562   3.463   1.490  0.00  0.00    -0.300 N 
ATOM     27  C   UNL     1      -0.845   3.478   1.065  0.00  0.00    +0.111 C 
ATOM     28  C   UNL     1      -1.725   3.746   2.295  0.00  0.00    +0.004 C 
ATOM     29  C   UNL     1      -1.261   5.036   2.976  0.00  0.00    +0.009 C 
ATOM     30  C   UNL     1       0.187   4.874   3.445  0.00  0.00    +0.004 C 
ATOM     31  C   UNL     1       1.087   4.617   2.233  0.00  0.00    +0.111 C 
ATOM     32  C   UNL     1       0.639   6.153   4.154  0.00  0.00    +0.009 C 
ATOM     33  C   UNL     1      -1.605   2.579   3.277  0.00  0.00    +0.009 C 
ENDBRANCH  23  24
ENDBRANCH   8  23
TORSDOF 4
