REMARK  Name = ZINC20437060
REMARK  5 active torsions:
REMARK  status: ('A' for Active; 'I' for Inactive)
REMARK    1  A    between atoms: C_4  and  N_11
REMARK    2  A    between atoms: C_5  and  C_7
REMARK    3  A    between atoms: C_12  and  C_14
REMARK    4  A    between atoms: C_14  and  N_15
REMARK    5  A    between atoms: N_15  and  C_16
REMARK                            x       y       z     vdW  Elec       q    Type
REMARK                         _______ _______ _______ _____ _____    ______ ____
ROOT
ATOM      1  N   UNL     1       3.658   3.220   3.333  0.00  0.00    -0.270 N 
ATOM      2  C   UNL     1       2.997   2.699   2.243  0.00  0.00    +0.136 C 
ATOM      3  N   UNL     1       3.104   1.499   1.766  0.00  0.00    -0.362 N 
ATOM      4  C   UNL     1       2.335   1.056   0.619  0.00  0.00    +0.117 C 
ATOM      5  C   UNL     1       1.523  -0.202   1.012  0.00  0.00    +0.191 C 
ATOM      6  S   UNL     1      -0.026   0.025   0.038  0.00  0.00    -0.028 S 
ATOM      7  O   UNL     1      -1.130  -0.457   0.791  0.00  0.00    -0.174 OA
ATOM      8  O   UNL     1       0.179  -0.440  -1.289  0.00  0.00    -0.174 OA
ATOM      9  C   UNL     1      -0.041   1.871   0.044  0.00  0.00    +0.182 C 
ATOM     10  C   UNL     1       1.469   2.176   0.024  0.00  0.00    +0.099 C 
ATOM     11  S   UNL     1       1.822   3.538   1.198  0.00  0.00    -0.085 S 
ATOM     12  H   UNL     1       3.794   0.781   2.233  0.00  0.00    +0.162 HD
ENDROOT
BRANCH   1  13
ATOM     13  C   UNL     1       3.431   4.546   3.721  0.00  0.00    +0.071 A 
ATOM     14  C   UNL     1       2.424   4.843   4.629  0.00  0.00    +0.026 A 
ATOM     15  C   UNL     1       2.202   6.152   5.010  0.00  0.00    +0.002 A 
ATOM     16  C   UNL     1       2.982   7.168   4.489  0.00  0.00    +0.003 A 
ATOM     17  C   UNL     1       3.986   6.878   3.584  0.00  0.00    +0.040 A 
ATOM     18  C   UNL     1       4.217   5.569   3.201  0.00  0.00    +0.145 A 
ATOM     19  F   UNL     1       5.202   5.285   2.321  0.00  0.00    -0.204 F 
ENDBRANCH   1  13
BRANCH   1  20
ATOM     20  C   UNL     1       4.599   2.388   4.086  0.00  0.00    +0.208 C 
BRANCH  20  22
ATOM     21  N   UNL     1       7.013   1.852   4.033  0.00  0.00    -0.284 N 
ATOM     22  C   UNL     1       5.979   2.531   3.498  0.00  0.00    +0.235 C 
ATOM     23  O   UNL     1       6.159   3.257   2.544  0.00  0.00    -0.274 OA
ATOM     24  H   UNL     1       6.865   1.252   4.943  0.00  0.00    +0.155 HD
BRANCH  21  28
ATOM     25  C   UNL     1      10.770   2.027   2.240  0.00  0.00    +0.001 A 
ATOM     26  C   UNL     1       9.947   3.139   2.229  0.00  0.00    +0.002 A 
ATOM     27  C   UNL     1       8.700   3.083   2.818  0.00  0.00    +0.024 A 
ATOM     28  C   UNL     1       8.275   1.911   3.431  0.00  0.00    +0.045 A 
ATOM     29  C   UNL     1       9.103   0.796   3.440  0.00  0.00    +0.076 A 
ATOM     30  C   UNL     1      10.348   0.857   2.845  0.00  0.00    +0.014 A 
BRANCH  29  31
ATOM     31  C   UNL     1       8.643  -0.479   4.098  0.00  0.00    +0.419 C 
ATOM     32  F   UNL     1       9.642  -1.452   3.978  0.00  0.00    -0.166 F 
ATOM     33  F   UNL     1       8.386  -0.239   5.452  0.00  0.00    -0.166 F 
ATOM     34  F   UNL     1       7.475  -0.931   3.474  0.00  0.00    -0.166 F 
ENDBRANCH  29  31
ENDBRANCH  21  28
ENDBRANCH  20  22
ENDBRANCH   1  20
TORSDOF 5
