REMARK  Name = ZINC01231962
REMARK  9 active torsions:
REMARK  status: ('A' for Active; 'I' for Inactive)
REMARK    1  A    between atoms: C_1  and  C_2
REMARK    2  A    between atoms: C_2  and  C_33
REMARK    3  A    between atoms: C_3  and  N_21
REMARK    4  A    between atoms: N_5  and  C_14
REMARK    5  A    between atoms: N_8  and  C_9
REMARK    6  A    between atoms: C_9  and  C_10
REMARK    7  A    between atoms: N_12  and  N_13
REMARK    8  A    between atoms: N_21  and  O_32
REMARK    9  A    between atoms: N_24  and  C_25
REMARK                            x       y       z     vdW  Elec       q    Type
REMARK                         _______ _______ _______ _____ _____    ______ ____
ROOT
ATOM      1  C   UNL     1       0.232   0.301  -0.148  0.00  0.00    +0.035 C 
ATOM      2  C   UNL     1       1.016  -1.000  -0.329  0.00  0.00    +0.071 C 
ATOM      3  C   UNL     1       1.982  -0.888  -1.524  0.00  0.00    +0.224 C 
ATOM      4  N   UNL     1       3.311  -1.069  -0.921  0.00  0.00    -0.232 N 
ATOM      5  C   UNL     1       3.173  -1.258   0.398  0.00  0.00    +0.312 C 
ATOM      6  O   UNL     1       4.116  -1.435   1.145  0.00  0.00    -0.252 OA
ATOM      7  N   UNL     1       1.902  -1.234   0.821  0.00  0.00    -0.268 N 
ATOM      8  C   UNL     1       0.059  -2.180  -0.518  0.00  0.00    +0.035 C 
ENDROOT
BRANCH   4   9
ATOM      9  C   UNL     1       4.527  -1.049  -1.615  0.00  0.00    +0.040 A 
ATOM     10  C   UNL     1       5.510  -0.132  -1.268  0.00  0.00    +0.025 A 
ATOM     11  C   UNL     1       6.708  -0.114  -1.954  0.00  0.00    +0.022 A 
ATOM     12  C   UNL     1       6.930  -1.008  -2.986  0.00  0.00    +0.041 A 
ATOM     13  C   UNL     1       5.951  -1.923  -3.334  0.00  0.00    +0.022 A 
ATOM     14  C   UNL     1       4.753  -1.949  -2.647  0.00  0.00    +0.025 A 
ATOM     15 CL   UNL     1       8.437  -0.982  -3.847  0.00  0.00    -0.084 Cl
ENDBRANCH   4   9
BRANCH   3  16
ATOM     16  N   UNL     1       1.875   0.433  -2.150  0.00  0.00    -0.144 N 
ATOM     17  C   UNL     1       1.764   0.537  -3.489  0.00  0.00    +0.331 C 
ATOM     18  O   UNL     1       1.844  -0.457  -4.185  0.00  0.00    -0.250 OA
ATOM     19  N   UNL     1       1.563   1.743  -4.056  0.00  0.00    -0.268 N 
ATOM     20  H   UNL     1       1.561   2.543  -3.508  0.00  0.00    +0.156 HD
BRANCH  19  21
ATOM     21  C   UNL     1       1.359   1.841  -5.438  0.00  0.00    +0.035 A 
ATOM     22  C   UNL     1       0.672   0.840  -6.112  0.00  0.00    +0.025 A 
ATOM     23  C   UNL     1       0.472   0.939  -7.475  0.00  0.00    +0.022 A 
ATOM     24  C   UNL     1       0.955   2.034  -8.169  0.00  0.00    +0.041 A 
ATOM     25  C   UNL     1       1.640   3.033  -7.499  0.00  0.00    +0.022 A 
ATOM     26  C   UNL     1       1.837   2.942  -6.136  0.00  0.00    +0.025 A 
ATOM     27 CL   UNL     1       0.701   2.156  -9.882  0.00  0.00    -0.084 Cl
ENDBRANCH  19  21
BRANCH  16  28
ATOM     28  O   UNL     1       1.888   1.599  -1.347  0.00  0.00    -0.289 OA
ATOM     29  H   UNL     1       1.735   2.417  -1.840  0.00  0.00    +0.242 HD
ENDBRANCH  16  28
ENDBRANCH   3  16
BRANCH   7  30
ATOM     30  C   UNL     1       1.465  -1.412   2.207  0.00  0.00    +0.207 C 
BRANCH  30  31
ATOM     31  C   UNL     1       1.218  -2.875   2.472  0.00  0.00    +0.244 C 
ATOM     32  O   UNL     1       1.391  -3.689   1.590  0.00  0.00    -0.273 OA
ATOM     33  N   UNL     1       0.806  -3.279   3.690  0.00  0.00    -0.252 N 
ATOM     34  H   UNL     1       0.668  -2.628   4.396  0.00  0.00    +0.169 HD
BRANCH  33  35
ATOM     35  N   UNL     1       0.583  -4.605   3.931  0.00  0.00    -0.254 NA
ATOM     36  H   UNL     1       1.404  -5.154   3.722  0.00  0.00    +0.140 HD
ATOM     37  H   UNL     1       0.280  -4.754   4.881  0.00  0.00    +0.140 HD
ENDBRANCH  33  35
ENDBRANCH  30  31
ENDBRANCH   7  30
TORSDOF 7
