REMARK  Name = ZINC45681979
REMARK  2 active torsions:
REMARK  status: ('A' for Active; 'I' for Inactive)
REMARK    1  A    between atoms: C_6  and  C_7
REMARK    2  A    between atoms: N_13  and  C_14
REMARK                            x       y       z     vdW  Elec       q    Type
REMARK                         _______ _______ _______ _____ _____    ______ ____
ROOT
ATOM      1  C   UNL     1      -1.128  -0.896   0.160  0.00  0.00    +0.077 C 
ATOM      2  N   UNL     1      -1.133  -2.155  -0.022  0.00  0.00    -0.184 NA
ATOM      3  N   UNL     1      -2.226  -3.012  -0.106  0.00  0.00    -0.215 N 
ATOM      4  C   UNL     1      -3.497  -2.531   0.181  0.00  0.00    +0.174 C 
ATOM      5  S   UNL     1      -3.794  -0.854  -0.326  0.00  0.00    -0.083 S 
ATOM      6  C   UNL     1      -2.329  -0.017   0.367  0.00  0.00    +0.134 C 
ATOM      7  N   UNL     1      -4.410  -3.260   0.781  0.00  0.00    -0.225 NA
ATOM      8  H   UNL     1      -2.102  -3.939  -0.364  0.00  0.00    +0.176 HD
ENDROOT
BRANCH   1  14
ATOM      9  C   UNL     1       0.277   1.147   0.373  0.00  0.00    +0.011 A 
ATOM     10  C   UNL     1       1.509   1.762   0.386  0.00  0.00    +0.024 A 
ATOM     11  C   UNL     1       2.665   1.012   0.201  0.00  0.00    +0.037 A 
ATOM     12  C   UNL     1       2.581  -0.362   0.003  0.00  0.00    -0.025 A 
ATOM     13  C   UNL     1       1.353  -0.985  -0.012  0.00  0.00    +0.015 A 
ATOM     14  C   UNL     1       0.189  -0.234   0.174  0.00  0.00    -0.001 A 
ATOM     15  C   UNL     1       3.839  -1.168  -0.196  0.00  0.00    +0.046 C 
ATOM     16  C   UNL     1       4.869  -0.329  -0.953  0.00  0.00    +0.101 C 
ATOM     17  C   UNL     1       4.989   1.030  -0.317  0.00  0.00    +0.218 C 
ATOM     18  O   UNL     1       6.068   1.582  -0.284  0.00  0.00    -0.275 OA
ATOM     19  N   UNL     1       3.914   1.639   0.215  0.00  0.00    -0.285 N 
ATOM     20  H   UNL     1       4.007   2.519   0.611  0.00  0.00    +0.155 HD
ENDBRANCH   1  14
BRANCH   7  21
ATOM     21  C   UNL     1      -4.091  -4.505   1.254  0.00  0.00    +0.068 A 
ATOM     22  C   UNL     1      -2.991  -4.673   2.098  0.00  0.00    +0.029 A 
ATOM     23  C   UNL     1      -2.674  -5.930   2.571  0.00  0.00    +0.023 A 
ATOM     24  C   UNL     1      -3.443  -7.023   2.211  0.00  0.00    +0.059 A 
ATOM     25  C   UNL     1      -4.536  -6.863   1.374  0.00  0.00    +0.061 A 
ATOM     26  C   UNL     1      -4.867  -5.610   0.899  0.00  0.00    +0.049 A 
ATOM     27 CL   UNL     1      -5.494  -8.240   0.928  0.00  0.00    -0.082 Cl
ATOM     28 CL   UNL     1      -3.037  -8.601   2.810  0.00  0.00    -0.082 Cl
ENDBRANCH   7  21
TORSDOF 2
