REMARK  Name = ZINC08429403
REMARK  2 active torsions:
REMARK  status: ('A' for Active; 'I' for Inactive)
REMARK    1  A    between atoms: C_9  and  C_11
REMARK    2  A    between atoms: N_13  and  C_14
REMARK                            x       y       z     vdW  Elec       q    Type
REMARK                         _______ _______ _______ _____ _____    ______ ____
ROOT
ATOM      1  C   UNL     1       3.647  -0.668  -0.042  0.00  0.00    +0.268 C 
ATOM      2  O   UNL     1       3.651  -1.883  -0.045  0.00  0.00    -0.268 OA
ATOM      3  N   UNL     1       4.813   0.009  -0.044  0.00  0.00    -0.279 N 
ATOM      4  H   UNL     1       4.811   0.977  -0.108  0.00  0.00    +0.155 HD
ENDROOT
BRANCH   3   5
ATOM      5  C   UNL     1       6.026  -0.684   0.046  0.00  0.00    +0.051 A 
ATOM      6  C   UNL     1       6.160  -1.929  -0.554  0.00  0.00    +0.073 A 
ATOM      7  C   UNL     1       7.362  -2.614  -0.469  0.00  0.00    +0.164 A 
ATOM      8  C   UNL     1       8.430  -2.056   0.226  0.00  0.00    +0.163 A 
ATOM      9  C   UNL     1       8.291  -0.815   0.829  0.00  0.00    +0.066 A 
ATOM     10  C   UNL     1       7.093  -0.130   0.741  0.00  0.00    +0.043 A 
ATOM     11 BR   UNL     1       6.908   1.561   1.566  0.00  0.00    -0.048 Br
ATOM     12  O   UNL     1       9.619  -2.713   0.320  0.00  0.00    -0.485 OA
ATOM     13  C   UNL     1       9.605  -4.114   0.023  0.00  0.00    +0.270 C 
ATOM     14  C   UNL     1       8.808  -4.322  -1.272  0.00  0.00    +0.270 C 
ATOM     15  O   UNL     1       7.479  -3.833  -1.063  0.00  0.00    -0.485 OA
ENDBRANCH   3   5
BRANCH   1  24
ATOM     16  C   UNL     1      -1.220   3.400  -0.021  0.00  0.00    +0.002 A 
ATOM     17  C   UNL     1      -0.019   4.109  -0.023  0.00  0.00    +0.002 A 
ATOM     18  C   UNL     1       1.176   3.461  -0.027  0.00  0.00    +0.030 A 
ATOM     19  C   UNL     1       1.207   2.053  -0.029  0.00  0.00    +0.090 A 
ATOM     20  C   UNL     1      -0.017   1.332  -0.027  0.00  0.00    +0.089 A 
ATOM     21  C   UNL     1      -1.231   2.039  -0.028  0.00  0.00    +0.030 A 
ATOM     22  N   UNL     1       0.002  -0.006  -0.030  0.00  0.00    -0.251 NA
ATOM     23  C   UNL     1       1.150  -0.642  -0.035  0.00  0.00    +0.144 A 
ATOM     24  C   UNL     1       2.362   0.069  -0.036  0.00  0.00    +0.144 A 
ATOM     25  N   UNL     1       2.364   1.391  -0.034  0.00  0.00    -0.239 NA
ENDBRANCH   1  24
TORSDOF 2
