REMARK  Name = ZINC00337876
REMARK  4 active torsions:
REMARK  status: ('A' for Active; 'I' for Inactive)
REMARK    1  A    between atoms: C_1  and  N_2
REMARK    2  A    between atoms: C_3  and  S_7
REMARK    3  A    between atoms: S_7  and  C_8
REMARK    4  A    between atoms: C_8  and  C_9
REMARK                            x       y       z     vdW  Elec       q    Type
REMARK                         _______ _______ _______ _____ _____    ______ ____
ROOT
ATOM      1  C   UNL     1       0.011  -1.884  -3.688  0.00  0.00    +0.118 C 
ENDROOT
BRANCH   1   2
ATOM      2  C   UNL     1       0.000  -1.596  -5.167  0.00  0.00    +0.033 A 
ATOM      3  C   UNL     1      -1.203  -1.475  -5.840  0.00  0.00    +0.130 A 
ATOM      4  C   UNL     1      -1.212  -1.211  -7.200  0.00  0.00    +0.039 A 
ATOM      5  C   UNL     1      -0.019  -1.068  -7.884  0.00  0.00    +0.006 A 
ATOM      6  C   UNL     1       1.183  -1.189  -7.213  0.00  0.00    +0.039 A 
ATOM      7  C   UNL     1       1.194  -1.448  -5.853  0.00  0.00    +0.130 A 
ATOM      8  F   UNL     1       2.369  -1.560  -5.196  0.00  0.00    -0.205 F 
ATOM      9  F   UNL     1      -2.369  -1.615  -5.172  0.00  0.00    -0.205 F 
ENDBRANCH   1   2
BRANCH   1  10
ATOM     10  S   UNL     1      -0.006  -0.321  -2.768  0.00  0.00    -0.080 S 
BRANCH  10  13
ATOM     11  C   UNL     1      -0.018   1.461   0.010  0.00  0.00    +0.177 C 
ATOM     12  N   UNL     1       0.002  -0.004   0.002  0.00  0.00    -0.223 N 
ATOM     13  C   UNL     1       0.008  -0.820  -1.078  0.00  0.00    +0.209 A 
ATOM     14  N   UNL     1       0.027  -2.056  -0.629  0.00  0.00    -0.102 NA
ATOM     15  N   UNL     1       0.033  -2.068   0.655  0.00  0.00    -0.022 NA
ATOM     16  N   UNL     1       0.025  -0.864   1.114  0.00  0.00    -0.043 NA
ENDBRANCH  10  13
ENDBRANCH   1  10
TORSDOF 3
