REMARK  Name = ZINC32744472
REMARK  6 active torsions:
REMARK  status: ('A' for Active; 'I' for Inactive)
REMARK    1  A    between atoms: C_1  and  C_2
REMARK    2  A    between atoms: N_6  and  C_7
REMARK    3  A    between atoms: C_10  and  C_13
REMARK    4  A    between atoms: N_18  and  S_21
REMARK    5  A    between atoms: S_21  and  C_24
REMARK    6  A    between atoms: C_26  and  C_31
REMARK                            x       y       z     vdW  Elec       q    Type
REMARK                         _______ _______ _______ _____ _____    ______ ____
ROOT
ATOM      1  C   UNL     1       3.161  -5.721  -0.141  0.00  0.00    +0.247 C 
ATOM      2  O   UNL     1       4.210  -5.982  -0.697  0.00  0.00    -0.270 OA
ATOM      3  N   UNL     1       2.391  -6.714   0.347  0.00  0.00    -0.295 N 
ATOM      4  C   UNL     1       1.117  -6.414   1.015  0.00  0.00    +0.125 C 
ATOM      5  C   UNL     1       0.001  -7.203   0.309  0.00  0.00    +0.128 C 
ATOM      6  N   UNL     1       0.424  -8.605   0.188  0.00  0.00    -0.174 NA
ATOM      7  C   UNL     1       1.701  -8.905  -0.475  0.00  0.00    +0.128 C 
ATOM      8  C   UNL     1       2.814  -8.116   0.226  0.00  0.00    +0.125 C 
ENDROOT
BRANCH   1  12
ATOM      9  C   UNL     1       1.922  -1.678   0.268  0.00  0.00    +0.066 A 
ATOM     10  C   UNL     1       1.583  -2.610   1.243  0.00  0.00    +0.028 A 
ATOM     11  C   UNL     1       1.977  -3.922   1.111  0.00  0.00    +0.015 A 
ATOM     12  C   UNL     1       2.730  -4.316   0.001  0.00  0.00    +0.037 A 
ATOM     13  C   UNL     1       3.074  -3.376  -0.974  0.00  0.00    +0.015 A 
ATOM     14  C   UNL     1       2.671  -2.066  -0.838  0.00  0.00    +0.028 A 
BRANCH   9  20
ATOM     15  C   UNL     1       0.834   0.050  -2.029  0.00  0.00    +0.066 C 
ATOM     16  C   UNL     1       1.030   0.445  -0.588  0.00  0.00    +0.042 A 
ATOM     17  C   UNL     1       0.754   1.654  -0.047  0.00  0.00    +0.044 A 
ATOM     18  C   UNL     1       1.079   1.603   1.313  0.00  0.00    +0.135 A 
ATOM     19  N   UNL     1       1.534   0.406   1.583  0.00  0.00    -0.175 NA
ATOM     20  N   UNL     1       1.515  -0.347   0.403  0.00  0.00    -0.237 N 
ENDBRANCH   9  20
ENDBRANCH   1  12
BRANCH   6  21
ATOM     21  S   UNL     1      -0.521  -9.826   0.788  0.00  0.00    +0.062 S 
ATOM     22  O   UNL     1      -1.849  -9.324   0.836  0.00  0.00    -0.153 OA
ATOM     23  O   UNL     1      -0.175 -10.999   0.065  0.00  0.00    -0.153 OA
BRANCH  21  24
ATOM     24  C   UNL     1      -0.024 -10.097   2.456  0.00  0.00    +0.124 A 
ATOM     25  C   UNL     1      -0.902  -9.835   3.491  0.00  0.00    +0.042 A 
ATOM     26  C   UNL     1      -0.514 -10.052   4.799  0.00  0.00    +0.057 A 
ATOM     27  C   UNL     1       0.756 -10.522   5.075  0.00  0.00    +0.014 A 
ATOM     28  C   UNL     1       1.637 -10.780   4.042  0.00  0.00    +0.022 A 
ATOM     29  C   UNL     1       1.248 -10.568   2.732  0.00  0.00    +0.067 A 
ATOM     30 CL   UNL     1       2.353 -10.892   1.433  0.00  0.00    -0.082 Cl
BRANCH  26  31
ATOM     31  C   UNL     1      -1.474  -9.771   5.926  0.00  0.00    +0.417 C 
ATOM     32  F   UNL     1      -0.857 -10.059   7.148  0.00  0.00    -0.166 F 
ATOM     33  F   UNL     1      -1.844  -8.422   5.898  0.00  0.00    -0.166 F 
ATOM     34  F   UNL     1      -2.613 -10.570   5.779  0.00  0.00    -0.166 F 
ENDBRANCH  26  31
ENDBRANCH  21  24
ENDBRANCH   6  21
TORSDOF 5
