REMARK  Name = ZINC39327247
REMARK  3 active torsions:
REMARK  status: ('A' for Active; 'I' for Inactive)
REMARK    1  A    between atoms: C_12  and  C_20
REMARK    2  A    between atoms: C_14  and  C_18
REMARK    3  A    between atoms: C_15  and  N_17
REMARK                            x       y       z     vdW  Elec       q    Type
REMARK                         _______ _______ _______ _____ _____    ______ ____
ROOT
ATOM      1  C   UNL     1      -0.017   1.373   0.010  0.00  0.00    +0.001 A 
ATOM      2  C   UNL     1       1.171   2.090   0.002  0.00  0.00    +0.004 A 
ATOM      3  C   UNL     1       2.386   1.437  -0.013  0.00  0.00    +0.047 A 
ATOM      4  C   UNL     1       2.427   0.049  -0.021  0.00  0.00    +0.143 A 
ATOM      5  C   UNL     1       1.225  -0.677  -0.013  0.00  0.00    +0.060 A 
ATOM      6  C   UNL     1       0.002  -0.004   0.002  0.00  0.00    +0.015 A 
ATOM      7  C   UNL     1       1.284  -2.147  -0.018  0.00  0.00    +0.152 A 
ATOM      8  C   UNL     1       2.510  -2.744  -0.029  0.00  0.00    +0.093 A 
ATOM      9  C   UNL     1       3.669  -1.948  -0.037  0.00  0.00    +0.345 A 
ATOM     10  O   UNL     1       4.760  -2.491  -0.045  0.00  0.00    -0.245 OA
ATOM     11  O   UNL     1       3.607  -0.607  -0.036  0.00  0.00    -0.422 OA
ATOM     12  C   UNL     1       2.633  -4.244  -0.032  0.00  0.00    +0.112 C 
ATOM     13  C   UNL     1       1.324  -4.871  -0.425  0.00  0.00    +0.099 C 
ATOM     14  C   UNL     1       0.171  -4.160  -0.394  0.00  0.00    +0.199 C 
ATOM     15  O   UNL     1       0.148  -2.871  -0.013  0.00  0.00    -0.440 OA
ENDROOT
BRANCH  12  16
ATOM     16  C   UNL     1       3.015  -4.716   1.347  0.00  0.00    +0.004 A 
ATOM     17  C   UNL     1       4.114  -5.404   1.739  0.00  0.00    +0.013 A 
ATOM     18  C   UNL     1       4.258  -5.735   3.074  0.00  0.00    +0.028 A 
ATOM     19  C   UNL     1       3.293  -5.360   3.951  0.00  0.00    +0.078 A 
ATOM     20  S   UNL     1       2.140  -4.507   2.889  0.00  0.00    -0.081 S 
ATOM     21 CL   UNL     1       3.207  -5.634   5.663  0.00  0.00    -0.076 Cl
ENDBRANCH  12  16
BRANCH  14  22
ATOM     22  N   UNL     1      -1.002  -4.771  -0.761  0.00  0.00    -0.328 N 
ATOM     23  H   UNL     1      -0.999  -5.701  -1.039  0.00  0.00    +0.145 HD
ATOM     24  H   UNL     1      -1.834  -4.273  -0.743  0.00  0.00    +0.145 HD
ENDBRANCH  14  22
BRANCH  13  25
ATOM     25  C   UNL     1       1.296  -6.241  -0.840  0.00  0.00    +0.101 C 
ATOM     26  N   UNL     1       1.274  -7.328  -1.169  0.00  0.00    -0.191 NA
ENDBRANCH  13  25
TORSDOF 3
