REMARK  Name = ZINC08964836
REMARK  12 active torsions:
REMARK  status: ('A' for Active; 'I' for Inactive)
REMARK    1  A    between atoms: C_1  and  O_2
REMARK    2  A    between atoms: O_2  and  C_3
REMARK    3  A    between atoms: C_5  and  C_17
REMARK    4  A    between atoms: C_8  and  O_9
REMARK    5  A    between atoms: O_9  and  C_10
REMARK    6  A    between atoms: C_10  and  C_11
REMARK    7  A    between atoms: N_18  and  N_19
REMARK    8  A    between atoms: N_28  and  C1*_29
REMARK    9  A    between atoms: C2*_31  and  O2*_41
REMARK   10  A    between atoms: C3*_33  and  O3*_40
REMARK   11  A    between atoms: C4*_35  and  C5*_38
REMARK   12  A    between atoms: C5*_38  and  O5*_39
REMARK                            x       y       z     vdW  Elec       q    Type
REMARK                         _______ _______ _______ _____ _____    ______ ____
ROOT
ATOM      1  N   UNL     1       5.775   0.633  -0.049  0.00  0.00    -0.206 N 
ATOM      2  C   UNL     1       4.395   0.629  -0.036  0.00  0.00    +0.220 A 
ATOM      3  N   UNL     1       3.638   1.698  -0.024  0.00  0.00    -0.208 NA
ATOM      4  C   UNL     1       2.333   1.326  -0.013  0.00  0.00    +0.149 A 
ATOM      5  C   UNL     1       1.112   2.020   0.002  0.00  0.00    +0.147 A 
ATOM      6  N   UNL     1      -0.016   1.316   0.009  0.00  0.00    -0.219 NA
ATOM      7  C   UNL     1       0.002  -0.004   0.002  0.00  0.00    +0.225 A 
ATOM      8  N   UNL     1       1.123  -0.695  -0.012  0.00  0.00    -0.216 NA
ATOM      9  C   UNL     1       2.299  -0.078  -0.020  0.00  0.00    +0.169 A 
ATOM     10  N   UNL     1       3.611  -0.493  -0.035  0.00  0.00    -0.266 N 
ATOM     11  N   UNL     1       1.083   3.405   0.010  0.00  0.00    -0.341 N 
ATOM     12  H   UNL     1       6.262  -0.205  -0.058  0.00  0.00    +0.177 HD
ATOM     13  H   UNL     1       0.597   3.732  -0.801  0.00  0.00    +0.144 HD
ATOM     14  H   UNL     1       1.913   3.907   0.004  0.00  0.00    +0.144 HD
ENDROOT
BRANCH  10  15
ATOM     15  C1* UNL     1       4.081  -1.880  -0.047  0.00  0.00    +0.255 C 
ATOM     16  C2* UNL     1       4.727  -2.249   1.313  0.00  0.00    +0.195 C 
ATOM     17  C3* UNL     1       5.677  -3.406   0.917  0.00  0.00    +0.178 C 
ATOM     18  C4* UNL     1       5.887  -3.220  -0.598  0.00  0.00    +0.177 C 
ATOM     19  O4* UNL     1       5.163  -2.042  -0.989  0.00  0.00    -0.346 OA
BRANCH  17  20
ATOM     20  O3* UNL     1       6.921  -3.292   1.612  0.00  0.00    -0.386 OA
ATOM     21  H3* UNL     1       7.575  -3.957   1.359  0.00  0.00    +0.210 HD
ENDBRANCH  17  20
BRANCH  16  22
ATOM     22  O2* UNL     1       3.739  -2.696   2.243  0.00  0.00    -0.385 OA
ATOM     23  H2* UNL     1       4.095  -2.939   3.108  0.00  0.00    +0.210 HD
ENDBRANCH  16  22
BRANCH  18  24
ATOM     24  C5* UNL     1       7.376  -3.040  -0.899  0.00  0.00    +0.190 C 
BRANCH  24  25
ATOM     25  O5* UNL     1       7.572  -2.969  -2.313  0.00  0.00    -0.392 OA
ATOM     26  H5* UNL     1       8.495  -2.854  -2.577  0.00  0.00    +0.210 HD
ENDBRANCH  24  25
ENDBRANCH  18  24
ENDBRANCH  10  15
BRANCH   1  28
ATOM     27  C   UNL     1       7.770   1.853  -0.060  0.00  0.00    +0.138 C 
ATOM     28  N   UNL     1       6.472   1.849  -0.049  0.00  0.00    -0.188 NA
BRANCH  27  31
ATOM     29  C   UNL     1      10.583   4.340  -0.073  0.00  0.00    +0.162 A 
ATOM     30  C   UNL     1       9.900   3.138  -0.073  0.00  0.00    +0.059 A 
ATOM     31  C   UNL     1       8.503   3.131  -0.060  0.00  0.00    -0.002 A 
ATOM     32  C   UNL     1       7.803   4.340  -0.053  0.00  0.00    +0.013 A 
ATOM     33  C   UNL     1       8.491   5.536  -0.049  0.00  0.00    +0.050 A 
ATOM     34  C   UNL     1       9.878   5.541  -0.061  0.00  0.00    +0.162 A 
BRANCH  29  36
ATOM     35  C   UNL     1      12.600   3.081  -0.098  0.00  0.00    +0.277 C 
ATOM     36  O   UNL     1      11.943   4.350  -0.086  0.00  0.00    -0.491 OA
ENDBRANCH  29  36
BRANCH  34  37
ATOM     37  O   UNL     1      10.551   6.723  -0.063  0.00  0.00    -0.484 OA
BRANCH  37  38
ATOM     38  C   UNL     1       9.766   7.917  -0.050  0.00  0.00    +0.264 C 
BRANCH  38  39
ATOM     39  C   UNL     1      10.677   9.117  -0.053  0.00  0.00    -0.010 A 
ATOM     40  C   UNL     1      11.102   9.666   1.142  0.00  0.00    +0.007 A 
ATOM     41  C   UNL     1      11.942  10.764   1.139  0.00  0.00    +0.000 A 
ATOM     42  C   UNL     1      12.349  11.319  -0.060  0.00  0.00    +0.000 A 
ATOM     43  C   UNL     1      11.919  10.774  -1.255  0.00  0.00    +0.000 A 
ATOM     44  C   UNL     1      11.084   9.673  -1.252  0.00  0.00    +0.007 A 
ENDBRANCH  38  39
ENDBRANCH  37  38
ENDBRANCH  34  37
ENDBRANCH  27  31
ENDBRANCH   1  28
TORSDOF 11
