REMARK  Name = ZINC02908289
REMARK  4 active torsions:
REMARK  status: ('A' for Active; 'I' for Inactive)
REMARK    1  A    between atoms: C_1  and  C_2
REMARK    2  A    between atoms: C_2  and  C_3
REMARK    3  A    between atoms: C_8  and  C_23
REMARK    4  A    between atoms: N_15  and  C_16
REMARK                            x       y       z     vdW  Elec       q    Type
REMARK                         _______ _______ _______ _____ _____    ______ ____
ROOT
ATOM      1  C   UNL     1      -0.549   1.636  -0.835  0.00  0.00    +0.124 C 
ATOM      2  C   UNL     1      -0.014   0.939  -2.064  0.00  0.00    +0.040 A 
ATOM      3  C   UNL     1      -0.011  -0.376  -2.326  0.00  0.00    +0.025 A 
ATOM      4  C   UNL     1       0.599  -0.553  -3.586  0.00  0.00    +0.023 A 
ATOM      5  C   UNL     1       0.944   0.669  -4.044  0.00  0.00    +0.016 A 
ATOM      6  N   UNL     1       0.568   1.593  -3.118  0.00  0.00    -0.345 N 
ATOM      7  C   UNL     1       0.738   3.048  -3.206  0.00  0.00    +0.141 C 
ATOM      8  C   UNL     1       0.616   3.656  -1.805  0.00  0.00    +0.131 C 
ATOM      9  N   UNL     1      -0.556   3.082  -1.127  0.00  0.00    -0.275 N 
ATOM     10  C   UNL     1      -1.606   3.854  -0.782  0.00  0.00    +0.307 C 
ATOM     11  O   UNL     1      -2.603   3.347  -0.306  0.00  0.00    -0.252 OA
ATOM     12  N   UNL     1      -1.549   5.188  -0.964  0.00  0.00    -0.269 N 
ATOM     13  C   UNL     1       1.627   0.960  -5.355  0.00  0.00    +0.063 C 
ATOM     14  H   UNL     1      -0.782   5.586  -1.404  0.00  0.00    +0.156 HD
ENDROOT
BRANCH  12  15
ATOM     15  C   UNL     1      -2.599   6.001  -0.519  0.00  0.00    +0.035 A 
ATOM     16  C   UNL     1      -3.909   5.546  -0.592  0.00  0.00    +0.025 A 
ATOM     17  C   UNL     1      -4.942   6.348  -0.148  0.00  0.00    +0.022 A 
ATOM     18  C   UNL     1      -4.674   7.607   0.360  0.00  0.00    +0.041 A 
ATOM     19  C   UNL     1      -3.370   8.064   0.429  0.00  0.00    +0.022 A 
ATOM     20  C   UNL     1      -2.332   7.264  -0.009  0.00  0.00    +0.025 A 
ATOM     21 CL   UNL     1      -5.976   8.615   0.911  0.00  0.00    -0.084 Cl
ENDBRANCH  12  15
BRANCH   1  23
ATOM     22  C   UNL     1      -0.245   1.981   1.621  0.00  0.00    +0.006 C 
ATOM     23  C   UNL     1       0.357   1.350   0.364  0.00  0.00    +0.025 C 
ENDBRANCH   1  23
TORSDOF 2
