REMARK  Name = ZINC25315308
REMARK  6 active torsions:
REMARK  status: ('A' for Active; 'I' for Inactive)
REMARK    1  A    between atoms: C_1  and  C_2
REMARK    2  A    between atoms: C_4  and  O_5
REMARK    3  A    between atoms: C_14  and  C_16
REMARK    4  A    between atoms: N_19  and  S_22
REMARK    5  A    between atoms: S_22  and  C_25
REMARK    6  A    between atoms: C_27  and  N_32
REMARK                            x       y       z     vdW  Elec       q    Type
REMARK                         _______ _______ _______ _____ _____    ______ ____
ROOT
ATOM      1  C   UNL     1       1.123   2.241  -0.351  0.00  0.00    +0.078 C 
ATOM      2  C   UNL     1       2.076   1.710   0.723  0.00  0.00    +0.030 C 
ATOM      3  C   UNL     1       3.338   2.578   0.754  0.00  0.00    +0.110 C 
ATOM      4  N   UNL     1       2.942   3.980   0.939  0.00  0.00    -0.176 NA
ATOM      5  C   UNL     1       1.961   4.565   0.015  0.00  0.00    +0.110 C 
ATOM      6  C   UNL     1       0.714   3.675  -0.008  0.00  0.00    +0.030 C 
ENDROOT
BRANCH   1  19
ATOM      7  C   UNL     1      -4.420  -4.709  -0.053  0.00  0.00    +0.045 C 
ATOM      8  C   UNL     1      -4.513  -3.281  -0.526  0.00  0.00    -0.033 A 
ATOM      9  C   UNL     1      -5.699  -2.755  -0.927  0.00  0.00    +0.091 A 
ATOM     10  C   UNL     1      -5.760  -1.416  -1.366  0.00  0.00    +0.285 A 
ATOM     11  O   UNL     1      -4.669  -0.635  -1.400  0.00  0.00    -0.425 OA
ATOM     12  C   UNL     1      -3.460  -1.096  -1.014  0.00  0.00    +0.141 A 
ATOM     13  C   UNL     1      -3.327  -2.423  -0.565  0.00  0.00    +0.021 A 
ATOM     14  C   UNL     1      -2.076  -2.905  -0.164  0.00  0.00    +0.013 A 
ATOM     15  C   UNL     1      -0.986  -2.085  -0.210  0.00  0.00    +0.024 A 
ATOM     16  C   UNL     1      -1.111  -0.769  -0.654  0.00  0.00    +0.037 A 
ATOM     17  C   UNL     1      -2.344  -0.274  -1.050  0.00  0.00    +0.070 A 
ATOM     18  N   UNL     1       0.013   0.057  -0.695  0.00  0.00    -0.285 N 
ATOM     19  C   UNL     1      -0.105   1.369  -0.408  0.00  0.00    +0.220 C 
ATOM     20  O   UNL     1      -1.199   1.849  -0.200  0.00  0.00    -0.275 OA
ATOM     21  H   UNL     1       0.994  -0.362  -0.961  0.00  0.00    +0.155 HD
BRANCH  10  22
ATOM     22  O   UNL     1      -6.830  -0.957  -1.724  0.00  0.00    -0.480 OA
ATOM     23  H   UNL     1      -6.894   0.086  -2.068  0.00  0.00    +0.295 HD
ENDBRANCH  10  22
ENDBRANCH   1  19
BRANCH   4  24
ATOM     24  S   UNL     1       3.591   4.886   2.164  0.00  0.00    +0.062 S 
ATOM     25  O   UNL     1       4.755   4.198   2.605  0.00  0.00    -0.153 OA
ATOM     26  O   UNL     1       3.629   6.228   1.701  0.00  0.00    -0.153 OA
BRANCH  24  27
ATOM     27  C   UNL     1       2.447   4.847   3.503  0.00  0.00    +0.126 A 
ATOM     28  C   UNL     1       1.783   6.000   3.879  0.00  0.00    +0.062 A 
ATOM     29  C   UNL     1       0.881   5.968   4.926  0.00  0.00    +0.128 A 
ATOM     30  C   UNL     1       0.649   4.786   5.604  0.00  0.00    +0.034 A 
ATOM     31  C   UNL     1       1.316   3.634   5.233  0.00  0.00    +0.024 A 
ATOM     32  C   UNL     1       2.216   3.663   4.182  0.00  0.00    +0.067 A 
ATOM     33 CL   UNL     1       3.053   2.217   3.714  0.00  0.00    -0.082 Cl
BRANCH  29  34
ATOM     34  N   UNL     1       0.167   7.202   5.325  0.00  0.00    +0.056 N 
ATOM     35  O   UNL     1      -0.624   7.176   6.250  0.00  0.00    -0.126 OA
ATOM     36  O   UNL     1       0.371   8.243   4.727  0.00  0.00    -0.126 OA
ENDBRANCH  29  34
ENDBRANCH  24  27
ENDBRANCH   4  24
TORSDOF 5
