REMARK  Name = ZINC13302565
REMARK  8 active torsions:
REMARK  status: ('A' for Active; 'I' for Inactive)
REMARK    1  A    between atoms: C_1  and  C_2
REMARK    2  A    between atoms: C_2  and  C_4
REMARK    3  A    between atoms: C_2  and  N_27
REMARK    4  A    between atoms: C_7  and  C_10
REMARK    5  A    between atoms: N_15  and  S_16
REMARK    6  A    between atoms: S_16  and  C_19
REMARK    7  A    between atoms: C_22  and  C_25
REMARK    8  A    between atoms: C_28  and  C_30
REMARK                            x       y       z     vdW  Elec       q    Type
REMARK                         _______ _______ _______ _____ _____    ______ ____
ROOT
ATOM      1  C   UNL     1       3.581  -2.559  -4.340  0.00  0.00    +0.080 A 
ATOM      2  C   UNL     1       4.546  -1.871  -3.661  0.00  0.00    +0.077 A 
ATOM      3  S   UNL     1       3.796  -1.753  -2.043  0.00  0.00    -0.059 S 
ATOM      4  C   UNL     1       2.289  -2.633  -2.428  0.00  0.00    +0.178 A 
ATOM      5  N   UNL     1       2.471  -2.924  -3.703  0.00  0.00    -0.224 NA
ATOM      6  N   UNL     1       1.211  -2.926  -1.607  0.00  0.00    -0.194 N 
ATOM      7  H   UNL     1       0.451  -3.413  -1.961  0.00  0.00    +0.176 HD
ENDROOT
BRANCH   1  11
ATOM      8  C   UNL     1       4.117  -3.525  -8.446  0.00  0.00    -0.027 A 
ATOM      9  C   UNL     1       2.959  -3.909  -7.793  0.00  0.00    +0.006 A 
ATOM     10  C   UNL     1       2.780  -3.598  -6.460  0.00  0.00    +0.010 A 
ATOM     11  C   UNL     1       3.768  -2.896  -5.772  0.00  0.00    +0.001 A 
ATOM     12  C   UNL     1       4.930  -2.507  -6.437  0.00  0.00    +0.010 A 
ATOM     13  C   UNL     1       5.101  -2.828  -7.768  0.00  0.00    +0.006 A 
BRANCH   8  15
ATOM     14  C   UNL     1       3.980  -2.644 -10.760  0.00  0.00    +0.033 C 
ATOM     15  C   UNL     1       4.306  -3.867  -9.901  0.00  0.00    +0.100 C 
BRANCH  15  16
ATOM     16  N   UNL     1       5.697  -4.268 -10.131  0.00  0.00    -0.309 N 
ATOM     17  C   UNL     1       6.003  -5.074 -11.167  0.00  0.00    +0.210 C 
ATOM     18  O   UNL     1       5.128  -5.468 -11.909  0.00  0.00    -0.276 OA
ATOM     19  C   UNL     1       7.433  -5.487 -11.403  0.00  0.00    +0.109 C 
ATOM     20  H   UNL     1       6.397  -3.954  -9.538  0.00  0.00    +0.149 HD
ENDBRANCH  15  16
ENDBRANCH   8  15
ENDBRANCH   1  11
BRANCH   6  21
ATOM     21  S   UNL     1       1.222  -2.445  -0.023  0.00  0.00    +0.074 S 
ATOM     22  O   UNL     1       2.476  -2.843   0.514  0.00  0.00    -0.150 OA
ATOM     23  O   UNL     1      -0.014  -2.864   0.538  0.00  0.00    -0.150 OA
BRANCH  21  24
ATOM     24  C   UNL     1       1.208  -0.683  -0.013  0.00  0.00    +0.109 A 
ATOM     25  C   UNL     1       0.002  -0.004   0.002  0.00  0.00    +0.029 A 
ATOM     26  C   UNL     1      -0.017   1.375   0.010  0.00  0.00    +0.017 A 
ATOM     27  C   UNL     1       1.185   2.087   0.002  0.00  0.00    +0.063 A 
ATOM     28  C   UNL     1       2.398   1.395  -0.013  0.00  0.00    +0.017 A 
ATOM     29  C   UNL     1       2.402   0.016  -0.021  0.00  0.00    +0.029 A 
BRANCH  27  30
ATOM     30  C   UNL     1       1.173   3.564   0.009  0.00  0.00    +0.387 C 
ATOM     31  O   UNL     1       0.116   4.162   0.022  0.00  0.00    -0.241 OA
ATOM     32  O   UNL     1       2.334   4.247   0.002  0.00  0.00    -0.241 OA
ENDBRANCH  27  30
ENDBRANCH  21  24
ENDBRANCH   6  21
TORSDOF 6
