REMARK  Name = ZINC13169531
REMARK  8 active torsions:
REMARK  status: ('A' for Active; 'I' for Inactive)
REMARK    1  A    between atoms: C_1  and  C_2
REMARK    2  A    between atoms: C_2  and  C_4
REMARK    3  A    between atoms: C_2  and  S_17
REMARK    4  A    between atoms: N_6  and  C_7
REMARK    5  A    between atoms: C_9  and  C_15
REMARK    6  A    between atoms: C_11  and  C_13
REMARK    7  A    between atoms: S_17  and  C_18
REMARK    8  A    between atoms: C_21  and  N_24
REMARK                            x       y       z     vdW  Elec       q    Type
REMARK                         _______ _______ _______ _____ _____    ______ ____
ROOT
ATOM      1  C   UNL     1       4.907   5.037   0.095  0.00  0.00    +0.230 C 
ATOM      2  O   UNL     1       4.896   3.834  -0.065  0.00  0.00    -0.274 OA
ATOM      3  N   UNL     1       3.750   5.728   0.087  0.00  0.00    -0.285 N 
ATOM      4  H   UNL     1       3.764   6.697   0.140  0.00  0.00    +0.155 HD
ENDROOT
BRANCH   3   5
ATOM      5  C   UNL     1       2.529   5.049   0.003  0.00  0.00    +0.035 A 
ATOM      6  C   UNL     1       1.458   5.630  -0.661  0.00  0.00    +0.038 A 
ATOM      7  C   UNL     1       0.239   4.955  -0.747  0.00  0.00    +0.066 A 
ATOM      8  C   UNL     1       0.098   3.696  -0.164  0.00  0.00    +0.030 A 
ATOM      9  C   UNL     1       1.176   3.116   0.502  0.00  0.00    +0.066 A 
ATOM     10  C   UNL     1       2.391   3.799   0.589  0.00  0.00    +0.038 A 
BRANCH   9  11
ATOM     11  C   UNL     1       1.031   1.782   1.122  0.00  0.00    +0.387 C 
ATOM     12  O   UNL     1       1.971   1.277   1.702  0.00  0.00    -0.241 OA
ATOM     13  O   UNL     1      -0.143   1.127   1.043  0.00  0.00    -0.241 OA
ENDBRANCH   9  11
BRANCH   7  14
ATOM     14  C   UNL     1      -0.901   5.574  -1.454  0.00  0.00    +0.387 C 
ATOM     15  O   UNL     1      -0.778   6.671  -1.961  0.00  0.00    -0.241 OA
ATOM     16  O   UNL     1      -2.077   4.923  -1.536  0.00  0.00    -0.241 OA
ENDBRANCH   7  14
ENDBRANCH   3   5
BRANCH   1  18
ATOM     17  C   UNL     1       6.654   6.404  -1.014  0.00  0.00    +0.029 C 
ATOM     18  C   UNL     1       6.214   5.757   0.302  0.00  0.00    +0.134 C 
BRANCH  18  19
ATOM     19  S   UNL     1       7.477   4.574   0.846  0.00  0.00    -0.113 S 
BRANCH  19  20
ATOM     20  C   UNL     1       8.876   5.582   1.210  0.00  0.00    +0.009 A 
ATOM     21  C   UNL     1       9.797   5.882   0.214  0.00  0.00    +0.017 A 
ATOM     22  C   UNL     1      10.888   6.678   0.502  0.00  0.00    +0.034 A 
ATOM     23  C   UNL     1      11.072   7.165   1.783  0.00  0.00    +0.126 A 
ATOM     24  C   UNL     1      10.161   6.862   2.779  0.00  0.00    +0.034 A 
ATOM     25  C   UNL     1       9.064   6.073   2.497  0.00  0.00    +0.017 A 
BRANCH  23  26
ATOM     26  N   UNL     1      12.247   8.011   2.089  0.00  0.00    +0.056 N 
ATOM     27  O   UNL     1      12.411   8.441   3.217  0.00  0.00    -0.126 OA
ATOM     28  O   UNL     1      13.050   8.278   1.213  0.00  0.00    -0.126 OA
ENDBRANCH  23  26
ENDBRANCH  19  20
ENDBRANCH  18  19
ENDBRANCH   1  18
TORSDOF 7
