REMARK  Name = ZINC64131331
REMARK  10 active torsions:
REMARK  status: ('A' for Active; 'I' for Inactive)
REMARK    1  A    between atoms: C_1  and  C_2
REMARK    2  A    between atoms: C_2  and  C_3
REMARK    3  A    between atoms: C_2  and  C_4
REMARK    4  A    between atoms: C_4  and  C_6
REMARK    5  A    between atoms: C_4  and  N_26
REMARK    6  A    between atoms: N_8  and  C_9
REMARK    7  A    between atoms: C_9  and  C_10
REMARK    8  A    between atoms: C_10  and  C_12
REMARK    9  A    between atoms: C_10  and  C_17
REMARK   10  A    between atoms: C_27  and  C_29
REMARK                            x       y       z     vdW  Elec       q    Type
REMARK                         _______ _______ _______ _____ _____    ______ ____
ROOT
ATOM      1  C   UNL     1      -1.243  -2.056   0.094  0.00  0.00    +0.234 C 
ATOM      2  O   UNL     1      -1.650  -2.818  -0.756  0.00  0.00    -0.274 OA
ATOM      3  N   UNL     1      -0.710  -2.540   1.234  0.00  0.00    -0.313 N 
ATOM      4  H   UNL     1      -0.318  -1.934   1.882  0.00  0.00    +0.149 HD
ENDROOT
BRANCH   1   5
ATOM      5  C   UNL     1      -1.332  -0.567  -0.123  0.00  0.00    +0.161 C 
BRANCH   5   6
ATOM      6  N   UNL     1      -2.353  -0.281  -1.134  0.00  0.00    -0.303 N 
ATOM      7  C   UNL     1      -2.970   0.917  -1.148  0.00  0.00    +0.227 C 
ATOM      8  O   UNL     1      -2.681   1.758  -0.324  0.00  0.00    -0.275 OA
ATOM      9  H   UNL     1      -2.584  -0.954  -1.793  0.00  0.00    +0.149 HD
BRANCH   7  10
ATOM     10  C   UNL     1      -4.020   1.210  -2.189  0.00  0.00    +0.140 C 
ATOM     11  C   UNL     1      -4.058   2.719  -2.549  0.00  0.00    +0.051 C 
ATOM     12  C   UNL     1      -5.465   3.181  -2.749  0.00  0.00    -0.019 C 
ATOM     13  C   UNL     1      -6.465   2.463  -2.277  0.00  0.00    +0.037 C 
ATOM     14  S   UNL     1      -5.721   1.039  -1.500  0.00  0.00    -0.120 S 
ENDBRANCH   7  10
ENDBRANCH   5   6
BRANCH   5  16
ATOM     15  C   UNL     1       0.336  -0.618  -1.982  0.00  0.00    +0.009 C 
ATOM     16  C   UNL     1       0.022  -0.039  -0.601  0.00  0.00    +0.012 C 
ATOM     17  C   UNL     1      -0.027   1.488  -0.687  0.00  0.00    +0.009 C 
ENDBRANCH   5  16
ENDBRANCH   1   5
BRANCH   3  18
ATOM     18  C   UNL     1      -0.723  -3.982   1.493  0.00  0.00    +0.117 C 
BRANCH  18  19
ATOM     19  C   UNL     1      -0.061  -4.262   2.844  0.00  0.00    +0.071 C 
BRANCH  19  20
ATOM     20  C   UNL     1      -0.184  -5.729   3.168  0.00  0.00    -0.032 C 
ATOM     21  C   UNL     1      -0.805  -6.277   4.237  0.00  0.00    -0.000 A 
ATOM     22  C   UNL     1      -1.524  -5.693   5.376  0.00  0.00    +0.010 A 
ATOM     23  C   UNL     1      -2.050  -6.516   6.311  0.00  0.00    +0.001 A 
ATOM     24  C   UNL     1      -1.925  -7.910   6.221  0.00  0.00    +0.002 A 
ATOM     25  C   UNL     1      -1.278  -8.519   5.205  0.00  0.00    +0.026 A 
ATOM     26  C   UNL     1      -0.687  -7.751   4.165  0.00  0.00    +0.043 A 
ATOM     27  N   UNL     1      -0.018  -8.101   3.093  0.00  0.00    -0.380 N 
ATOM     28  C   UNL     1       0.358  -6.887   2.360  0.00  0.00    +0.145 C 
ATOM     29  H   UNL     1       0.189  -9.010   2.827  0.00  0.00    +0.160 HD
ENDBRANCH  19  20
BRANCH  19  30
ATOM     30  C   UNL     1       1.395  -3.882   2.779  0.00  0.00    -0.002 A 
ATOM     31  C   UNL     1       2.075  -2.976   3.524  0.00  0.00    +0.012 A 
ATOM     32  C   UNL     1       3.424  -2.791   3.288  0.00  0.00    +0.008 A 
ATOM     33  C   UNL     1       4.027  -3.520   2.317  0.00  0.00    +0.045 A 
ATOM     34  S   UNL     1       2.675  -4.512   1.706  0.00  0.00    -0.101 S 
ENDBRANCH  19  30
ENDBRANCH  18  19
ENDBRANCH   3  18
TORSDOF 8
