REMARK  Name = ZINC32624523
REMARK  2 active torsions:
REMARK  status: ('A' for Active; 'I' for Inactive)
REMARK    1  A    between atoms: C_1  and  C_2
REMARK    2  A    between atoms: N_11  and  C_14
REMARK                            x       y       z     vdW  Elec       q    Type
REMARK                         _______ _______ _______ _____ _____    ______ ____
ROOT
ATOM      1  C   UNL     1       1.086  -2.199  -0.020  0.00  0.00    +0.067 C 
ATOM      2  C   UNL     1       1.126  -0.693  -0.012  0.00  0.00    +0.061 A 
ATOM      3  C   UNL     1       2.346  -0.031  -0.021  0.00  0.00    +0.028 A 
ATOM      4  C   UNL     1       2.335   1.355  -0.013  0.00  0.00    +0.047 A 
ATOM      5  C   UNL     1       1.098   1.998   0.002  0.00  0.00    +0.144 A 
ATOM      6  N   UNL     1      -0.015   1.279   0.009  0.00  0.00    -0.134 NA
ATOM      7  N   UNL     1       0.002  -0.004   0.002  0.00  0.00    -0.153 NA
ATOM      8  N   UNL     1       1.032   3.387   0.010  0.00  0.00    -0.311 N 
ATOM      9  C   UNL     1       1.781   3.943   1.146  0.00  0.00    +0.125 C 
ATOM     10  C   UNL     1       1.751   5.472   1.074  0.00  0.00    +0.124 C 
ATOM     11  N   UNL     1       0.356   5.933   1.089  0.00  0.00    -0.327 N 
ATOM     12  C   UNL     1      -0.392   5.377  -0.047  0.00  0.00    +0.124 C 
ATOM     13  C   UNL     1      -0.363   3.849   0.025  0.00  0.00    +0.125 C 
ENDROOT
BRANCH  11  14
ATOM     14  C   UNL     1       0.290   7.328   1.097  0.00  0.00    +0.031 A 
ATOM     15  C   UNL     1      -0.415   7.997   0.104  0.00  0.00    +0.023 A 
ATOM     16  C   UNL     1      -0.483   9.377   0.117  0.00  0.00    +0.003 A 
ATOM     17  C   UNL     1       0.160  10.093   1.110  0.00  0.00    +0.020 A 
ATOM     18  C   UNL     1       0.868   9.430   2.098  0.00  0.00    +0.043 A 
ATOM     19  C   UNL     1       0.935   8.050   2.093  0.00  0.00    +0.043 A 
ATOM     20 CL   UNL     1       1.673  10.334   3.342  0.00  0.00    -0.083 Cl
ENDBRANCH  11  14
TORSDOF 1
