REMARK  Name = ZINC14160427
REMARK  6 active torsions:
REMARK  status: ('A' for Active; 'I' for Inactive)
REMARK    1  A    between atoms: C_1  and  C_2
REMARK    2  A    between atoms: C_7  and  N_8
REMARK    3  A    between atoms: N_15  and  C_16
REMARK    4  A    between atoms: N_18  and  C_19
REMARK    5  A    between atoms: C_32  and  C_37
REMARK    6  A    between atoms: C_34  and  C_36
REMARK                            x       y       z     vdW  Elec       q    Type
REMARK                         _______ _______ _______ _____ _____    ______ ____
ROOT
ATOM      1  N   UNL     1     -10.387   1.253  -0.211  0.00  0.00    -0.327 N 
ATOM      2  C   UNL     1      -9.158   0.603  -0.685  0.00  0.00    +0.124 C 
ATOM      3  C   UNL     1      -8.473  -0.104   0.489  0.00  0.00    +0.126 C 
ATOM      4  N   UNL     1      -8.282   0.870   1.575  0.00  0.00    -0.302 N 
ATOM      5  C   UNL     1      -9.444   1.656   2.016  0.00  0.00    +0.126 C 
ATOM      6  C   UNL     1     -10.090   2.298   0.778  0.00  0.00    +0.124 C 
ATOM      7  C   UNL     1      -7.062   1.035   2.161  0.00  0.00    +0.183 C 
ATOM      8  N   UNL     1      -5.972   1.094   1.414  0.00  0.00    -0.134 NA
ATOM      9  N   UNL     1      -6.965   1.141   3.522  0.00  0.00    -0.258 N 
ATOM     10  C   UNL     1      -7.918   0.542   4.334  0.00  0.00    +0.222 A 
ATOM     11  N   UNL     1      -8.850  -0.220   3.783  0.00  0.00    -0.219 NA
ATOM     12  C   UNL     1      -9.770  -0.810   4.529  0.00  0.00    +0.044 A 
ATOM     13  C   UNL     1      -9.756  -0.614   5.901  0.00  0.00    +0.046 A 
ATOM     14  C   UNL     1      -8.769   0.195   6.444  0.00  0.00    +0.044 A 
ATOM     15  N   UNL     1      -7.876   0.750   5.641  0.00  0.00    -0.219 NA
ATOM     16  C   UNL     1      -8.714   0.436   7.930  0.00  0.00    +0.066 C 
ATOM     17  C   UNL     1     -10.823  -1.681   3.894  0.00  0.00    +0.066 C 
ATOM     18  H   UNL     1      -6.132   1.701   3.972  0.00  0.00    +0.157 HD
ENDROOT
BRANCH   1  25
ATOM     19  C   UNL     1     -13.025   0.272  -0.619  0.00  0.00    +0.045 C 
ATOM     20  C   UNL     1     -12.416   1.319  -1.515  0.00  0.00    -0.029 A 
ATOM     21  C   UNL     1     -13.144   1.834  -2.570  0.00  0.00    +0.006 A 
ATOM     22  C   UNL     1     -12.585   2.791  -3.396  0.00  0.00    +0.020 A 
ATOM     23  C   UNL     1     -11.296   3.239  -3.167  0.00  0.00    +0.043 A 
ATOM     24  C   UNL     1     -10.564   2.731  -2.111  0.00  0.00    +0.043 A 
ATOM     25  C   UNL     1     -11.124   1.770  -1.279  0.00  0.00    +0.034 A 
ATOM     26 CL   UNL     1     -10.597   4.441  -4.207  0.00  0.00    -0.083 Cl
ENDBRANCH   1  25
BRANCH   8  27
ATOM     27  C   UNL     1      -4.763   1.114   1.993  0.00  0.00    +0.326 C 
ATOM     28  O   UNL     1      -4.659   0.939   3.194  0.00  0.00    -0.251 OA
ATOM     29  N   UNL     1      -3.662   1.329   1.246  0.00  0.00    -0.292 N 
ATOM     30  H   UNL     1      -3.761   1.580   0.179  0.00  0.00    +0.151 HD
BRANCH  29  31
ATOM     31  C   UNL     1      -2.333   1.229   1.854  0.00  0.00    +0.037 C 
ATOM     32  C   UNL     1      -1.264   1.491   0.791  0.00  0.00    +0.029 C 
ATOM     33  C   UNL     1       0.124   1.386   1.427  0.00  0.00    -0.008 C 
ATOM     34  C   UNL     1       0.315  -0.017   2.006  0.00  0.00    +0.007 C 
ATOM     35  C   UNL     1      -0.754  -0.279   3.069  0.00  0.00    -0.008 C 
ATOM     36  C   UNL     1      -2.142  -0.174   2.434  0.00  0.00    +0.029 C 
ATOM     37  C   UNL     1      -0.626   0.757   4.188  0.00  0.00    +0.007 C 
ATOM     38  C   UNL     1      -0.817   2.160   3.608  0.00  0.00    -0.008 C 
ATOM     39  C   UNL     1       0.252   2.422   2.545  0.00  0.00    +0.007 C 
ATOM     40  C   UNL     1      -2.204   2.265   2.973  0.00  0.00    +0.029 C 
ENDBRANCH  29  31
ENDBRANCH   8  27
TORSDOF 3
