REMARK  Name = ZINC15709353
REMARK  9 active torsions:
REMARK  status: ('A' for Active; 'I' for Inactive)
REMARK    1  A    between atoms: C_1  and  C_2
REMARK    2  A    between atoms: C_2  and  C_3
REMARK    3  A    between atoms: C_2  and  C_4
REMARK    4  A    between atoms: C_4  and  C_5
REMARK    5  A    between atoms: C_5  and  C_7
REMARK    6  A    between atoms: C_5  and  N_64
REMARK    7  A    between atoms: N_9  and  C_10
REMARK    8  A    between atoms: C_24  and  C_29
REMARK    9  A    between atoms: C_36  and  N_64
REMARK                            x       y       z     vdW  Elec       q    Type
REMARK                         _______ _______ _______ _____ _____    ______ ____
ROOT
ATOM      1  C   UNL     1       4.312  -8.439  -2.466  0.00  0.00    +0.077 C 
ATOM      2  C   UNL     1       5.071  -7.107  -2.413  0.00  0.00    +0.041 C 
ATOM      3  C   UNL     1       4.533  -6.296  -1.237  0.00  0.00    +0.111 C 
ATOM      4  N   UNL     1       3.091  -6.179  -1.312  0.00  0.00    -0.286 N 
ATOM      5  C   UNL     1       2.212  -7.176  -1.889  0.00  0.00    +0.164 C 
ATOM      6  C   UNL     1       2.861  -8.150  -2.840  0.00  0.00    +0.054 C 
ATOM      7  C   UNL     1       1.434  -7.863  -0.807  0.00  0.00    +0.238 C 
ATOM      8  O   UNL     1       1.601  -9.048  -0.607  0.00  0.00    -0.273 OA
ATOM      9  N   UNL     1       0.559  -7.186  -0.062  0.00  0.00    -0.283 N 
ATOM     10  C   UNL     1       0.200  -5.866  -0.278  0.00  0.00    +0.046 A 
ATOM     11  C   UNL     1      -1.157  -5.555  -0.129  0.00  0.00    +0.024 A 
ATOM     12  C   UNL     1      -1.617  -4.279  -0.346  0.00  0.00    +0.010 A 
ATOM     13  C   UNL     1      -0.729  -3.271  -0.724  0.00  0.00    -0.017 A 
ATOM     14  C   UNL     1       0.618  -3.562  -0.873  0.00  0.00    +0.023 A 
ATOM     15  C   UNL     1       1.097  -4.860  -0.635  0.00  0.00    +0.059 A 
ATOM     16  C   UNL     1       2.544  -5.071  -0.772  0.00  0.00    +0.249 C 
ATOM     17  O   UNL     1       3.291  -4.198  -0.376  0.00  0.00    -0.270 OA
ATOM     18  H   UNL     1       0.146  -7.650   0.683  0.00  0.00    +0.155 HD
ENDROOT
BRANCH  13  19
ATOM     19  C   UNL     1      -1.225  -1.894  -0.972  0.00  0.00    -0.018 A 
ATOM     20  C   UNL     1      -2.580  -1.603  -0.828  0.00  0.00    +0.010 A 
ATOM     21  C   UNL     1      -3.037  -0.322  -1.059  0.00  0.00    +0.020 A 
ATOM     22  C   UNL     1      -2.151   0.674  -1.434  0.00  0.00    +0.041 A 
ATOM     23  C   UNL     1      -0.804   0.390  -1.579  0.00  0.00    +0.020 A 
ATOM     24  C   UNL     1      -0.338  -0.888  -1.349  0.00  0.00    +0.010 A 
ATOM     25 CL   UNL     1      -2.732   2.284  -1.724  0.00  0.00    -0.084 Cl
ENDBRANCH  13  19
BRANCH   1  28
ATOM     26  C   UNL     1       5.963 -10.097  -3.147  0.00  0.00    +0.199 C 
ATOM     27  O   UNL     1       6.403 -10.080  -2.018  0.00  0.00    -0.278 OA
ATOM     28  N   UNL     1       4.917  -9.312  -3.475  0.00  0.00    -0.314 N 
ATOM     29  H   UNL     1       4.565  -9.325  -4.379  0.00  0.00    +0.149 HD
BRANCH  26  30
ATOM     30  C   UNL     1       6.585 -10.995  -4.185  0.00  0.00    +0.016 C 
BRANCH  30  32
ATOM     31  C   UNL     1       7.484 -12.537  -2.549  0.00  0.00    -0.099 C 
ATOM     32  N   UNL     1       7.814 -11.602  -3.641  0.00  0.00    +0.385 N 
ATOM     33  H   UNL     1       8.427 -10.861  -3.280  0.00  0.00    -0.085 HD
ATOM     34  H   UNL     1       8.299 -12.113  -4.389  0.00  0.00    -0.085 HD
ENDBRANCH  30  32
BRANCH  30  35
ATOM     35  C   UNL     1       5.593 -12.095  -4.569  0.00  0.00    -0.004 C 
BRANCH  35  37
ATOM     36  C   UNL     1       5.250 -14.112  -6.002  0.00  0.00    +0.007 C 
ATOM     37  C   UNL     1       6.165 -12.918  -5.724  0.00  0.00    -0.018 C 
ATOM     38  C   UNL     1       6.257 -12.044  -6.976  0.00  0.00    +0.007 C 
ENDBRANCH  35  37
ENDBRANCH  30  35
ENDBRANCH  26  30
ENDBRANCH   1  28
TORSDOF 6
