REMARK  Name = ZINC12323329
REMARK  4 active torsions:
REMARK  status: ('A' for Active; 'I' for Inactive)
REMARK    1  A    between atoms: C_2  and  N_9
REMARK    2  A    between atoms: C_10  and  C_12
REMARK    3  A    between atoms: C_15  and  O_34
REMARK    4  A    between atoms: C_28  and  C_31
REMARK                            x       y       z     vdW  Elec       q    Type
REMARK                         _______ _______ _______ _____ _____    ______ ____
ROOT
ATOM      1  C   UNL     1       2.293   5.676   0.225  0.00  0.00    +0.123 C 
ATOM      2  C   UNL     1       1.524   6.084   1.486  0.00  0.00    +0.113 C 
ATOM      3  C   UNL     1       2.361   5.796   2.704  0.00  0.00    +0.190 C 
ATOM      4  N   UNL     1       3.650   5.929   2.689  0.00  0.00    -0.197 NA
ATOM      5  C   UNL     1       4.322   6.292   1.564  0.00  0.00    +0.169 A 
ATOM      6  C   UNL     1       3.703   6.196   0.320  0.00  0.00    +0.073 A 
ATOM      7  C   UNL     1       4.400   6.586  -0.824  0.00  0.00    +0.259 A 
ATOM      8  O   UNL     1       3.876   6.523  -1.925  0.00  0.00    -0.267 OA
ATOM      9  N   UNL     1       5.666   7.035  -0.688  0.00  0.00    -0.295 N 
ATOM     10  H   UNL     1       6.164   7.324  -1.469  0.00  0.00    +0.172 HD
ATOM     11  C   UNL     1       6.247   7.082   0.542  0.00  0.00    +0.200 A 
ATOM     12  N   UNL     1       5.593   6.720   1.633  0.00  0.00    -0.196 NA
ATOM     13  N   UNL     1       7.540   7.519   0.655  0.00  0.00    -0.301 N 
ATOM     14  C   UNL     1       8.237   7.469   1.947  0.00  0.00    +0.108 C 
ATOM     15  C   UNL     1       9.558   6.714   1.766  0.00  0.00    +0.032 C 
ATOM     16  C   UNL     1      10.364   7.368   0.641  0.00  0.00    +0.078 C 
ATOM     17  C   UNL     1       9.577   7.284  -0.668  0.00  0.00    +0.032 C 
ATOM     18  C   UNL     1       8.258   8.040  -0.516  0.00  0.00    +0.108 C 
ENDROOT
BRANCH  16  19
ATOM     19  C   UNL     1      11.679   6.649   0.483  0.00  0.00    +0.214 C 
ATOM     20  O   UNL     1      11.945   5.707   1.200  0.00  0.00    -0.276 OA
ATOM     21  N   UNL     1      12.560   7.053  -0.454  0.00  0.00    -0.329 N 
ATOM     22  H   UNL     1      12.347   7.806  -1.026  0.00  0.00    +0.145 HD
ATOM     23  H   UNL     1      13.406   6.590  -0.555  0.00  0.00    +0.145 HD
ENDBRANCH  16  19
BRANCH   1  25
ATOM     24  N   UNL     1       1.160   3.486   0.021  0.00  0.00    -0.285 N 
ATOM     25  C   UNL     1       2.316   4.173   0.113  0.00  0.00    +0.225 C 
ATOM     26  O   UNL     1       3.375   3.582   0.106  0.00  0.00    -0.275 OA
ATOM     27  H   UNL     1       0.318   3.962  -0.049  0.00  0.00    +0.155 HD
BRANCH  24  29
ATOM     28  C   UNL     1       2.133   1.404   0.763  0.00  0.00    +0.043 A 
ATOM     29  C   UNL     1       1.175   2.087   0.025  0.00  0.00    +0.036 A 
ATOM     30  C   UNL     1       0.232   1.379  -0.709  0.00  0.00    +0.043 A 
ATOM     31  C   UNL     1       0.249  -0.003  -0.703  0.00  0.00    +0.044 A 
ATOM     32  C   UNL     1       1.204  -0.681   0.034  0.00  0.00    +0.040 A 
ATOM     33  C   UNL     1       2.146   0.022   0.765  0.00  0.00    +0.044 A 
ATOM     34 CL   UNL     1       3.343  -0.833   1.687  0.00  0.00    -0.083 Cl
ATOM     35 CL   UNL     1      -0.929  -0.889  -1.619  0.00  0.00    -0.083 Cl
ENDBRANCH  24  29
ENDBRANCH   1  25
BRANCH   3  36
ATOM     36  O   UNL     1       1.755   5.391   3.835  0.00  0.00    -0.495 OA
ATOM     37  H   UNL     1       2.362   5.228   4.570  0.00  0.00    +0.293 HD
ENDBRANCH   3  36
TORSDOF 4
