REMARK  Name = ZINC08894513
REMARK  9 active torsions:
REMARK  status: ('A' for Active; 'I' for Inactive)
REMARK    1  A    between atoms: C_1  and  C_2
REMARK    2  A    between atoms: C_2  and  C_4
REMARK    3  A    between atoms: C_2  and  N_15
REMARK    4  A    between atoms: N_6  and  C_7
REMARK    5  A    between atoms: C_22  and  C_25
REMARK    6  A    between atoms: C_28  and  O_33
REMARK    7  A    between atoms: C_29  and  O_31
REMARK    8  A    between atoms: O_31  and  C_32
REMARK    9  A    between atoms: O_33  and  C_34
REMARK                            x       y       z     vdW  Elec       q    Type
REMARK                         _______ _______ _______ _____ _____    ______ ____
ROOT
ATOM      1  N   UNL     1       2.359  -1.525   2.745  0.00  0.00    -0.287 N 
ATOM      2  C   UNL     1       3.593  -2.058   2.554  0.00  0.00    +0.204 A 
ATOM      3  N   UNL     1       4.385  -1.609   1.617  0.00  0.00    -0.230 NA
ATOM      4  C   UNL     1       4.007  -0.614   0.819  0.00  0.00    +0.116 A 
ATOM      5  C   UNL     1       2.749  -0.001   0.941  0.00  0.00    +0.080 A 
ATOM      6  C   UNL     1       1.907  -0.516   1.977  0.00  0.00    +0.263 A 
ATOM      7  O   UNL     1       0.796  -0.048   2.162  0.00  0.00    -0.267 OA
ATOM      8  C   UNL     1       2.490   1.074  -0.009  0.00  0.00    +0.004 A 
ATOM      9  C   UNL     1       3.448   1.387  -0.915  0.00  0.00    +0.056 A 
ATOM     10  S   UNL     1       4.768   0.253  -0.529  0.00  0.00    -0.076 S 
ENDROOT
BRANCH   8  11
ATOM     11  C   UNL     1       1.201   1.805   0.010  0.00  0.00    -0.013 A 
ATOM     12  C   UNL     1      -0.002   1.100   0.018  0.00  0.00    +0.012 A 
ATOM     13  C   UNL     1      -1.202   1.782   0.031  0.00  0.00    +0.050 A 
ATOM     14  C   UNL     1      -1.214   3.168   0.047  0.00  0.00    +0.162 A 
ATOM     15  C   UNL     1      -0.016   3.878   0.039  0.00  0.00    +0.162 A 
ATOM     16  C   UNL     1       1.189   3.199   0.020  0.00  0.00    +0.058 A 
BRANCH  15  17
ATOM     17  O   UNL     1      -0.031   5.237   0.049  0.00  0.00    -0.491 OA
ATOM     18  C   UNL     1       1.235   5.900   0.040  0.00  0.00    +0.277 C 
ENDBRANCH  15  17
BRANCH  14  19
ATOM     19  O   UNL     1      -2.399   3.836   0.065  0.00  0.00    -0.491 OA
ATOM     20  C   UNL     1      -3.589   3.046   0.073  0.00  0.00    +0.277 C 
ENDBRANCH  14  19
ENDBRANCH   8  11
BRANCH   1  22
ATOM     21  C   UNL     1       1.239  -3.543   3.553  0.00  0.00    +0.041 C 
ATOM     22  C   UNL     1       1.503  -2.058   3.808  0.00  0.00    +0.174 C 
BRANCH  22  23
ATOM     23  C   UNL     1       2.191  -1.891   5.138  0.00  0.00    +0.240 C 
ATOM     24  O   UNL     1       3.289  -1.377   5.193  0.00  0.00    -0.273 OA
ATOM     25  N   UNL     1       1.587  -2.312   6.267  0.00  0.00    -0.284 N 
ATOM     26  H   UNL     1       0.683  -2.661   6.232  0.00  0.00    +0.155 HD
BRANCH  25  27
ATOM     27  C   UNL     1       2.265  -2.246   7.489  0.00  0.00    +0.036 A 
ATOM     28  C   UNL     1       2.063  -3.228   8.450  0.00  0.00    +0.043 A 
ATOM     29  C   UNL     1       2.738  -3.163   9.655  0.00  0.00    +0.044 A 
ATOM     30  C   UNL     1       3.605  -2.115   9.909  0.00  0.00    +0.040 A 
ATOM     31  C   UNL     1       3.804  -1.132   8.955  0.00  0.00    +0.044 A 
ATOM     32  C   UNL     1       3.136  -1.195   7.746  0.00  0.00    +0.043 A 
ATOM     33 CL   UNL     1       4.892   0.181   9.276  0.00  0.00    -0.083 Cl
ATOM     34 CL   UNL     1       2.491  -4.394  10.854  0.00  0.00    -0.083 Cl
ENDBRANCH  25  27
ENDBRANCH  22  23
ENDBRANCH   1  22
TORSDOF 6
