REMARK  Name = ZINC19058416
REMARK  11 active torsions:
REMARK  status: ('A' for Active; 'I' for Inactive)
REMARK    1  A    between atoms: C_1  and  C_2
REMARK    2  A    between atoms: C_4  and  C_15
REMARK    3  A    between atoms: C_5  and  C_14
REMARK    4  A    between atoms: N_6  and  C_7
REMARK    5  A    between atoms: C_16  and  C_17
REMARK    6  A    between atoms: C_16  and  C_19
REMARK    7  A    between atoms: C_19  and  O_21
REMARK    8  A    between atoms: O_21  and  C_22
REMARK    9  A    between atoms: C_22  and  C_23
REMARK   10  A    between atoms: N_25  and  C_26
REMARK   11  A    between atoms: C_26  and  C_27
REMARK                            x       y       z     vdW  Elec       q    Type
REMARK                         _______ _______ _______ _____ _____    ______ ____
ROOT
ATOM      1  C   UNL     1       1.870   3.107   0.001  0.00  0.00    +0.035 C 
ATOM      2  C   UNL     1       1.089   4.123   0.519  0.00  0.00    +0.136 C 
ENDROOT
BRANCH   1   6
ATOM      3  C   UNL     1      -1.250  -0.865   0.081  0.00  0.00    +0.064 C 
ATOM      4  C   UNL     1      -0.029   0.015   0.000  0.00  0.00    +0.022 A 
ATOM      5  C   UNL     1      -0.028   1.354   0.098  0.00  0.00    +0.031 A 
ATOM      6  C   UNL     1       1.373   1.780  -0.037  0.00  0.00    -0.003 A 
ATOM      7  C   UNL     1       2.107   0.618  -0.210  0.00  0.00    +0.028 A 
ATOM      8  N   UNL     1       1.253  -0.424  -0.184  0.00  0.00    -0.317 N 
ATOM      9  C   UNL     1       3.601   0.534  -0.394  0.00  0.00    +0.064 C 
BRANCH   8  10
ATOM     10  C   UNL     1       1.626  -1.768  -0.328  0.00  0.00    +0.047 A 
ATOM     11  C   UNL     1       2.430  -2.372   0.629  0.00  0.00    +0.027 A 
ATOM     12  C   UNL     1       2.791  -3.698   0.488  0.00  0.00    +0.017 A 
ATOM     13  C   UNL     1       2.362  -4.420  -0.611  0.00  0.00    +0.018 A 
ATOM     14  C   UNL     1       1.565  -3.819  -1.569  0.00  0.00    +0.017 A 
ATOM     15  C   UNL     1       1.196  -2.495  -1.430  0.00  0.00    +0.027 A 
ATOM     16 BR   UNL     1       2.865  -6.233  -0.804  0.00  0.00    -0.050 Br
ENDBRANCH   8  10
ENDBRANCH   1   6
BRANCH   2  17
ATOM     17  C   UNL     1      -0.159   3.816   1.150  0.00  0.00    +0.106 C 
ATOM     18  N   UNL     1      -1.149   3.572   1.651  0.00  0.00    -0.191 NA
ENDBRANCH   2  17
BRANCH   2  19
ATOM     19  C   UNL     1       1.539   5.516   0.422  0.00  0.00    +0.350 C 
ATOM     20  O   UNL     1       2.599   5.777  -0.114  0.00  0.00    -0.244 OA
BRANCH  19  21
ATOM     21  O   UNL     1       0.777   6.508   0.928  0.00  0.00    -0.451 OA
BRANCH  21  22
ATOM     22  C   UNL     1       1.285   7.862   0.797  0.00  0.00    +0.328 C 
BRANCH  22  23
ATOM     23  C   UNL     1       0.306   8.827   1.415  0.00  0.00    +0.251 C 
ATOM     24  O   UNL     1      -0.718   8.415   1.917  0.00  0.00    -0.272 OA
ATOM     25  N   UNL     1       0.570  10.149   1.410  0.00  0.00    -0.302 N 
ATOM     26  H   UNL     1       1.389  10.479   1.009  0.00  0.00    +0.150 HD
BRANCH  25  27
ATOM     27  C   UNL     1      -0.381  11.087   2.011  0.00  0.00    +0.193 C 
BRANCH  27  28
ATOM     28  C   UNL     1       0.133  12.460   1.878  0.00  0.00    -0.087 C 
ATOM     29  C   UNL     1       0.544  13.555   1.772  0.00  0.00    +0.005 C 
ENDBRANCH  27  28
ENDBRANCH  25  27
ENDBRANCH  22  23
ENDBRANCH  21  22
ENDBRANCH  19  21
ENDBRANCH   2  19
TORSDOF 9
