REMARK  Name = ZINC38986355
REMARK  7 active torsions:
REMARK  status: ('A' for Active; 'I' for Inactive)
REMARK    1  A    between atoms: C_4  and  C_7
REMARK    2  A    between atoms: C_9  and  C_13
REMARK    3  A    between atoms: C_17  and  S_21
REMARK    4  A    between atoms: N_19  and  N_20
REMARK    5  A    between atoms: S_21  and  C_22
REMARK    6  A    between atoms: C_22  and  C_23
REMARK    7  A    between atoms: N_25  and  C_26
REMARK                            x       y       z     vdW  Elec       q    Type
REMARK                         _______ _______ _______ _____ _____    ______ ____
ROOT
ATOM      1  C   UNL     1       5.808  -2.976   1.168  0.00  0.00    +0.185 C 
ATOM      2  N   UNL     1       5.203  -4.334   1.176  0.00  0.00    -0.234 NA
ATOM      3  N   UNL     1       6.124  -5.103   2.027  0.00  0.00    -0.228 NA
ATOM      4  C   UNL     1       7.467  -4.586   1.681  0.00  0.00    +0.214 C 
ATOM      5  N   UNL     1       7.267  -3.225   1.135  0.00  0.00    -0.197 NA
ATOM      6  H   UNL     1       4.275  -4.315   1.572  0.00  0.00    +0.143 HD
ATOM      7  H   UNL     1       5.921  -4.956   3.005  0.00  0.00    +0.143 HD
ENDROOT
BRANCH   1  10
ATOM      8  C   UNL     1       3.735  -0.642  -0.047  0.00  0.00    +0.091 C 
ATOM      9  C   UNL     1       3.866  -1.983  -0.068  0.00  0.00    +0.034 C 
ATOM     10  C   UNL     1       5.368  -2.201  -0.076  0.00  0.00    +0.187 C 
ATOM     11  N   UNL     1       5.907  -0.831  -0.056  0.00  0.00    -0.176 NA
ATOM     12  N   UNL     1       4.956  -0.046  -0.047  0.00  0.00    -0.154 NA
BRANCH   8  16
ATOM     13  C   UNL     1       0.023   1.432  -0.006  0.00  0.00    +0.000 A 
ATOM     14  C   UNL     1       1.210   2.143  -0.004  0.00  0.00    +0.001 A 
ATOM     15  C   UNL     1       2.417   1.475  -0.017  0.00  0.00    +0.010 A 
ATOM     16  C   UNL     1       2.439   0.081  -0.033  0.00  0.00    +0.002 A 
ATOM     17  C   UNL     1       1.241  -0.629  -0.035  0.00  0.00    +0.010 A 
ATOM     18  C   UNL     1       0.039   0.049  -0.022  0.00  0.00    +0.001 A 
ENDBRANCH   8  16
ENDBRANCH   1  10
BRANCH   5  19
ATOM     19  N   UNL     1       7.983  -2.235   1.923  0.00  0.00    -0.264 NA
ATOM     20  H   UNL     1       8.977  -2.404   1.901  0.00  0.00    +0.137 HD
ATOM     21  H   UNL     1       7.768  -1.300   1.610  0.00  0.00    +0.137 HD
ENDBRANCH   5  19
BRANCH   4  22
ATOM     22  S   UNL     1       8.507  -4.513   3.165  0.00  0.00    -0.115 S 
BRANCH  22  23
ATOM     23  C   UNL     1       7.592  -3.421   4.288  0.00  0.00    +0.168 C 
BRANCH  23  24
ATOM     24  C   UNL     1       8.356  -3.273   5.579  0.00  0.00    +0.227 C 
ATOM     25  O   UNL     1       9.415  -3.847   5.726  0.00  0.00    -0.275 OA
ATOM     26  N   UNL     1       7.864  -2.503   6.569  0.00  0.00    -0.284 N 
ATOM     27  H   UNL     1       7.051  -1.992   6.428  0.00  0.00    +0.155 HD
BRANCH  26  28
ATOM     28  C   UNL     1       8.526  -2.439   7.801  0.00  0.00    +0.053 A 
ATOM     29  C   UNL     1       9.912  -2.505   7.850  0.00  0.00    +0.044 A 
ATOM     30  C   UNL     1      10.562  -2.442   9.068  0.00  0.00    +0.043 A 
ATOM     31  C   UNL     1       9.833  -2.312  10.238  0.00  0.00    +0.021 A 
ATOM     32  C   UNL     1       8.453  -2.246  10.192  0.00  0.00    +0.023 A 
ATOM     33  C   UNL     1       7.797  -2.303   8.976  0.00  0.00    +0.062 A 
ATOM     34 CL   UNL     1       6.065  -2.213   8.919  0.00  0.00    -0.082 Cl
ATOM     35 CL   UNL     1      12.295  -2.525   9.131  0.00  0.00    -0.083 Cl
ENDBRANCH  26  28
ENDBRANCH  23  24
ENDBRANCH  22  23
ENDBRANCH   4  22
TORSDOF 7
