REMARK  Name = ZINC03958706
REMARK  4 active torsions:
REMARK  status: ('A' for Active; 'I' for Inactive)
REMARK    1  A    between atoms: C_1  and  C_2
REMARK    2  A    between atoms: C_2  and  C_3
REMARK    3  A    between atoms: C_8  and  C_23
REMARK    4  A    between atoms: N_15  and  C_16
REMARK                            x       y       z     vdW  Elec       q    Type
REMARK                         _______ _______ _______ _____ _____    ______ ____
ROOT
ATOM      1  C   UNL     1       0.840  -0.585  -1.294  0.00  0.00    +0.124 C 
ATOM      2  C   UNL     1       1.243  -2.022  -1.054  0.00  0.00    +0.040 A 
ATOM      3  C   UNL     1       0.612  -3.130  -1.470  0.00  0.00    +0.025 A 
ATOM      4  C   UNL     1       1.352  -4.236  -1.002  0.00  0.00    +0.023 A 
ATOM      5  C   UNL     1       2.411  -3.753  -0.318  0.00  0.00    +0.016 A 
ATOM      6  N   UNL     1       2.355  -2.394  -0.348  0.00  0.00    -0.345 N 
ATOM      7  C   UNL     1       3.310  -1.459   0.256  0.00  0.00    +0.141 C 
ATOM      8  C   UNL     1       2.652  -0.082   0.391  0.00  0.00    +0.131 C 
ATOM      9  N   UNL     1       1.973   0.259  -0.871  0.00  0.00    -0.275 N 
ATOM     10  C   UNL     1       2.374   1.307  -1.617  0.00  0.00    +0.307 C 
ATOM     11  O   UNL     1       3.250   2.045  -1.208  0.00  0.00    -0.252 OA
ATOM     12  N   UNL     1       1.804   1.538  -2.817  0.00  0.00    -0.269 N 
ATOM     13  C   UNL     1       3.473  -4.579   0.362  0.00  0.00    +0.063 C 
ATOM     14  H   UNL     1       1.037   1.015  -3.098  0.00  0.00    +0.156 HD
ENDROOT
BRANCH  12  15
ATOM     15  C   UNL     1       2.320   2.532  -3.657  0.00  0.00    +0.035 A 
ATOM     16  C   UNL     1       3.683   2.793  -3.671  0.00  0.00    +0.026 A 
ATOM     17  C   UNL     1       4.190   3.774  -4.501  0.00  0.00    +0.040 A 
ATOM     18  C   UNL     1       3.338   4.497  -5.319  0.00  0.00    +0.124 A 
ATOM     19  C   UNL     1       1.978   4.239  -5.307  0.00  0.00    +0.040 A 
ATOM     20  C   UNL     1       1.468   3.255  -4.483  0.00  0.00    +0.026 A 
ATOM     21  F   UNL     1       3.836   5.456  -6.130  0.00  0.00    -0.205 F 
ENDBRANCH  12  15
BRANCH   1  23
ATOM     22  C   UNL     1      -0.856   1.179  -0.789  0.00  0.00    +0.006 C 
ATOM     23  C   UNL     1      -0.401  -0.246  -0.466  0.00  0.00    +0.025 C 
ENDBRANCH   1  23
TORSDOF 2
