REMARK  Name = ZINC36493928
REMARK  16 active torsions:
REMARK  status: ('A' for Active; 'I' for Inactive)
REMARK    1  A    between atoms: C_1  and  C_2
REMARK    2  A    between atoms: C_2  and  C_3
REMARK    3  A    between atoms: C_3  and  C_4
REMARK    4  A    between atoms: C_4  and  C_5
REMARK    5  A    between atoms: C_5  and  C_6
REMARK    6  A    between atoms: C_6  and  C_8
REMARK    7  A    between atoms: C_6  and  N_15
REMARK    8  A    between atoms: N_10  and  C_11
REMARK    9  A    between atoms: C_11  and  C_12
REMARK   10  A    between atoms: C_11  and  C_13
REMARK   11  A    between atoms: C_11  and  C_14
REMARK   12  A    between atoms: N_15  and  C_16
REMARK   13  A    between atoms: C_16  and  C_17
REMARK   14  A    between atoms: C_22  and  C_24
REMARK   15  A    between atoms: C_24  and  C_32
REMARK   16  A    between atoms: C_25  and  C_26
REMARK                            x       y       z     vdW  Elec       q    Type
REMARK                         _______ _______ _______ _____ _____    ______ ____
ROOT
ATOM      1  N   UNL     1      -0.251  -4.643  -2.366  0.00  0.00    -0.279 N 
ATOM      2  C   UNL     1       0.069  -5.826  -1.805  0.00  0.00    +0.248 C 
ATOM      3  O   UNL     1      -0.008  -6.850  -2.458  0.00  0.00    -0.270 OA
ENDROOT
BRANCH   2   4
ATOM      4  C   UNL     1       0.511  -5.879  -0.403  0.00  0.00    +0.045 C 
ATOM      5  C   UNL     1      -0.023  -6.799   0.445  0.00  0.00    +0.021 C 
BRANCH   5   6
ATOM      6  C   UNL     1       0.537  -6.970   1.792  0.00  0.00    -0.024 A 
ATOM      7  C   UNL     1      -0.308  -7.225   2.878  0.00  0.00    +0.008 A 
ATOM      8  C   UNL     1       0.226  -7.385   4.139  0.00  0.00    +0.001 A 
ATOM      9  C   UNL     1       1.593  -7.293   4.333  0.00  0.00    +0.000 A 
ATOM     10  C   UNL     1       2.436  -7.039   3.264  0.00  0.00    +0.001 A 
ATOM     11  C   UNL     1       1.919  -6.883   1.996  0.00  0.00    +0.008 A 
ENDBRANCH   5   6
BRANCH   4  12
ATOM     12  C   UNL     1       1.539  -4.932   0.086  0.00  0.00    -0.013 A 
ATOM     13  C   UNL     1       2.726  -4.757  -0.626  0.00  0.00    +0.008 A 
ATOM     14  C   UNL     1       3.680  -3.873  -0.166  0.00  0.00    +0.001 A 
ATOM     15  C   UNL     1       3.461  -3.160   1.000  0.00  0.00    +0.000 A 
ATOM     16  C   UNL     1       2.287  -3.330   1.711  0.00  0.00    +0.001 A 
ATOM     17  C   UNL     1       1.323  -4.207   1.258  0.00  0.00    +0.008 A 
ENDBRANCH   4  12
ENDBRANCH   2   4
BRANCH   1  18
ATOM     18  C   UNL     1      -0.112  -3.405  -1.596  0.00  0.00    +0.163 C 
BRANCH  18  19
ATOM     19  C   UNL     1       0.971  -2.553  -2.206  0.00  0.00    +0.234 C 
ATOM     20  O   UNL     1       1.500  -2.895  -3.242  0.00  0.00    -0.274 OA
ATOM     21  N   UNL     1       1.351  -1.411  -1.599  0.00  0.00    -0.309 N 
ATOM     22  H   UNL     1       0.928  -1.138  -0.770  0.00  0.00    +0.149 HD
BRANCH  21  23
ATOM     23  C   UNL     1       2.404  -0.583  -2.193  0.00  0.00    +0.026 C 
ATOM     24  C   UNL     1       1.973  -0.133  -3.590  0.00  0.00    +0.031 C 
ATOM     25  C   UNL     1       2.642   0.646  -1.313  0.00  0.00    +0.031 C 
ATOM     26  C   UNL     1       3.696  -1.395  -2.294  0.00  0.00    +0.031 C 
ENDBRANCH  21  23
ENDBRANCH  18  19
BRANCH  18  27
ATOM     27  C   UNL     1      -1.436  -2.640  -1.617  0.00  0.00    +0.032 C 
BRANCH  27  28
ATOM     28  C   UNL     1      -2.498  -3.435  -0.855  0.00  0.00    +0.002 C 
BRANCH  28  29
ATOM     29  C   UNL     1      -3.822  -2.670  -0.876  0.00  0.00    -0.000 C 
BRANCH  29  31
ATOM     30  C   UNL     1      -6.208  -2.700  -0.134  0.00  0.00    +0.004 C 
ATOM     31  C   UNL     1      -4.884  -3.465  -0.113  0.00  0.00    -0.003 C 
ENDBRANCH  29  31
ENDBRANCH  28  29
ENDBRANCH  27  28
ENDBRANCH  18  27
ENDBRANCH   1  18
BRANCH   1  32
ATOM     32  C   UNL     1      -0.739  -4.596  -3.747  0.00  0.00    +0.183 C 
BRANCH  32  33
ATOM     33  C   UNL     1      -2.221  -4.867  -3.766  0.00  0.00    +0.122 A 
ATOM     34  C   UNL     1      -3.191  -3.935  -3.791  0.00  0.00    +0.046 A 
ATOM     35  C   UNL     1      -4.424  -4.627  -3.801  0.00  0.00    +0.041 A 
ATOM     36  C   UNL     1      -4.134  -5.940  -3.782  0.00  0.00    +0.195 A 
ATOM     37  O   UNL     1      -2.798  -6.080  -3.767  0.00  0.00    -0.466 OA
ENDBRANCH  32  33
ENDBRANCH   1  32
TORSDOF 12
