REMARK  Name = ZINC39916671
REMARK  4 active torsions:
REMARK  status: ('A' for Active; 'I' for Inactive)
REMARK    1  A    between atoms: C_1  and  C_2
REMARK    2  A    between atoms: C_5  and  C_8
REMARK    3  A    between atoms: N_18  and  N_19
REMARK    4  A    between atoms: N_21  and  C_26
REMARK                            x       y       z     vdW  Elec       q    Type
REMARK                         _______ _______ _______ _____ _____    ______ ____
ROOT
ATOM      1  C   UNL     1      -0.738  -3.325  -0.226  0.00  0.00    +0.044 A 
ATOM      2  C   UNL     1       0.339  -3.777  -0.946  0.00  0.00    +0.025 A 
ATOM      3  C   UNL     1       0.654  -5.210  -0.870  0.00  0.00    +0.018 A 
ATOM      4  C   UNL     1       1.873  -5.700  -1.348  0.00  0.00    +0.011 A 
ATOM      5  C   UNL     1       2.145  -7.049  -1.262  0.00  0.00    +0.001 A 
ATOM      6  C   UNL     1       1.218  -7.917  -0.706  0.00  0.00    +0.004 A 
ATOM      7  C   UNL     1       0.009  -7.445  -0.231  0.00  0.00    +0.047 A 
ATOM      8  C   UNL     1      -0.284  -6.094  -0.309  0.00  0.00    +0.137 A 
ATOM      9  O   UNL     1      -1.470  -5.615   0.147  0.00  0.00    -0.437 OA
ATOM     10  C   UNL     1      -1.486  -4.317   0.569  0.00  0.00    +0.223 A 
ATOM     11  N   UNL     1      -2.148  -3.960   1.645  0.00  0.00    -0.244 N 
ATOM     12  H   UNL     1      -2.035  -3.069   2.012  0.00  0.00    +0.192 HD
ENDROOT
BRANCH   1  17
ATOM     13  C   UNL     1      -2.263   2.227  -0.288  0.00  0.00    +0.044 C 
ATOM     14  C   UNL     1      -1.864   0.774  -0.272  0.00  0.00    -0.050 A 
ATOM     15  C   UNL     1      -1.862   0.047  -1.449  0.00  0.00    +0.004 A 
ATOM     16  C   UNL     1      -1.497  -1.284  -1.440  0.00  0.00    +0.009 A 
ATOM     17  C   UNL     1      -1.130  -1.896  -0.242  0.00  0.00    -0.013 A 
ATOM     18  C   UNL     1      -1.134  -1.158   0.941  0.00  0.00    +0.009 A 
ATOM     19  C   UNL     1      -1.495   0.174   0.919  0.00  0.00    +0.004 A 
ENDBRANCH   1  17
BRANCH  11  20
ATOM     20  N   UNL     1      -3.020  -4.866   2.264  0.00  0.00    -0.148 NA
ATOM     21  C   UNL     1      -2.974  -5.037   3.564  0.00  0.00    +0.187 C 
ATOM     22  N   UNL     1      -2.037  -4.549   4.458  0.00  0.00    -0.217 N 
ATOM     23  C   UNL     1      -2.103  -4.794   5.756  0.00  0.00    +0.236 C 
ATOM     24  O   UNL     1      -1.280  -4.364   6.535  0.00  0.00    -0.274 OA
ATOM     25  C   UNL     1      -3.276  -5.648   6.210  0.00  0.00    +0.173 C 
ATOM     26  S   UNL     1      -4.112  -5.948   4.598  0.00  0.00    -0.079 S 
BRANCH  22  27
ATOM     27  C   UNL     1      -0.981  -3.768   3.971  0.00  0.00    +0.043 A 
ATOM     28  C   UNL     1      -0.919  -2.414   4.275  0.00  0.00    +0.024 A 
ATOM     29  C   UNL     1       0.124  -1.647   3.794  0.00  0.00    +0.002 A 
ATOM     30  C   UNL     1       1.105  -2.225   3.010  0.00  0.00    +0.000 A 
ATOM     31  C   UNL     1       1.046  -3.573   2.705  0.00  0.00    +0.002 A 
ATOM     32  C   UNL     1       0.009  -4.347   3.189  0.00  0.00    +0.024 A 
ENDBRANCH  22  27
ENDBRANCH  11  20
TORSDOF 3
