REMARK  Name = ZINC19816346
REMARK  10 active torsions:
REMARK  status: ('A' for Active; 'I' for Inactive)
REMARK    1  A    between atoms: C_1  and  C_2
REMARK    2  A    between atoms: C_2  and  C_3
REMARK    3  A    between atoms: C_6  and  C_9
REMARK    4  A    between atoms: C_18  and  C_26
REMARK    5  A    between atoms: C_19  and  N_25
REMARK    6  A    between atoms: C_20  and  C_21
REMARK    7  A    between atoms: C_20  and  C_23
REMARK    8  A    between atoms: C_28  and  O_30
REMARK    9  A    between atoms: O_30  and  C_31
REMARK   10  A    between atoms: C_31  and  C_32
REMARK                            x       y       z     vdW  Elec       q    Type
REMARK                         _______ _______ _______ _____ _____    ______ ____
ROOT
ATOM      1  C   UNL     1      -2.313   3.606   1.080  0.00  0.00    +0.068 C 
ATOM      2  C   UNL     1      -1.017   3.212   0.371  0.00  0.00    +0.048 C 
ATOM      3  C   UNL     1       0.176   3.961   0.920  0.00  0.00    +0.120 C 
ATOM      4  N   UNL     1       0.992   3.100   1.783  0.00  0.00    -0.263 N 
ATOM      5  C   UNL     1       1.438   1.812   1.222  0.00  0.00    +0.138 C 
ATOM      6  C   UNL     1       0.203   1.073   0.771  0.00  0.00    -0.003 C 
ATOM      7  C   UNL     1      -0.888   1.718   0.409  0.00  0.00    -0.026 C 
ATOM      8  C   UNL     1      -2.104   0.933   0.066  0.00  0.00    +0.074 C 
ATOM      9  C   UNL     1      -3.309   1.556   0.028  0.00  0.00    +0.054 C 
ATOM     10  C   UNL     1      -3.494   3.020   0.293  0.00  0.00    +0.188 C 
ATOM     11  C   UNL     1       1.320   3.472   3.036  0.00  0.00    +0.403 C 
ATOM     12  O   UNL     1       0.939   4.539   3.473  0.00  0.00    -0.226 OA
ENDROOT
BRANCH   1  16
ATOM     13  C   UNL     1      -2.646   7.863   1.189  0.00  0.00    -0.048 A 
ATOM     14  C   UNL     1      -2.928   7.119   2.319  0.00  0.00    +0.004 A 
ATOM     15  C   UNL     1      -2.821   5.741   2.284  0.00  0.00    +0.004 A 
ATOM     16  C   UNL     1      -2.431   5.108   1.118  0.00  0.00    -0.041 A 
ATOM     17  C   UNL     1      -2.143   5.853  -0.010  0.00  0.00    +0.004 A 
ATOM     18  C   UNL     1      -2.256   7.230   0.023  0.00  0.00    +0.004 A 
BRANCH  13  20
ATOM     19  C   UNL     1      -1.424   9.972   1.649  0.00  0.00    +0.009 C 
ATOM     20  C   UNL     1      -2.764   9.365   1.227  0.00  0.00    +0.032 C 
ENDBRANCH  13  20
ENDBRANCH   1  16
BRANCH   9  21
ATOM     21  N   UNL     1      -4.414   0.808  -0.268  0.00  0.00    -0.358 N 
ATOM     22  H   UNL     1      -5.405   1.283  -0.307  0.00  0.00    +0.142 HD
ATOM     23  H   UNL     1      -4.312  -0.269  -0.468  0.00  0.00    +0.142 HD
ENDBRANCH   9  21
BRANCH  10  24
ATOM     24  C   UNL     1      -3.625   3.728  -0.991  0.00  0.00    +0.091 C 
ATOM     25  N   UNL     1      -3.726   4.274  -1.982  0.00  0.00    -0.194 NA
ENDBRANCH  10  24
BRANCH  10  26
ATOM     26  C   UNL     1      -4.726   3.214   1.075  0.00  0.00    +0.091 C 
ATOM     27  N   UNL     1      -5.676   3.364   1.679  0.00  0.00    -0.194 NA
ENDBRANCH  10  26
BRANCH   8  28
ATOM     28  C   UNL     1      -2.005  -0.466  -0.223  0.00  0.00    +0.101 C 
ATOM     29  N   UNL     1      -1.926  -1.576  -0.452  0.00  0.00    -0.191 NA
ENDBRANCH   8  28
BRANCH  11  30
ATOM     30  O   UNL     1       2.071   2.659   3.804  0.00  0.00    -0.451 OA
BRANCH  30  31
ATOM     31  C   UNL     1       2.385   3.123   5.144  0.00  0.00    +0.230 C 
ATOM     32  C   UNL     1       3.239   2.075   5.859  0.00  0.00    +0.048 C 
ENDBRANCH  30  31
ENDBRANCH  11  30
TORSDOF 8
