REMARK  Name = ZINC20075249
REMARK  11 active torsions:
REMARK  status: ('A' for Active; 'I' for Inactive)
REMARK    1  A    between atoms: C_1  and  C_2
REMARK    2  A    between atoms: C_3  and  C_4
REMARK    3  A    between atoms: C_5  and  C_6
REMARK    4  A    between atoms: N_8  and  C_9
REMARK    5  A    between atoms: C_10  and  C_32
REMARK    6  A    between atoms: C_12  and  C_15
REMARK    7  A    between atoms: C_17  and  C_29
REMARK    8  A    between atoms: C_18  and  N_21
REMARK    9  A    between atoms: C_22  and  C_24
REMARK   10  A    between atoms: C_25  and  C_26
REMARK   11  A    between atoms: C_27  and  C_28
REMARK                            x       y       z     vdW  Elec       q    Type
REMARK                         _______ _______ _______ _____ _____    ______ ____
ROOT
ATOM      1  C   UNL     1      -6.410  -2.715  -0.023  0.00  0.00    +0.048 A 
ATOM      2  C   UNL     1      -7.604  -3.393   0.278  0.00  0.00    +0.085 A 
ATOM      3  C   UNL     1      -8.785  -2.670   0.454  0.00  0.00    +0.025 A 
ATOM      4  C   UNL     1      -8.771  -1.286   0.330  0.00  0.00    -0.017 A 
ATOM      5  C   UNL     1      -7.580  -0.621   0.030  0.00  0.00    +0.010 A 
ATOM      6  C   UNL     1      -6.411  -1.330  -0.138  0.00  0.00    +0.025 A 
ENDROOT
BRANCH   4   7
ATOM      7  C   UNL     1     -10.024  -0.514   0.516  0.00  0.00    -0.017 A 
ATOM      8  C   UNL     1     -10.011   0.869   0.387  0.00  0.00    +0.025 A 
ATOM      9  C   UNL     1     -11.193   1.593   0.562  0.00  0.00    +0.085 A 
ATOM     10  C   UNL     1     -12.385   0.915   0.869  0.00  0.00    +0.048 A 
ATOM     11  C   UNL     1     -12.382  -0.469   0.995  0.00  0.00    +0.025 A 
ATOM     12  C   UNL     1     -11.215  -1.179   0.816  0.00  0.00    +0.010 A 
BRANCH  10  13
ATOM     13  N   UNL     1     -13.565   1.628   1.045  0.00  0.00    -0.281 N 
ATOM     14  C   UNL     1     -14.474   1.212   1.949  0.00  0.00    +0.241 C 
ATOM     15  O   UNL     1     -14.225   0.265   2.672  0.00  0.00    -0.270 OA
ATOM     16  H   UNL     1     -13.734   2.424   0.518  0.00  0.00    +0.155 HD
BRANCH  14  17
ATOM     17  C   UNL     1     -15.760   1.898   2.061  0.00  0.00    +0.067 C 
ATOM     18  C   UNL     1     -16.616   1.573   3.056  0.00  0.00    +0.005 C 
BRANCH  18  19
ATOM     19  C   UNL     1     -16.180   0.686   4.135  0.00  0.00    -0.004 C 
ATOM     20  C   UNL     1     -16.998   0.427   5.157  0.00  0.00    -0.030 C 
ATOM     21  C   UNL     1     -16.549  -0.486   6.269  0.00  0.00    +0.035 C 
ENDBRANCH  18  19
ENDBRANCH  14  17
ENDBRANCH  10  13
BRANCH   9  22
ATOM     22  C   UNL     1     -11.189   3.058   0.428  0.00  0.00    +0.388 C 
ATOM     23  O   UNL     1     -10.175   3.636   0.058  0.00  0.00    -0.241 OA
ATOM     24  O   UNL     1     -12.198   3.699   0.686  0.00  0.00    -0.241 OA
ENDBRANCH   9  22
ENDBRANCH   4   7
BRANCH   1  27
ATOM     25  C   UNL     1      -4.059  -2.908   0.220  0.00  0.00    +0.241 C 
ATOM     26  O   UNL     1      -4.024  -1.781   0.678  0.00  0.00    -0.270 OA
ATOM     27  N   UNL     1      -5.230  -3.428  -0.200  0.00  0.00    -0.281 N 
ATOM     28  H   UNL     1      -5.249  -4.299  -0.625  0.00  0.00    +0.155 HD
BRANCH  25  30
ATOM     29  C   UNL     1      -1.685  -3.232   0.667  0.00  0.00    +0.005 C 
ATOM     30  C   UNL     1      -2.833  -3.696   0.123  0.00  0.00    +0.067 C 
BRANCH  29  33
ATOM     31  C   UNL     1      -0.617  -0.412   3.006  0.00  0.00    +0.035 C 
ATOM     32  C   UNL     1      -0.592  -1.633   2.123  0.00  0.00    -0.030 C 
ATOM     33  C   UNL     1      -1.710  -2.046   1.524  0.00  0.00    -0.004 C 
ENDBRANCH  29  33
ENDBRANCH  25  30
ENDBRANCH   1  27
BRANCH   2  34
ATOM     34  C   UNL     1      -7.609  -4.859   0.407  0.00  0.00    +0.388 C 
ATOM     35  O   UNL     1      -8.665  -5.456   0.563  0.00  0.00    -0.241 OA
ATOM     36  O   UNL     1      -6.556  -5.481   0.357  0.00  0.00    -0.241 OA
ENDBRANCH   2  34
TORSDOF 9
