REMARK  Name = ZINC15705364
REMARK  8 active torsions:
REMARK  status: ('A' for Active; 'I' for Inactive)
REMARK    1  A    between atoms: C_1  and  C_2
REMARK    2  A    between atoms: C_2  and  C_4
REMARK    3  A    between atoms: C_2  and  O_17
REMARK    4  A    between atoms: N_6  and  C_7
REMARK    5  A    between atoms: C_11  and  S_13
REMARK    6  A    between atoms: S_13  and  N_16
REMARK    7  A    between atoms: O_17  and  C_18
REMARK    8  A    between atoms: C_18  and  C_20
REMARK                            x       y       z     vdW  Elec       q    Type
REMARK                         _______ _______ _______ _____ _____    ______ ____
ROOT
ATOM      1  C   UNL     1      -0.023   1.532  -0.004  0.00  0.00    +0.062 C 
ATOM      2  C   UNL     1       0.001   0.002  -0.001  0.00  0.00    +0.259 C 
ENDROOT
BRANCH   2   3
ATOM      3  C   UNL     1       0.708  -0.491  -1.237  0.00  0.00    +0.258 C 
ATOM      4  O   UNL     1       0.098  -1.123  -2.073  0.00  0.00    -0.271 OA
ATOM      5  N   UNL     1       2.018  -0.231  -1.413  0.00  0.00    -0.282 N 
ATOM      6  H   UNL     1       2.491   0.331  -0.778  0.00  0.00    +0.155 HD
BRANCH   5   7
ATOM      7  C   UNL     1       2.698  -0.770  -2.511  0.00  0.00    +0.035 A 
ATOM      8  C   UNL     1       4.024  -1.163  -2.384  0.00  0.00    +0.023 A 
ATOM      9  C   UNL     1       4.692  -1.695  -3.469  0.00  0.00    +0.004 A 
ATOM     10  C   UNL     1       4.042  -1.836  -4.682  0.00  0.00    +0.028 A 
ATOM     11  C   UNL     1       2.722  -1.445  -4.811  0.00  0.00    +0.107 A 
ATOM     12  C   UNL     1       2.046  -0.918  -3.728  0.00  0.00    +0.051 A 
BRANCH  11  13
ATOM     13  S   UNL     1       1.898  -1.626  -6.359  0.00  0.00    +0.056 S 
ATOM     14  O   UNL     1       0.836  -0.682  -6.366  0.00  0.00    -0.153 OA
ATOM     15  O   UNL     1       2.909  -1.643  -7.357  0.00  0.00    -0.153 OA
BRANCH  13  16
ATOM     16  N   UNL     1       1.198  -3.127  -6.368  0.00  0.00    -0.204 NA
ATOM     17  H   UNL     1       1.295  -3.712  -5.601  0.00  0.00    +0.144 HD
ATOM     18  H   UNL     1       0.692  -3.421  -7.142  0.00  0.00    +0.144 HD
ENDBRANCH  13  16
ENDBRANCH  11  13
ENDBRANCH   5   7
ENDBRANCH   2   3
BRANCH   2  19
ATOM     19  O   UNL     1      -1.339  -0.495   0.012  0.00  0.00    -0.452 OA
BRANCH  19  20
ATOM     20  C   UNL     1      -1.900  -0.705   1.213  0.00  0.00    +0.320 C 
ATOM     21  O   UNL     1      -1.274  -0.474   2.220  0.00  0.00    -0.250 OA
BRANCH  20  22
ATOM     22  C   UNL     1      -3.310  -1.229   1.306  0.00  0.00    +0.165 C 
ATOM     23  C   UNL     1      -4.241  -0.276   0.607  0.00  0.00    +0.013 A 
ATOM     24  C   UNL     1      -4.312  -0.287  -0.775  0.00  0.00    +0.008 A 
ATOM     25  C   UNL     1      -5.162   0.581  -1.435  0.00  0.00    +0.001 A 
ATOM     26  C   UNL     1      -5.944   1.464  -0.715  0.00  0.00    +0.004 A 
ATOM     27  C   UNL     1      -5.877   1.480   0.664  0.00  0.00    +0.046 A 
ATOM     28  C   UNL     1      -5.024   0.609   1.331  0.00  0.00    +0.133 A 
ATOM     29  O   UNL     1      -4.973   0.638   2.684  0.00  0.00    -0.455 OA
ATOM     30  C   UNL     1      -4.504  -0.433   3.368  0.00  0.00    +0.133 A 
ATOM     31  C   UNL     1      -3.693  -1.373   2.753  0.00  0.00    +0.013 A 
ATOM     32  C   UNL     1      -3.227  -2.458   3.474  0.00  0.00    +0.008 A 
ATOM     33  C   UNL     1      -3.568  -2.608   4.804  0.00  0.00    +0.001 A 
ATOM     34  C   UNL     1      -4.378  -1.672   5.421  0.00  0.00    +0.004 A 
ATOM     35  C   UNL     1      -4.846  -0.587   4.707  0.00  0.00    +0.046 A 
ENDBRANCH  20  22
ENDBRANCH  19  20
ENDBRANCH   2  19
TORSDOF 7
