REMARK  Name = ZINC27102217
REMARK  9 active torsions:
REMARK  status: ('A' for Active; 'I' for Inactive)
REMARK    1  A    between atoms: C_1  and  C_2
REMARK    2  A    between atoms: C_2  and  C_4
REMARK    3  A    between atoms: C_2  and  N_14
REMARK    4  A    between atoms: C_8  and  C_10
REMARK    5  A    between atoms: C_15  and  C_17
REMARK    6  A    between atoms: C_17  and  N_18
REMARK    7  A    between atoms: C_26  and  C_27
REMARK    8  A    between atoms: C_27  and  S_28
REMARK    9  A    between atoms: S_28  and  C_31
REMARK                            x       y       z     vdW  Elec       q    Type
REMARK                         _______ _______ _______ _____ _____    ______ ____
ROOT
ATOM      1  N   UNL     1      -1.127   5.816   0.930  0.00  0.00    -0.307 N 
ATOM      2  C   UNL     1      -1.038   7.037   1.495  0.00  0.00    +0.233 C 
ATOM      3  O   UNL     1      -0.084   7.746   1.259  0.00  0.00    -0.274 OA
ATOM      4  H   UNL     1      -1.993   5.173   1.144  0.00  0.00    +0.149 HD
ENDROOT
BRANCH   1   6
ATOM      5  C   UNL     1      -0.341   5.861  -1.385  0.00  0.00    +0.033 C 
ATOM      6  C   UNL     1      -0.070   5.347   0.030  0.00  0.00    +0.100 C 
BRANCH   6   7
ATOM      7  C   UNL     1      -0.050   3.840   0.022  0.00  0.00    -0.027 A 
ATOM      8  C   UNL     1      -1.238   3.133   0.029  0.00  0.00    +0.005 A 
ATOM      9  C   UNL     1      -1.219   1.751   0.017  0.00  0.00    +0.001 A 
ATOM     10  C   UNL     1      -0.013   1.076   0.008  0.00  0.00    +0.012 A 
ATOM     11  C   UNL     1       1.175   1.783   0.000  0.00  0.00    +0.055 A 
ATOM     12  C   UNL     1       1.156   3.166   0.008  0.00  0.00    +0.017 A 
BRANCH  11  13
ATOM     13  C   UNL     1       2.490   1.047  -0.016  0.00  0.00    +0.417 C 
ATOM     14  F   UNL     1       2.253  -0.331  -0.020  0.00  0.00    -0.166 F 
ATOM     15  F   UNL     1       3.208   1.401  -1.163  0.00  0.00    -0.166 F 
ATOM     16  F   UNL     1       3.230   1.390   1.121  0.00  0.00    -0.166 F 
ENDBRANCH  11  13
ENDBRANCH   6   7
ENDBRANCH   1   6
BRANCH   2  17
ATOM     17  C   UNL     1      -2.125   7.520   2.421  0.00  0.00    +0.219 C 
BRANCH  17  18
ATOM     18  N   UNL     1      -1.797   8.865   2.899  0.00  0.00    -0.317 N 
ATOM     19  C   UNL     1      -2.155  10.056   2.301  0.00  0.00    +0.069 A 
ATOM     20  C   UNL     1      -2.874  10.388   1.161  0.00  0.00    +0.028 A 
ATOM     21  C   UNL     1      -3.060  11.714   0.832  0.00  0.00    +0.002 A 
ATOM     22  C   UNL     1      -2.533  12.717   1.633  0.00  0.00    +0.002 A 
ATOM     23  C   UNL     1      -1.824  12.410   2.759  0.00  0.00    +0.030 A 
ATOM     24  C   UNL     1      -1.623  11.073   3.112  0.00  0.00    +0.089 A 
ATOM     25  N   UNL     1      -0.981  10.462   4.141  0.00  0.00    -0.231 NA
ATOM     26  C   UNL     1      -1.087   9.171   4.019  0.00  0.00    +0.132 A 
BRANCH  26  27
ATOM     27  C   UNL     1      -0.506   8.163   4.976  0.00  0.00    +0.239 C 
BRANCH  27  28
ATOM     28  S   UNL     1       1.175   7.729   4.450  0.00  0.00    -0.027 S 
ATOM     29  O   UNL     1       1.096   7.064   3.197  0.00  0.00    -0.174 OA
ATOM     30  O   UNL     1       1.995   8.883   4.569  0.00  0.00    -0.174 OA
ATOM     31  C   UNL     1       1.690   6.527   5.707  0.00  0.00    +0.194 C 
ENDBRANCH  27  28
ENDBRANCH  26  27
ENDBRANCH  17  18
ENDBRANCH   2  17
TORSDOF 7
