REMARK  Name = ZINC20149763
REMARK  5 active torsions:
REMARK  status: ('A' for Active; 'I' for Inactive)
REMARK    1  A    between atoms: C_3  and  C_26
REMARK    2  A    between atoms: C_6  and  C_7
REMARK    3  A    between atoms: C_7  and  O_8
REMARK    4  A    between atoms: O_8  and  C_9
REMARK    5  A    between atoms: C_14  and  C_15
REMARK                            x       y       z     vdW  Elec       q    Type
REMARK                         _______ _______ _______ _____ _____    ______ ____
ROOT
ATOM      1  C   UNL     1       1.168   1.734  -0.025  0.00  0.00    +0.128 A 
ATOM      2  C   UNL     1       2.263   0.919   0.220  0.00  0.00    +0.047 A 
ATOM      3  C   UNL     1       2.083  -0.340   0.757  0.00  0.00    +0.019 A 
ATOM      4  C   UNL     1       0.810  -0.802   1.058  0.00  0.00    +0.019 A 
ATOM      5  C   UNL     1      -0.292  -0.010   0.824  0.00  0.00    +0.026 A 
ATOM      6  C   UNL     1      -0.126   1.272   0.278  0.00  0.00    +0.019 A 
ATOM      7 BR   UNL     1       0.586  -2.530   1.794  0.00  0.00    -0.050 Br
ENDROOT
BRANCH   6   8
ATOM      8  C   UNL     1      -1.290   2.118   0.020  0.00  0.00    +0.030 C 
ATOM      9  C   UNL     1      -2.377   1.608  -0.664  0.00  0.00    +0.101 C 
ATOM     10  C   UNL     1      -2.321   0.291  -1.330  0.00  0.00    +0.276 C 
ATOM     11  O   UNL     1      -1.310  -0.384  -1.294  0.00  0.00    -0.268 OA
ATOM     12  N   UNL     1      -3.423  -0.144  -1.974  0.00  0.00    -0.123 NA
ATOM     13  C   UNL     1      -4.541   0.593  -2.026  0.00  0.00    +0.333 C 
ATOM     14  O   UNL     1      -5.497   0.145  -2.628  0.00  0.00    -0.250 OA
ATOM     15  N   UNL     1      -4.662   1.798  -1.451  0.00  0.00    -0.234 N 
ATOM     16  C   UNL     1      -3.644   2.358  -0.767  0.00  0.00    +0.257 C 
ATOM     17  O   UNL     1      -3.767   3.452  -0.250  0.00  0.00    -0.270 OA
ATOM     18  H   UNL     1      -5.609   2.352  -1.531  0.00  0.00    +0.159 HD
ENDBRANCH   6   8
BRANCH   1  19
ATOM     19  O   UNL     1       1.344   2.971  -0.553  0.00  0.00    -0.487 OA
BRANCH  19  20
ATOM     20  C   UNL     1       2.687   3.371  -0.834  0.00  0.00    +0.264 C 
BRANCH  20  26
ATOM     21  C   UNL     1       2.595   4.940  -2.782  0.00  0.00    +0.008 A 
ATOM     22  C   UNL     1       2.588   6.211  -3.317  0.00  0.00    +0.015 A 
ATOM     23  C   UNL     1       2.683   7.321  -2.474  0.00  0.00    +0.063 A 
ATOM     24  C   UNL     1       2.778   7.135  -1.094  0.00  0.00    +0.015 A 
ATOM     25  C   UNL     1       2.779   5.858  -0.572  0.00  0.00    +0.008 A 
ATOM     26  C   UNL     1       2.685   4.763  -1.412  0.00  0.00    -0.010 A 
BRANCH  23  27
ATOM     27  C   UNL     1       2.681   8.685  -3.041  0.00  0.00    +0.387 C 
ATOM     28  O   UNL     1       2.763   9.648  -2.305  0.00  0.00    -0.241 OA
ATOM     29  O   UNL     1       2.589   8.861  -4.373  0.00  0.00    -0.241 OA
ENDBRANCH  23  27
ENDBRANCH  20  26
ENDBRANCH  19  20
ENDBRANCH   1  19
TORSDOF 5
