REMARK  Name = ZINC11181582
REMARK  8 active torsions:
REMARK  status: ('A' for Active; 'I' for Inactive)
REMARK    1  A    between atoms: C_5  and  S_7
REMARK    2  A    between atoms: S_7  and  N_10
REMARK    3  A    between atoms: N_10  and  C_11
REMARK    4  A    between atoms: C_11  and  C_12
REMARK    5  A    between atoms: C_12  and  C_13
REMARK    6  A    between atoms: N_15  and  C_16
REMARK    7  A    between atoms: C_20  and  N_22
REMARK    8  A    between atoms: C_23  and  C_25
REMARK                            x       y       z     vdW  Elec       q    Type
REMARK                         _______ _______ _______ _____ _____    ______ ____
ROOT
ATOM      1  C   UNL     1       0.578   1.388  -0.359  0.00  0.00    +0.218 C 
ATOM      2  O   UNL     1       0.760   0.217  -0.618  0.00  0.00    -0.275 OA
ATOM      3  N   UNL     1      -0.653   1.819  -0.019  0.00  0.00    -0.285 N 
ATOM      4  H   UNL     1      -0.786   2.741   0.253  0.00  0.00    +0.155 HD
ENDROOT
BRANCH   3   5
ATOM      5  C   UNL     1      -1.739   0.938  -0.057  0.00  0.00    +0.035 A 
ATOM      6  C   UNL     1      -1.563  -0.398   0.281  0.00  0.00    +0.023 A 
ATOM      7  C   UNL     1      -2.634  -1.269   0.243  0.00  0.00    +0.004 A 
ATOM      8  C   UNL     1      -3.885  -0.815  -0.130  0.00  0.00    +0.023 A 
ATOM      9  C   UNL     1      -4.068   0.520  -0.470  0.00  0.00    +0.036 A 
ATOM     10  C   UNL     1      -2.994   1.399  -0.428  0.00  0.00    +0.046 A 
BRANCH   9  11
ATOM     11  N   UNL     1      -5.333   0.979  -0.848  0.00  0.00    -0.279 N 
ATOM     12  C   UNL     1      -5.449   1.944  -1.781  0.00  0.00    +0.284 C 
ATOM     13  O   UNL     1      -4.460   2.351  -2.362  0.00  0.00    -0.266 OA
ATOM     14  H   UNL     1      -6.128   0.603  -0.438  0.00  0.00    +0.155 HD
BRANCH  12  15
ATOM     15  C   UNL     1      -6.767   2.503  -2.098  0.00  0.00    +0.189 A 
ATOM     16  C   UNL     1      -7.024   3.480  -3.017  0.00  0.00    +0.054 A 
ATOM     17  C   UNL     1      -8.410   3.704  -2.990  0.00  0.00    +0.042 A 
ATOM     18  C   UNL     1      -8.931   2.865  -2.068  0.00  0.00    +0.196 A 
ATOM     19  O   UNL     1      -7.938   2.140  -1.536  0.00  0.00    -0.458 OA
ENDBRANCH  12  15
ENDBRANCH   9  11
ENDBRANCH   3   5
BRANCH   1  20
ATOM     20  C   UNL     1       1.727   2.361  -0.423  0.00  0.00    +0.113 C 
BRANCH  20  21
ATOM     21  C   UNL     1       3.000   1.621  -0.836  0.00  0.00    +0.115 C 
BRANCH  21  22
ATOM     22  N   UNL     1       4.117   2.567  -0.898  0.00  0.00    -0.189 NA
ATOM     23  H   UNL     1       3.943   3.520  -0.936  0.00  0.00    +0.148 HD
BRANCH  22  24
ATOM     24  S   UNL     1       5.676   2.008  -0.904  0.00  0.00    +0.059 S 
ATOM     25  O   UNL     1       6.517   3.152  -0.969  0.00  0.00    -0.153 OA
ATOM     26  O   UNL     1       5.769   1.052   0.143  0.00  0.00    -0.153 OA
BRANCH  24  31
ATOM     27  C   UNL     1       6.344  -0.923  -3.570  0.00  0.00    +0.002 A 
ATOM     28  C   UNL     1       6.272  -0.256  -4.779  0.00  0.00    +0.001 A 
ATOM     29  C   UNL     1       6.019   1.102  -4.805  0.00  0.00    +0.017 A 
ATOM     30  C   UNL     1       5.836   1.795  -3.622  0.00  0.00    +0.044 A 
ATOM     31  C   UNL     1       5.908   1.127  -2.413  0.00  0.00    +0.119 A 
ATOM     32  C   UNL     1       6.167  -0.231  -2.387  0.00  0.00    +0.029 A 
ATOM     33 BR   UNL     1       5.490   3.653  -3.657  0.00  0.00    -0.048 Br
ENDBRANCH  24  31
ENDBRANCH  22  24
ENDBRANCH  21  22
ENDBRANCH  20  21
ENDBRANCH   1  20
TORSDOF 8
