REMARK  Name = ZINC21045901
REMARK  5 active torsions:
REMARK  status: ('A' for Active; 'I' for Inactive)
REMARK    1  A    between atoms: C_1  and  C_2
REMARK    2  A    between atoms: C_5  and  N_9
REMARK    3  A    between atoms: N_9  and  S_10
REMARK    4  A    between atoms: S_10  and  C_13
REMARK    5  A    between atoms: C_15  and  N_20
REMARK                            x       y       z     vdW  Elec       q    Type
REMARK                         _______ _______ _______ _____ _____    ______ ____
ROOT
ATOM      1  S   UNL     1       0.033   1.315   0.105  0.00  0.00    +0.093 S 
ATOM      2  O   UNL     1       1.185   2.138  -0.012  0.00  0.00    -0.148 OA
ATOM      3  O   UNL     1      -0.971   1.263  -0.899  0.00  0.00    -0.148 OA
ENDROOT
BRANCH   1   4
ATOM      4  C   UNL     1       0.613  -0.335   0.322  0.00  0.00    +0.130 A 
ATOM      5  C   UNL     1       0.096  -1.355  -0.452  0.00  0.00    +0.053 A 
ATOM      6  C   UNL     1       0.554  -2.655  -0.280  0.00  0.00    +0.027 A 
ATOM      7  C   UNL     1       1.530  -2.925   0.670  0.00  0.00    +0.024 A 
ATOM      8  C   UNL     1       2.043  -1.901   1.441  0.00  0.00    +0.024 A 
ATOM      9  C   UNL     1       1.589  -0.606   1.264  0.00  0.00    +0.068 A 
ATOM     10 CL   UNL     1       2.241   0.681   2.231  0.00  0.00    -0.082 Cl
BRANCH   6  11
ATOM     11  N   UNL     1       0.033  -3.690  -1.062  0.00  0.00    -0.358 N 
ATOM     12  H   UNL     1       0.396  -4.719  -0.925  0.00  0.00    +0.142 HD
ATOM     13  H   UNL     1      -0.740  -3.475  -1.814  0.00  0.00    +0.142 HD
ENDBRANCH   6  11
ENDBRANCH   1   4
BRANCH   1  14
ATOM     14  N   UNL     1      -0.724   1.757   1.510  0.00  0.00    -0.098 NA
BRANCH  14  19
ATOM     15  C   UNL     1      -5.287  -1.103   3.290  0.00  0.00    +0.047 C 
ATOM     16  C   UNL     1      -4.075  -0.344   2.817  0.00  0.00    -0.015 A 
ATOM     17  C   UNL     1      -3.972   0.037   1.492  0.00  0.00    +0.008 A 
ATOM     18  C   UNL     1      -2.865   0.739   1.057  0.00  0.00    +0.027 A 
ATOM     19  C   UNL     1      -1.847   1.053   1.949  0.00  0.00    +0.077 A 
ATOM     20  C   UNL     1      -1.952   0.670   3.280  0.00  0.00    +0.065 A 
ATOM     21  C   UNL     1      -3.066  -0.028   3.712  0.00  0.00    +0.128 A 
ATOM     22  F   UNL     1      -3.169  -0.401   5.006  0.00  0.00    -0.205 F 
ENDBRANCH  14  19
ENDBRANCH   1  14
TORSDOF 4
