REMARK  Name = ZINC02326212
REMARK  5 active torsions:
REMARK  status: ('A' for Active; 'I' for Inactive)
REMARK    1  A    between atoms: C_1  and  C_2
REMARK    2  A    between atoms: C_7  and  N_27
REMARK    3  A    between atoms: C_8  and  C_13
REMARK    4  A    between atoms: N_17  and  C_21
REMARK    5  A    between atoms: C_32  and  N_62
REMARK                            x       y       z     vdW  Elec       q    Type
REMARK                         _______ _______ _______ _____ _____    ______ ____
ROOT
ATOM      1  C   UNL     1      -7.414  -0.893  -0.360  0.00  0.00    +0.045 C 
ATOM      2  C   UNL     1      -5.970  -0.572  -0.075  0.00  0.00    -0.034 A 
ATOM      3  C   UNL     1      -5.626   0.663   0.493  0.00  0.00    +0.008 A 
ATOM      4  C   UNL     1      -4.317   0.945   0.747  0.00  0.00    +0.047 A 
ATOM      5  C   UNL     1      -3.329  -0.007   0.436  0.00  0.00    +0.142 A 
ATOM      6  N   UNL     1      -2.052   0.276   0.693  0.00  0.00    -0.214 NA
ATOM      7  C   UNL     1      -1.080  -0.581   0.415  0.00  0.00    +0.136 A 
ATOM      8  C   UNL     1      -1.399  -1.835  -0.158  0.00  0.00    +0.081 A 
ATOM      9  C   UNL     1      -2.759  -2.127  -0.422  0.00  0.00    +0.267 A 
ATOM     10  O   UNL     1      -3.079  -3.194  -0.915  0.00  0.00    -0.267 OA
ATOM     11  N   UNL     1      -3.695  -1.202  -0.117  0.00  0.00    -0.267 N 
ATOM     12  C   UNL     1      -5.007  -1.475  -0.367  0.00  0.00    +0.099 A 
ENDROOT
BRANCH   8  13
ATOM     13  C   UNL     1      -0.385  -2.773  -0.461  0.00  0.00    +0.037 C 
ATOM     14  C   UNL     1       0.656  -2.416  -1.269  0.00  0.00    +0.077 C 
ATOM     15  C   UNL     1       1.804  -3.166  -1.653  0.00  0.00    +0.259 C 
ATOM     16  O   UNL     1       1.970  -4.305  -1.253  0.00  0.00    -0.269 OA
ATOM     17  N   UNL     1       2.681  -2.594  -2.460  0.00  0.00    -0.252 N 
ATOM     18  C   UNL     1       2.500  -1.328  -2.897  0.00  0.00    +0.121 C 
ATOM     19  S   UNL     1       3.498  -0.396  -3.929  0.00  0.00    -0.027 S 
ATOM     20  S   UNL     1       0.954  -0.875  -2.126  0.00  0.00    -0.061 S 
BRANCH  17  21
ATOM     21  C   UNL     1       3.869  -3.340  -2.879  0.00  0.00    +0.083 C 
ATOM     22  C   UNL     1       5.126  -2.599  -2.418  0.00  0.00    +0.023 C 
ATOM     23  C   UNL     1       6.367  -3.378  -2.856  0.00  0.00    +0.002 C 
ATOM     24  C   UNL     1       6.380  -3.503  -4.381  0.00  0.00    +0.000 C 
ATOM     25  C   UNL     1       5.123  -4.244  -4.843  0.00  0.00    +0.002 C 
ATOM     26  C   UNL     1       3.881  -3.465  -4.404  0.00  0.00    +0.023 C 
ENDBRANCH  17  21
ENDBRANCH   8  13
BRANCH   7  27
ATOM     27  N   UNL     1       0.231  -0.257   0.688  0.00  0.00    -0.318 N 
ATOM     28  C   UNL     1       0.351   1.151   1.091  0.00  0.00    +0.088 C 
ATOM     29  C   UNL     1       1.828   1.493   1.307  0.00  0.00    -0.060 C 
ATOM     30  C   UNL     1       2.267  -0.804   1.932  0.00  0.00    -0.060 C 
ATOM     31  C   UNL     1       0.790  -1.145   1.716  0.00  0.00    +0.088 C 
ATOM     32  C   UNL     1       3.785   0.950   2.626  0.00  0.00    -0.096 C 
ATOM     33  N   UNL     1       2.372   0.607   2.358  0.00  0.00    +0.380 N 
ATOM     34  H   UNL     1       1.828   0.738   3.219  0.00  0.00    -0.082 HD
ENDBRANCH   7  27
TORSDOF 3
