REMARK  Name = ZINC45863448
REMARK  7 active torsions:
REMARK  status: ('A' for Active; 'I' for Inactive)
REMARK    1  A    between atoms: C_1  and  C_2
REMARK    2  A    between atoms: C_5  and  S_8
REMARK    3  A    between atoms: S_8  and  N_11
REMARK    4  A    between atoms: C_14  and  C_17
REMARK    5  A    between atoms: N_19  and  C_20
REMARK    6  A    between atoms: C_23  and  N_26
REMARK    7  A    between atoms: N_29  and  C_30
REMARK                            x       y       z     vdW  Elec       q    Type
REMARK                         _______ _______ _______ _____ _____    ______ ____
ROOT
ATOM      1  C   UNL     1       4.468  -8.151  -0.095  0.00  0.00    +0.220 C 
ATOM      2  O   UNL     1       4.240  -8.923  -1.003  0.00  0.00    -0.275 OA
ATOM      3  N   UNL     1       5.293  -8.515   0.907  0.00  0.00    -0.285 N 
ATOM      4  H   UNL     1       5.528  -7.875   1.597  0.00  0.00    +0.155 HD
ENDROOT
BRANCH   1   8
ATOM      5  N   UNL     1       1.622  -5.017  -0.063  0.00  0.00    -0.177 NA
ATOM      6  C   UNL     1       2.326  -5.229  -1.335  0.00  0.00    +0.110 C 
ATOM      7  C   UNL     1       2.946  -6.630  -1.328  0.00  0.00    +0.030 C 
ATOM      8  C   UNL     1       3.829  -6.786  -0.088  0.00  0.00    +0.078 C 
ATOM      9  C   UNL     1       2.974  -6.630   1.172  0.00  0.00    +0.030 C 
ATOM     10  C   UNL     1       2.356  -5.224   1.193  0.00  0.00    +0.110 C 
BRANCH   5  11
ATOM     11  S   UNL     1       0.035  -4.547  -0.046  0.00  0.00    +0.061 S 
ATOM     12  O   UNL     1      -0.496  -4.955   1.208  0.00  0.00    -0.153 OA
ATOM     13  O   UNL     1      -0.527  -4.965  -1.282  0.00  0.00    -0.153 OA
BRANCH  11  18
ATOM     14  C   UNL     1      -0.044   1.486  -0.071  0.00  0.00    +0.044 C 
ATOM     15  C   UNL     1      -0.024  -0.021  -0.065  0.00  0.00    -0.050 A 
ATOM     16  C   UNL     1      -0.029  -0.717  -1.259  0.00  0.00    +0.005 A 
ATOM     17  C   UNL     1      -0.011  -2.099  -1.253  0.00  0.00    +0.029 A 
ATOM     18  C   UNL     1       0.013  -2.785  -0.053  0.00  0.00    +0.105 A 
ATOM     19  C   UNL     1       0.018  -2.089   1.141  0.00  0.00    +0.029 A 
ATOM     20  C   UNL     1       0.004  -0.707   1.135  0.00  0.00    +0.005 A 
ENDBRANCH  11  18
ENDBRANCH   5  11
ENDBRANCH   1   8
BRANCH   3  21
ATOM     21  C   UNL     1       5.809  -9.816   0.952  0.00  0.00    +0.034 A 
ATOM     22  C   UNL     1       6.002 -10.445   2.175  0.00  0.00    +0.025 A 
ATOM     23  C   UNL     1       6.511 -11.727   2.219  0.00  0.00    +0.025 A 
ATOM     24  C   UNL     1       6.832 -12.388   1.040  0.00  0.00    +0.035 A 
ATOM     25  C   UNL     1       6.640 -11.759  -0.183  0.00  0.00    +0.025 A 
ATOM     26  C   UNL     1       6.125 -10.479  -0.227  0.00  0.00    +0.025 A 
BRANCH  24  27
ATOM     27  N   UNL     1       7.349 -13.689   1.085  0.00  0.00    -0.269 N 
ATOM     28  C   UNL     1       8.272 -14.079   0.183  0.00  0.00    +0.304 C 
ATOM     29  O   UNL     1       8.594 -13.331  -0.720  0.00  0.00    -0.253 OA
ATOM     30  N   UNL     1       8.838 -15.298   0.282  0.00  0.00    -0.296 N 
ATOM     31  H   UNL     1       7.044 -14.310   1.765  0.00  0.00    +0.156 HD
ATOM     32  H   UNL     1       8.582 -15.895   1.002  0.00  0.00    +0.151 HD
BRANCH  30  33
ATOM     33  C   UNL     1       9.841 -15.722  -0.699  0.00  0.00    +0.075 C 
ATOM     34  C   UNL     1       9.736 -17.146  -1.247  0.00  0.00    +0.024 C 
ATOM     35  C   UNL     1      10.850 -16.786  -0.262  0.00  0.00    +0.024 C 
ENDBRANCH  30  33
ENDBRANCH  24  27
ENDBRANCH   3  21
TORSDOF 6
