REMARK  Name = ZINC12771214
REMARK  3 active torsions:
REMARK  status: ('A' for Active; 'I' for Inactive)
REMARK    1  A    between atoms: C_3  and  N_18
REMARK    2  A    between atoms: C_6  and  N_7
REMARK    3  A    between atoms: C_8  and  C_10
REMARK                            x       y       z     vdW  Elec       q    Type
REMARK                         _______ _______ _______ _____ _____    ______ ____
ROOT
ATOM      1  C   UNL     1       2.295  -0.212  -0.201  0.00  0.00    +0.025 A 
ATOM      2  C   UNL     1       3.469  -0.931  -0.310  0.00  0.00    +0.026 A 
ATOM      3  C   UNL     1       4.690  -0.270  -0.312  0.00  0.00    +0.051 A 
ATOM      4  C   UNL     1       4.730   1.115  -0.210  0.00  0.00    +0.026 A 
ATOM      5  C   UNL     1       3.556   1.834  -0.106  0.00  0.00    +0.025 A 
ATOM      6  C   UNL     1       2.335   1.172  -0.104  0.00  0.00    +0.034 A 
ENDROOT
BRANCH   3   7
ATOM      7  N   UNL     1       5.880  -0.998  -0.418  0.00  0.00    -0.207 N 
ATOM      8  C   UNL     1       7.171  -0.518  -0.942  0.00  0.00    +0.133 C 
ATOM      9  C   UNL     1       8.343  -1.262  -0.269  0.00  0.00    +0.045 C 
ATOM     10  C   UNL     1       7.932  -2.765  -0.295  0.00  0.00    +0.190 C 
ATOM     11  S   UNL     1       6.127  -2.597   0.019  0.00  0.00    +0.046 S 
ATOM     12  O   UNL     1       5.851  -2.657   1.411  0.00  0.00    -0.155 OA
ATOM     13  O   UNL     1       5.380  -3.365  -0.914  0.00  0.00    -0.155 OA
ENDBRANCH   3   7
BRANCH   6  14
ATOM     14  N   UNL     1       1.143   1.901   0.001  0.00  0.00    -0.281 N 
ATOM     15  C   UNL     1       1.043   3.115  -0.577  0.00  0.00    +0.251 C 
ATOM     16  O   UNL     1       2.011   3.613  -1.117  0.00  0.00    -0.270 OA
ATOM     17  H   UNL     1       0.391   1.533   0.490  0.00  0.00    +0.155 HD
BRANCH  15  18
ATOM     18  C   UNL     1      -0.242   3.841  -0.548  0.00  0.00    +0.072 A 
ATOM     19  C   UNL     1      -1.357   3.272   0.072  0.00  0.00    +0.017 A 
ATOM     20  C   UNL     1      -2.553   3.955   0.096  0.00  0.00    +0.021 A 
ATOM     21  C   UNL     1      -2.654   5.205  -0.494  0.00  0.00    +0.044 A 
ATOM     22  C   UNL     1      -1.556   5.777  -1.111  0.00  0.00    +0.059 A 
ATOM     23  C   UNL     1      -0.347   5.106  -1.137  0.00  0.00    +0.137 A 
ATOM     24  F   UNL     1       0.727   5.667  -1.734  0.00  0.00    -0.205 F 
ATOM     25 CL   UNL     1      -4.166   6.058  -0.459  0.00  0.00    -0.083 Cl
ENDBRANCH  15  18
ENDBRANCH   6  14
TORSDOF 3
