REMARK  Name = ZINC20763862
REMARK  4 active torsions:
REMARK  status: ('A' for Active; 'I' for Inactive)
REMARK    1  A    between atoms: C_6  and  C_7
REMARK    2  A    between atoms: C_9  and  C_23
REMARK    3  A    between atoms: C_12  and  C_15
REMARK    4  A    between atoms: C_20  and  O_21
REMARK                            x       y       z     vdW  Elec       q    Type
REMARK                         _______ _______ _______ _____ _____    ______ ____
ROOT
ATOM      1  C   UNL     1       0.310   3.671  -0.527  0.00  0.00    +0.040 C 
ATOM      2  N   UNL     1       1.325   3.002  -0.122  0.00  0.00    -0.298 NA
ATOM      3  C   UNL     1       1.351   1.549  -0.003  0.00  0.00    +0.082 C 
ATOM      4  N   UNL     1      -0.012   1.005   0.008  0.00  0.00    +0.401 N 
ATOM      5  C   UNL     1      -0.777   1.529  -1.137  0.00  0.00    -0.028 C 
ATOM      6  C   UNL     1      -0.991   3.030  -0.922  0.00  0.00    +0.044 C 
ATOM      7  H   UNL     1       0.031  -0.092  -0.060  0.00  0.00    -0.081 HD
ATOM      8  H   UNL     1      -0.516   1.295   0.941  0.00  0.00    -0.081 HD
ENDROOT
BRANCH   1  14
ATOM      9  C   UNL     1      -0.658   5.901  -1.054  0.00  0.00    +0.013 A 
ATOM     10  C   UNL     1      -0.551   7.273  -1.127  0.00  0.00    +0.050 A 
ATOM     11  C   UNL     1       0.635   7.901  -0.772  0.00  0.00    +0.166 A 
ATOM     12  C   UNL     1       1.723   7.144  -0.334  0.00  0.00    +0.167 A 
ATOM     13  C   UNL     1       1.619   5.770  -0.253  0.00  0.00    +0.059 A 
ATOM     14  C   UNL     1       0.425   5.138  -0.611  0.00  0.00    -0.001 A 
ATOM     15  O   UNL     1       2.756   7.991  -0.050  0.00  0.00    -0.453 OA
ATOM     16  C   UNL     1       2.160   9.296   0.073  0.00  0.00    +0.466 C 
ATOM     17  O   UNL     1       0.989   9.218  -0.762  0.00  0.00    -0.453 OA
ENDBRANCH   1  14
BRANCH   3  18
ATOM     18  C   UNL     1       2.047   1.171   1.280  0.00  0.00    -0.022 A 
ATOM     19  C   UNL     1       1.638   0.053   1.984  0.00  0.00    +0.006 A 
ATOM     20  C   UNL     1       2.279  -0.298   3.156  0.00  0.00    +0.020 A 
ATOM     21  C   UNL     1       3.323   0.475   3.633  0.00  0.00    +0.042 A 
ATOM     22  C   UNL     1       3.729   1.596   2.932  0.00  0.00    +0.040 A 
ATOM     23  C   UNL     1       3.091   1.944   1.755  0.00  0.00    +0.046 A 
ATOM     24 CL   UNL     1       3.600   3.351   0.874  0.00  0.00    -0.083 Cl
ATOM     25 CL   UNL     1       4.123   0.038   5.110  0.00  0.00    -0.083 Cl
ENDBRANCH   3  18
BRANCH   5  26
ATOM     26  C   UNL     1      -2.111   0.832  -1.218  0.00  0.00    -0.018 A 
ATOM     27  C   UNL     1      -2.671   0.276  -0.084  0.00  0.00    +0.025 A 
ATOM     28  C   UNL     1      -3.895  -0.364  -0.158  0.00  0.00    +0.041 A 
ATOM     29  C   UNL     1      -4.561  -0.450  -1.368  0.00  0.00    +0.023 A 
ATOM     30  C   UNL     1      -4.004   0.104  -2.505  0.00  0.00    +0.047 A 
ATOM     31  C   UNL     1      -2.779   0.752  -2.431  0.00  0.00    +0.119 A 
ATOM     32 CL   UNL     1      -4.598  -1.060   1.269  0.00  0.00    -0.084 Cl
BRANCH  31  33
ATOM     33  O   UNL     1      -2.232   1.302  -3.547  0.00  0.00    -0.507 OA
ATOM     34  H   UNL     1      -2.763   1.238  -4.508  0.00  0.00    +0.292 HD
ENDBRANCH  31  33
ENDBRANCH   5  26
TORSDOF 4
