REMARK  Name = ZINC09346851
REMARK  3 active torsions:
REMARK  status: ('A' for Active; 'I' for Inactive)
REMARK    1  A    between atoms: C_6  and  N_7
REMARK    2  A    between atoms: C_10  and  C_16
REMARK    3  A    between atoms: N_18  and  C_19
REMARK                            x       y       z     vdW  Elec       q    Type
REMARK                         _______ _______ _______ _____ _____    ______ ____
ROOT
ATOM      1  N   UNL     1       2.394   4.542  -0.055  0.00  0.00    -0.228 N 
ATOM      2  C   UNL     1       2.360   5.888  -0.145  0.00  0.00    +0.273 A 
ATOM      3  O   UNL     1       1.311   6.473  -0.343  0.00  0.00    -0.266 OA
ATOM      4  C   UNL     1       3.621   6.634  -0.000  0.00  0.00    +0.118 A 
ATOM      5  C   UNL     1       4.780   5.915   0.222  0.00  0.00    +0.106 A 
ATOM      6  N   UNL     1       4.718   4.561   0.298  0.00  0.00    -0.313 N 
ATOM      7  H   UNL     1       5.532   4.057   0.455  0.00  0.00    +0.170 HD
ATOM      8  C   UNL     1       3.555   3.903   0.168  0.00  0.00    +0.334 A 
ATOM      9  O   UNL     1       3.552   2.690   0.249  0.00  0.00    -0.246 OA
ENDROOT
BRANCH   1  15
ATOM     10  C   UNL     1       0.373   3.628   0.906  0.00  0.00    +0.029 A 
ATOM     11  C   UNL     1      -0.795   2.902   0.773  0.00  0.00    +0.042 A 
ATOM     12  C   UNL     1      -1.136   2.356  -0.452  0.00  0.00    +0.142 A 
ATOM     13  C   UNL     1      -0.301   2.527  -1.545  0.00  0.00    +0.078 A 
ATOM     14  C   UNL     1       0.868   3.253  -1.416  0.00  0.00    +0.049 A 
ATOM     15  C   UNL     1       1.208   3.806  -0.188  0.00  0.00    +0.056 A 
ATOM     16 CL   UNL     1      -0.727   1.835  -3.079  0.00  0.00    -0.081 Cl
ATOM     17  F   UNL     1      -2.281   1.651  -0.581  0.00  0.00    -0.204 F 
ENDBRANCH   1  15
BRANCH   4  18
ATOM     18  C   UNL     1       3.646   8.101  -0.089  0.00  0.00    +0.255 C 
ATOM     19  O   UNL     1       4.709   8.693  -0.077  0.00  0.00    -0.270 OA
ATOM     20  N   UNL     1       2.492   8.791  -0.183  0.00  0.00    -0.281 N 
ATOM     21  H   UNL     1       1.643   8.327  -0.112  0.00  0.00    +0.155 HD
BRANCH  20  22
ATOM     22  C   UNL     1       2.518  10.175  -0.383  0.00  0.00    +0.036 A 
ATOM     23  C   UNL     1       1.493  10.969   0.114  0.00  0.00    +0.043 A 
ATOM     24  C   UNL     1       1.524  12.337  -0.081  0.00  0.00    +0.044 A 
ATOM     25  C   UNL     1       2.570  12.914  -0.780  0.00  0.00    +0.040 A 
ATOM     26  C   UNL     1       3.590  12.124  -1.282  0.00  0.00    +0.044 A 
ATOM     27  C   UNL     1       3.566  10.756  -1.085  0.00  0.00    +0.043 A 
ATOM     28 CL   UNL     1       4.900  12.852  -2.158  0.00  0.00    -0.083 Cl
ATOM     29 CL   UNL     1       0.247  13.332   0.545  0.00  0.00    -0.083 Cl
ENDBRANCH  20  22
ENDBRANCH   4  18
TORSDOF 3
