REMARK  Name = ZINC40688562
REMARK  5 active torsions:
REMARK  status: ('A' for Active; 'I' for Inactive)
REMARK    1  A    between atoms: C_1  and  C_2
REMARK    2  A    between atoms: C_2  and  C_3
REMARK    3  A    between atoms: C_6  and  N_9
REMARK    4  A    between atoms: C_11  and  N_28
REMARK    5  A    between atoms: C_12  and  N_16
REMARK                            x       y       z     vdW  Elec       q    Type
REMARK                         _______ _______ _______ _____ _____    ______ ____
ROOT
ATOM      1  N   UNL     1       2.656  -1.875  -4.659  0.00  0.00    -0.298 N 
ATOM      2  C   UNL     1       4.042  -1.980  -4.670  0.00  0.00    +0.149 A 
ATOM      3  C   UNL     1       4.718  -2.325  -5.843  0.00  0.00    +0.106 A 
ATOM      4  C   UNL     1       6.110  -2.416  -5.799  0.00  0.00    +0.147 A 
ATOM      5  N   UNL     1       6.736  -2.173  -4.650  0.00  0.00    -0.219 NA
ATOM      6  C   UNL     1       6.061  -1.851  -3.565  0.00  0.00    +0.225 A 
ATOM      7  N   UNL     1       4.747  -1.749  -3.565  0.00  0.00    -0.219 NA
ATOM      8  H   UNL     1       2.144  -2.131  -5.442  0.00  0.00    +0.154 HD
ENDROOT
BRANCH   4   9
ATOM      9  N   UNL     1       6.831  -2.755  -6.938  0.00  0.00    -0.311 N 
ATOM     10  C   UNL     1       7.221  -1.725  -7.911  0.00  0.00    +0.125 C 
ATOM     11  C   UNL     1       8.741  -1.784  -8.105  0.00  0.00    +0.125 C 
ATOM     12  N   UNL     1       9.128  -3.180  -8.357  0.00  0.00    -0.314 N 
ATOM     13  C   UNL     1       8.738  -4.210  -7.384  0.00  0.00    +0.125 C 
ATOM     14  C   UNL     1       7.223  -4.149  -7.187  0.00  0.00    +0.125 C 
ATOM     15  C   UNL     1       9.849  -3.519  -9.496  0.00  0.00    +0.099 A 
ATOM     16  C   UNL     1      10.314  -2.517 -10.342  0.00  0.00    +0.042 A 
ATOM     17  C   UNL     1      11.030  -2.869 -11.471  0.00  0.00    +0.005 A 
ATOM     18  C   UNL     1      11.259  -4.216 -11.718  0.00  0.00    +0.018 A 
ATOM     19  C   UNL     1      10.768  -5.158 -10.836  0.00  0.00    +0.084 A 
ATOM     20  N   UNL     1      10.092  -4.793  -9.763  0.00  0.00    -0.350 N 
ATOM     21  H   UNL     1       9.762  -5.475  -9.158  0.00  0.00    +0.166 HD
ENDBRANCH   4   9
BRANCH   1  25
ATOM     22  C   UNL     1       0.702  -0.463  -1.263  0.00  0.00    -0.048 A 
ATOM     23  C   UNL     1       2.007  -0.083  -1.516  0.00  0.00    +0.005 A 
ATOM     24  C   UNL     1       2.658  -0.549  -2.642  0.00  0.00    +0.023 A 
ATOM     25  C   UNL     1       2.001  -1.402  -3.519  0.00  0.00    +0.032 A 
ATOM     26  C   UNL     1       0.690  -1.782  -3.261  0.00  0.00    +0.023 A 
ATOM     27  C   UNL     1       0.046  -1.316  -2.132  0.00  0.00    +0.005 A 
BRANCH  22  29
ATOM     28  C   UNL     1       0.238  -0.912   1.131  0.00  0.00    +0.009 C 
ATOM     29  C   UNL     1      -0.005   0.049  -0.035  0.00  0.00    +0.032 C 
ENDBRANCH  22  29
ENDBRANCH   1  25
BRANCH   3  30
ATOM     30  N   UNL     1       4.016  -2.572  -7.033  0.00  0.00    -0.353 N 
ATOM     31  H   UNL     1       3.056  -2.435  -7.068  0.00  0.00    +0.143 HD
ATOM     32  H   UNL     1       4.490  -2.881  -7.821  0.00  0.00    +0.143 HD
ENDBRANCH   3  30
TORSDOF 4
