REMARK  Name = ZINC04556411
REMARK  7 active torsions:
REMARK  status: ('A' for Active; 'I' for Inactive)
REMARK    1  A    between atoms: C_1  and  C_2
REMARK    2  A    between atoms: C_2  and  N_55
REMARK    3  A    between atoms: C_10  and  O_29
REMARK    4  A    between atoms: C_12  and  C_15
REMARK    5  A    between atoms: C_19  and  O_21
REMARK    6  A    between atoms: O_21  and  C_22
REMARK    7  A    between atoms: C_22  and  C_23
REMARK                            x       y       z     vdW  Elec       q    Type
REMARK                         _______ _______ _______ _____ _____    ______ ____
ROOT
ATOM      1  C   UNL     1       1.129   6.726   3.376  0.00  0.00    -0.074 C 
ATOM      2  C   UNL     1       0.236   5.600   2.849  0.00  0.00    +0.018 C 
ATOM      3  C   UNL     1       1.043   4.782   1.847  0.00  0.00    -0.027 A 
ATOM      4  C   UNL     1       2.171   5.300   1.304  0.00  0.00    -0.021 A 
ATOM      5  S   UNL     1       2.780   4.033   0.226  0.00  0.00    -0.080 S 
ATOM      6  C   UNL     1       1.570   2.852   0.492  0.00  0.00    +0.080 A 
ATOM      7  C   UNL     1       0.693   3.443   1.411  0.00  0.00    +0.067 A 
ATOM      8  C   UNL     1      -0.488   2.647   1.833  0.00  0.00    +0.220 C 
ATOM      9  N   UNL     1      -0.742   1.545   1.183  0.00  0.00    -0.223 NA
ATOM     10  C   UNL     1      -0.013   1.086   0.008  0.00  0.00    +0.224 C 
ATOM     11  N   UNL     1       1.374   1.586  -0.003  0.00  0.00    -0.313 N 
ATOM     12  C   UNL     1       2.750   6.652   1.578  0.00  0.00    -0.035 C 
ATOM     13  H   UNL     1       2.109   1.049  -0.340  0.00  0.00    +0.149 HD
ATOM     14  N   UNL     1       1.703   7.470   2.237  0.00  0.00    +0.383 N 
ATOM     15  H   UNL     1       0.958   7.670   1.558  0.00  0.00    -0.081 HD
ENDROOT
BRANCH  10  16
ATOM     16  C   UNL     1      -0.721   1.574  -1.230  0.00  0.00    -0.002 A 
ATOM     17  C   UNL     1      -0.002   1.821  -2.385  0.00  0.00    +0.007 A 
ATOM     18  C   UNL     1      -0.649   2.264  -3.523  0.00  0.00    +0.004 A 
ATOM     19  C   UNL     1      -2.015   2.472  -3.506  0.00  0.00    +0.045 A 
ATOM     20  C   UNL     1      -2.737   2.230  -2.347  0.00  0.00    +0.121 A 
ATOM     21  C   UNL     1      -2.086   1.781  -1.207  0.00  0.00    +0.053 A 
BRANCH  20  22
ATOM     22  O   UNL     1      -4.081   2.434  -2.328  0.00  0.00    -0.487 OA
BRANCH  22  23
ATOM     23  C   UNL     1      -4.684   2.898  -3.537  0.00  0.00    +0.264 C 
BRANCH  23  24
ATOM     24  C   UNL     1      -6.167   3.066  -3.327  0.00  0.00    -0.010 A 
ATOM     25  C   UNL     1      -7.025   2.012  -3.581  0.00  0.00    +0.007 A 
ATOM     26  C   UNL     1      -8.384   2.164  -3.384  0.00  0.00    +0.000 A 
ATOM     27  C   UNL     1      -8.887   3.373  -2.941  0.00  0.00    +0.000 A 
ATOM     28  C   UNL     1      -8.030   4.429  -2.692  0.00  0.00    +0.000 A 
ATOM     29  C   UNL     1      -6.670   4.275  -2.884  0.00  0.00    +0.007 A 
ENDBRANCH  23  24
ENDBRANCH  22  23
ENDBRANCH  20  22
ENDBRANCH  10  16
BRANCH  14  31
ATOM     30  C   UNL     1       2.671   9.591   1.490  0.00  0.00    -0.017 C 
ATOM     31  C   UNL     1       2.281   8.748   2.706  0.00  0.00    -0.082 C 
ENDBRANCH  14  31
BRANCH   8  32
ATOM     32  O   UNL     1      -1.274   3.051   2.858  0.00  0.00    -0.492 OA
ATOM     33  H   UNL     1      -2.013   2.456   3.045  0.00  0.00    +0.294 HD
ENDBRANCH   8  32
TORSDOF 6
