REMARK  Name = ZINC01326803
REMARK  5 active torsions:
REMARK  status: ('A' for Active; 'I' for Inactive)
REMARK    1  A    between atoms: C_4  and  N_34
REMARK    2  A    between atoms: C_5  and  N_7
REMARK    3  A    between atoms: C_8  and  C_10
REMARK    4  A    between atoms: C_14  and  C_25
REMARK    5  A    between atoms: C_17  and  C_21
REMARK                            x       y       z     vdW  Elec       q    Type
REMARK                         _______ _______ _______ _____ _____    ______ ____
ROOT
ATOM      1  C   UNL     1       0.114  -4.248   0.190  0.00  0.00    +0.110 C 
ATOM      2  C   UNL     1       1.234  -5.012   0.192  0.00  0.00    +0.072 C 
ATOM      3  C   UNL     1       0.808  -6.405   0.312  0.00  0.00    +0.114 C 
ATOM      4  N   UNL     1       1.520  -7.495   0.366  0.00  0.00    -0.365 N 
ATOM      5  C   UNL     1       0.838  -8.785   0.527  0.00  0.00    +0.113 C 
ATOM      6  C   UNL     1      -0.531  -8.757  -0.153  0.00  0.00    +0.062 C 
ATOM      7  C   UNL     1      -1.380  -7.620   0.438  0.00  0.00    +0.201 C 
ATOM      8  N   UNL     1      -0.580  -6.394   0.355  0.00  0.00    -0.226 N 
ATOM      9  N   UNL     1      -0.997  -5.068   0.306  0.00  0.00    -0.258 N 
ATOM     10  H   UNL     1      -1.918  -4.766   0.344  0.00  0.00    +0.170 HD
ATOM     11  H   UNL     1       2.487  -7.455   0.301  0.00  0.00    +0.161 HD
ENDROOT
BRANCH   5  12
ATOM     12  C   UNL     1       1.678  -9.872  -0.094  0.00  0.00    -0.021 A 
ATOM     13  C   UNL     1       2.337  -9.638  -1.286  0.00  0.00    +0.009 A 
ATOM     14  C   UNL     1       3.109 -10.631  -1.859  0.00  0.00    +0.050 A 
ATOM     15  C   UNL     1       3.223 -11.865  -1.240  0.00  0.00    +0.166 A 
ATOM     16  C   UNL     1       2.559 -12.101  -0.038  0.00  0.00    +0.167 A 
ATOM     17  C   UNL     1       1.792 -11.099   0.533  0.00  0.00    +0.055 A 
ATOM     18  O   UNL     1       2.827 -13.377   0.365  0.00  0.00    -0.453 OA
ATOM     19  C   UNL     1       3.328 -14.053  -0.803  0.00  0.00    +0.466 C 
ATOM     20  O   UNL     1       3.907 -12.994  -1.588  0.00  0.00    -0.453 OA
ENDBRANCH   5  12
BRANCH   1  22
ATOM     21  N   UNL     1       1.234  -2.081  -0.021  0.00  0.00    -0.279 N 
ATOM     22  C   UNL     1       0.083  -2.773   0.088  0.00  0.00    +0.264 C 
ATOM     23  O   UNL     1      -0.981  -2.185   0.102  0.00  0.00    -0.268 OA
ATOM     24  H   UNL     1       2.077  -2.553  -0.113  0.00  0.00    +0.155 HD
BRANCH  21  29
ATOM     25  C   UNL     1       0.153   1.373   0.637  0.00  0.00    +0.002 A 
ATOM     26  C   UNL     1       1.172   2.090   0.036  0.00  0.00    +0.002 A 
ATOM     27  C   UNL     1       2.215   1.429  -0.585  0.00  0.00    +0.025 A 
ATOM     28  C   UNL     1       2.241   0.042  -0.608  0.00  0.00    +0.051 A 
ATOM     29  C   UNL     1       1.214  -0.681  -0.002  0.00  0.00    +0.055 A 
ATOM     30  C   UNL     1       0.171  -0.009   0.619  0.00  0.00    +0.025 A 
BRANCH  28  31
ATOM     31  N   UNL     1       3.296  -0.629  -1.236  0.00  0.00    -0.324 N 
ATOM     32  C   UNL     1       3.225  -0.982  -2.663  0.00  0.00    +0.133 C 
ATOM     33  C   UNL     1       4.510  -0.497  -3.345  0.00  0.00    +0.178 C 
ATOM     34  O   UNL     1       5.641  -0.990  -2.624  0.00  0.00    -0.377 OA
ATOM     35  C   UNL     1       5.729  -0.516  -1.278  0.00  0.00    +0.178 C 
ATOM     36  C   UNL     1       4.510  -0.998  -0.492  0.00  0.00    +0.133 C 
ENDBRANCH  28  31
ENDBRANCH  21  29
ENDBRANCH   1  22
BRANCH   7  37
ATOM     37  C   UNL     1      -2.670  -7.459  -0.369  0.00  0.00    +0.410 C 
ATOM     38  F   UNL     1      -3.400  -8.652  -0.324  0.00  0.00    -0.169 F 
ATOM     39  F   UNL     1      -3.435  -6.423   0.176  0.00  0.00    -0.169 F 
ATOM     40  F   UNL     1      -2.353  -7.156  -1.698  0.00  0.00    -0.169 F 
ENDBRANCH   7  37
TORSDOF 5
