REMARK  Name = ZINC63926080
REMARK  9 active torsions:
REMARK  status: ('A' for Active; 'I' for Inactive)
REMARK    1  A    between atoms: C_1  and  C_2
REMARK    2  A    between atoms: C_5  and  C_8
REMARK    3  A    between atoms: C_8  and  O_9
REMARK    4  A    between atoms: O_9  and  C_10
REMARK    5  A    between atoms: C_10  and  C_12
REMARK    6  A    between atoms: C_12  and  C_14
REMARK    7  A    between atoms: C_12  and  N_24
REMARK    8  A    between atoms: C_14  and  C_15
REMARK    9  A    between atoms: C_25  and  C_27
REMARK                            x       y       z     vdW  Elec       q    Type
REMARK                         _______ _______ _______ _____ _____    ______ ____
ROOT
ATOM      1  C   UNL     1      -1.968  -5.992   3.322  0.00  0.00    +0.186 C 
ENDROOT
BRANCH   1   2
ATOM      2  N   UNL     1      -2.972  -7.051   3.445  0.00  0.00    -0.298 N 
ATOM      3  C   UNL     1      -3.022  -7.806   4.561  0.00  0.00    +0.245 C 
ATOM      4  O   UNL     1      -2.234  -7.607   5.465  0.00  0.00    -0.270 OA
ATOM      5  H   UNL     1      -3.601  -7.210   2.724  0.00  0.00    +0.150 HD
BRANCH   3   6
ATOM      6  C   UNL     1      -4.035  -8.874   4.685  0.00  0.00    +0.037 A 
ATOM      7  C   UNL     1      -4.938  -9.108   3.646  0.00  0.00    +0.016 A 
ATOM      8  C   UNL     1      -5.881 -10.106   3.767  0.00  0.00    +0.039 A 
ATOM      9  C   UNL     1      -5.935 -10.876   4.918  0.00  0.00    +0.123 A 
ATOM     10  C   UNL     1      -5.040 -10.648   5.953  0.00  0.00    +0.039 A 
ATOM     11  C   UNL     1      -4.089  -9.657   5.840  0.00  0.00    +0.016 A 
ATOM     12  F   UNL     1      -6.862 -11.853   5.033  0.00  0.00    -0.205 F 
ENDBRANCH   3   6
ENDBRANCH   1   2
BRANCH   1  13
ATOM     13  C   UNL     1      -2.460  -4.942   2.359  0.00  0.00    +0.328 C 
ATOM     14  O   UNL     1      -3.539  -5.067   1.830  0.00  0.00    -0.249 OA
BRANCH  13  15
ATOM     15  O   UNL     1      -1.700  -3.870   2.089  0.00  0.00    -0.457 OA
BRANCH  15  16
ATOM     16  C   UNL     1      -2.229  -2.915   1.167  0.00  0.00    +0.286 C 
BRANCH  16  20
ATOM     17  C   UNL     1      -0.019   1.526   0.010  0.00  0.00    +0.055 C 
ATOM     18  C   UNL     1       0.002  -0.004   0.002  0.00  0.00    +0.207 C 
ATOM     19  C   UNL     1      -1.432  -0.579   0.093  0.00  0.00    +0.104 C 
ATOM     20  C   UNL     1      -1.244  -1.789   0.989  0.00  0.00    +0.098 C 
ATOM     21  N   UNL     1      -0.110  -1.692   1.566  0.00  0.00    -0.090 NA
ATOM     22  O   UNL     1       0.598  -0.520   1.210  0.00  0.00    -0.390 OA
ENDBRANCH  16  20
ENDBRANCH  15  16
ENDBRANCH  13  15
ENDBRANCH   1  13
BRANCH   1  23
ATOM     23  C   UNL     1      -0.659  -6.588   2.801  0.00  0.00    +0.067 C 
BRANCH  23  24
ATOM     24  C   UNL     1      -0.103  -7.548   3.821  0.00  0.00    -0.039 C 
ATOM     25  C   UNL     1      -0.274  -8.889   3.854  0.00  0.00    -0.001 A 
ATOM     26  C   UNL     1      -1.003  -9.820   2.983  0.00  0.00    +0.010 A 
ATOM     27  C   UNL     1      -0.993 -11.140   3.280  0.00  0.00    +0.001 A 
ATOM     28  C   UNL     1      -0.305 -11.639   4.395  0.00  0.00    +0.002 A 
ATOM     29  C   UNL     1       0.386 -10.847   5.240  0.00  0.00    +0.026 A 
ATOM     30  C   UNL     1       0.444  -9.442   5.024  0.00  0.00    +0.043 A 
ATOM     31  N   UNL     1       1.036  -8.480   5.689  0.00  0.00    -0.380 N 
ATOM     32  C   UNL     1       0.765  -7.207   5.011  0.00  0.00    +0.144 C 
ATOM     33  H   UNL     1       1.567  -8.591   6.493  0.00  0.00    +0.160 HD
ENDBRANCH  23  24
ENDBRANCH   1  23
TORSDOF 8
