REMARK  Name = ZINC03009169
REMARK  4 active torsions:
REMARK  status: ('A' for Active; 'I' for Inactive)
REMARK    1  A    between atoms: C_3  and  N_28
REMARK    2  A    between atoms: C_6  and  N_7
REMARK    3  A    between atoms: C_8  and  N_17
REMARK    4  A    between atoms: C_18  and  C_20
REMARK                            x       y       z     vdW  Elec       q    Type
REMARK                         _______ _______ _______ _____ _____    ______ ____
ROOT
ATOM      1  N   UNL     1      -0.113   1.092  -0.254  0.00  0.00    -0.218 N 
ATOM      2  C   UNL     1      -0.008  -0.226   0.051  0.00  0.00    +0.134 A 
ATOM      3  C   UNL     1       1.315  -0.482   0.334  0.00  0.00    +0.038 A 
ATOM      4  C   UNL     1       2.015   0.705   0.197  0.00  0.00    +0.091 A 
ATOM      5  N   UNL     1       1.161   1.654  -0.157  0.00  0.00    -0.168 NA
ATOM      6  C   UNL     1       3.518   0.650   0.468  0.00  0.00    +0.223 C 
ATOM      7  S   UNL     1       3.684  -0.957   1.348  0.00  0.00    -0.021 S 
ATOM      8  O   UNL     1       3.590  -0.739   2.749  0.00  0.00    -0.174 OA
ATOM      9  O   UNL     1       4.791  -1.673   0.818  0.00  0.00    -0.174 OA
ATOM     10  C   UNL     1       2.121  -1.714   0.742  0.00  0.00    +0.206 C 
ENDROOT
BRANCH   1  16
ATOM     11  C   UNL     1      -2.202   1.168  -1.468  0.00  0.00    +0.030 A 
ATOM     12  C   UNL     1      -3.362   1.834  -1.813  0.00  0.00    +0.035 A 
ATOM     13  C   UNL     1      -3.611   3.098  -1.311  0.00  0.00    +0.126 A 
ATOM     14  C   UNL     1      -2.701   3.698  -0.459  0.00  0.00    +0.035 A 
ATOM     15  C   UNL     1      -1.542   3.036  -0.107  0.00  0.00    +0.030 A 
ATOM     16  C   UNL     1      -1.289   1.766  -0.609  0.00  0.00    +0.068 A 
BRANCH  13  17
ATOM     17  N   UNL     1      -4.852   3.811  -1.686  0.00  0.00    +0.056 N 
ATOM     18  O   UNL     1      -5.072   4.925  -1.245  0.00  0.00    -0.126 OA
ATOM     19  O   UNL     1      -5.654   3.284  -2.436  0.00  0.00    -0.126 OA
ENDBRANCH  13  17
ENDBRANCH   1  16
BRANCH   2  20
ATOM     20  N   UNL     1      -1.049  -1.151   0.073  0.00  0.00    -0.266 N 
ATOM     21  C   UNL     1      -0.800  -2.452  -0.179  0.00  0.00    +0.251 C 
ATOM     22  O   UNL     1       0.340  -2.825  -0.376  0.00  0.00    -0.270 OA
ATOM     23  H   UNL     1      -1.953  -0.860   0.271  0.00  0.00    +0.157 HD
BRANCH  21  24
ATOM     24  C   UNL     1      -1.913  -3.423  -0.218  0.00  0.00    +0.056 A 
ATOM     25  C   UNL     1      -3.206  -3.022   0.126  0.00  0.00    +0.029 A 
ATOM     26  C   UNL     1      -4.240  -3.934   0.087  0.00  0.00    +0.019 A 
ATOM     27  C   UNL     1      -3.999  -5.244  -0.291  0.00  0.00    +0.017 A 
ATOM     28  C   UNL     1      -2.722  -5.649  -0.632  0.00  0.00    +0.022 A 
ATOM     29  C   UNL     1      -1.678  -4.745  -0.604  0.00  0.00    +0.053 A 
ATOM     30 CL   UNL     1      -0.076  -5.252  -1.040  0.00  0.00    -0.083 Cl
ATOM     31 BR   UNL     1      -5.992  -3.393   0.552  0.00  0.00    -0.050 Br
ENDBRANCH  21  24
ENDBRANCH   2  20
TORSDOF 4
