REMARK  Name = ZINC13742373
REMARK  17 active torsions:
REMARK  status: ('A' for Active; 'I' for Inactive)
REMARK    1  A    between atoms: C_1  and  C_2
REMARK    2  A    between atoms: C_2  and  C_28
REMARK    3  A    between atoms: C_3  and  C_4
REMARK    4  A    between atoms: C_4  and  C_5
REMARK    5  A    between atoms: C_5  and  C_6
REMARK    6  A    between atoms: C_6  and  C_27
REMARK    7  A    between atoms: C_7  and  C_8
REMARK    8  A    between atoms: C_8  and  C_9
REMARK    9  A    between atoms: C_9  and  C_10
REMARK   10  A    between atoms: C_10  and  C_26
REMARK   11  A    between atoms: C_11  and  C_12
REMARK   12  A    between atoms: C_12  and  N_13
REMARK   13  A    between atoms: C_14  and  C_16
REMARK   14  A    between atoms: C_16  and  C_18
REMARK   15  A    between atoms: C_16  and  C_23
REMARK   16  A    between atoms: C_18  and  P_19
REMARK   17  A    between atoms: P_19  and  O_22
REMARK                            x       y       z     vdW  Elec       q    Type
REMARK                         _______ _______ _______ _____ _____    ______ ____
ROOT
ATOM      1  C   UNL     1      -5.059  -1.250   4.271  0.00  0.00    +0.131 C 
ENDROOT
BRANCH   1   2
ATOM      2  N   UNL     1      -4.641  -2.654   4.277  0.00  0.00    -0.311 N 
ATOM      3  C   UNL     1      -5.549  -3.628   4.484  0.00  0.00    +0.228 C 
ATOM      4  O   UNL     1      -6.714  -3.342   4.664  0.00  0.00    -0.275 OA
ATOM      5  H   UNL     1      -3.584  -2.914   4.113  0.00  0.00    +0.149 HD
BRANCH   3   6
ATOM      6  C   UNL     1      -5.118  -5.072   4.490  0.00  0.00    +0.199 C 
BRANCH   6   7
ATOM      7  C   UNL     1      -4.100  -5.287   5.580  0.00  0.00    +0.368 C 
ATOM      8  O   UNL     1      -3.759  -4.363   6.279  0.00  0.00    -0.246 OA
ATOM      9  O   UNL     1      -3.571  -6.506   5.773  0.00  0.00    -0.246 OA
ENDBRANCH   6   7
BRANCH   6  10
ATOM     10  C   UNL     1      -6.334  -5.966   4.744  0.00  0.00    +0.153 C 
BRANCH  10  11
ATOM     11  P   UNL     1      -5.920  -7.689   4.317  0.00  0.00    +0.359 P 
ATOM     12  O   UNL     1      -5.426  -7.747   2.923  0.00  0.00    -0.256 OA
ATOM     13  O   UNL     1      -4.778  -8.230   5.314  0.00  0.00    -0.141 OA
BRANCH  11  14
ATOM     14  O   UNL     1      -7.235  -8.607   4.459  0.00  0.00    -0.322 OA
ATOM     15  H   UNL     1      -7.180  -9.684   4.241  0.00  0.00    +0.220 HD
ENDBRANCH  11  14
ENDBRANCH  10  11
ENDBRANCH   6  10
ENDBRANCH   3   6
ENDBRANCH   1   2
BRANCH   1  17
ATOM     16  C   UNL     1      -3.883   0.501   3.043  0.00  0.00    -0.075 C 
ATOM     17  C   UNL     1      -3.862  -0.370   4.021  0.00  0.00    -0.009 C 
ATOM     18  C   UNL     1      -5.143   0.704   2.241  0.00  0.00    +0.039 C 
BRANCH  16  19
ATOM     19  C   UNL     1      -2.647   1.301   2.720  0.00  0.00    +0.034 C 
BRANCH  19  20
ATOM     20  C   UNL     1      -1.870   0.609   1.599  0.00  0.00    +0.031 C 
BRANCH  20  22
ATOM     21  C   UNL     1       0.544   0.838   1.316  0.00  0.00    -0.076 C 
ATOM     22  C   UNL     1      -0.634   1.408   1.276  0.00  0.00    -0.028 C 
ATOM     23  C   UNL     1       0.655  -0.646   1.553  0.00  0.00    +0.039 C 
BRANCH  21  24
ATOM     24  C   UNL     1       1.789   1.665   1.120  0.00  0.00    +0.034 C 
BRANCH  24  25
ATOM     25  C   UNL     1       2.350   2.072   2.483  0.00  0.00    +0.031 C 
BRANCH  25  28
ATOM     26  C   UNL     1       2.438   4.732   3.411  0.00  0.00    +0.038 C 
ATOM     27  C   UNL     1       3.648   4.124   2.750  0.00  0.00    -0.080 C 
ATOM     28  C   UNL     1       3.595   2.899   2.287  0.00  0.00    -0.028 C 
ATOM     29  C   UNL     1       4.918   4.924   2.621  0.00  0.00    +0.038 C 
ENDBRANCH  25  28
ENDBRANCH  24  25
ENDBRANCH  21  24
ENDBRANCH  20  22
ENDBRANCH  19  20
ENDBRANCH  16  19
ENDBRANCH   1  17
TORSDOF 13
