REMARK  Name = ZINC20436810
REMARK  12 active torsions:
REMARK  status: ('A' for Active; 'I' for Inactive)
REMARK    1  A    between atoms: C_4  and  N_7
REMARK    2  A    between atoms: N_7  and  C_8
REMARK    3  A    between atoms: C_8  and  C_9
REMARK    4  A    between atoms: C_9  and  C_11
REMARK    5  A    between atoms: C_9  and  O_30
REMARK    6  A    between atoms: C_11  and  N_12
REMARK    7  A    between atoms: N_15  and  C_18
REMARK    8  A    between atoms: C_18  and  C_19
REMARK    9  A    between atoms: C_19  and  C_21
REMARK   10  A    between atoms: C_19  and  O_29
REMARK   11  A    between atoms: C_21  and  N_22
REMARK   12  A    between atoms: N_22  and  C_23
REMARK                            x       y       z     vdW  Elec       q    Type
REMARK                         _______ _______ _______ _____ _____    ______ ____
ROOT
ATOM      1  N   UNL     1       4.613  -4.008  -5.098  0.00  0.00    -0.298 NA
ATOM      2  C   UNL     1       3.902  -3.683  -6.342  0.00  0.00    +0.100 C 
ATOM      3  C   UNL     1       4.638  -4.313  -7.527  0.00  0.00    +0.100 C 
ATOM      4  N   UNL     1       4.718  -5.767  -7.334  0.00  0.00    -0.298 NA
ATOM      5  C   UNL     1       5.429  -6.092  -6.090  0.00  0.00    +0.100 C 
ATOM      6  C   UNL     1       4.692  -5.463  -4.905  0.00  0.00    +0.100 C 
ENDROOT
BRANCH   1   7
ATOM      7  C   UNL     1       3.978  -3.357  -3.944  0.00  0.00    +0.113 C 
BRANCH   7   8
ATOM      8  C   UNL     1       4.136  -1.840  -4.063  0.00  0.00    +0.112 C 
BRANCH   8   9
ATOM      9  O   UNL     1       5.525  -1.506  -4.094  0.00  0.00    -0.392 OA
ATOM     10  H   UNL     1       6.013  -1.783  -3.307  0.00  0.00    +0.210 HD
ENDBRANCH   8   9
BRANCH   8  11
ATOM     11  C   UNL     1       3.475  -1.163  -2.861  0.00  0.00    -0.049 C 
BRANCH  11  12
ATOM     12  N   UNL     1       3.520   0.295  -3.035  0.00  0.00    +0.383 N 
ATOM     13  H   UNL     1       3.027   0.549  -3.877  0.00  0.00    -0.085 HD
ATOM     14  H   UNL     1       4.481   0.596  -3.104  0.00  0.00    -0.085 HD
BRANCH  12  18
ATOM     15  C   UNL     1       0.895   2.783  -0.765  0.00  0.00    -0.000 C 
ATOM     16  C   UNL     1       2.382   3.141  -0.798  0.00  0.00    -0.002 C 
ATOM     17  C   UNL     1       3.043   2.463  -2.000  0.00  0.00    -0.016 C 
ATOM     18  C   UNL     1       2.886   0.946  -1.880  0.00  0.00    -0.072 C 
ATOM     19  C   UNL     1       1.399   0.588  -1.847  0.00  0.00    -0.016 C 
ATOM     20  C   UNL     1       0.738   1.266  -0.645  0.00  0.00    -0.002 C 
ENDBRANCH  12  18
ENDBRANCH  11  12
ENDBRANCH   8  11
ENDBRANCH   7   8
ENDBRANCH   1   7
BRANCH   4  21
ATOM     21  C   UNL     1       5.352  -6.418  -8.488  0.00  0.00    +0.113 C 
BRANCH  21  22
ATOM     22  C   UNL     1       4.359  -6.476  -9.650  0.00  0.00    +0.112 C 
BRANCH  22  23
ATOM     23  O   UNL     1       3.238  -7.282  -9.279  0.00  0.00    -0.392 OA
ATOM     24  H   UNL     1       3.467  -8.194  -9.053  0.00  0.00    +0.210 HD
ENDBRANCH  22  23
BRANCH  22  25
ATOM     25  C   UNL     1       5.042  -7.087 -10.875  0.00  0.00    -0.049 C 
BRANCH  25  26
ATOM     26  N   UNL     1       4.128  -7.033 -12.024  0.00  0.00    +0.383 N 
ATOM     27  H   UNL     1       3.290  -7.555 -11.811  0.00  0.00    -0.085 HD
ATOM     28  H   UNL     1       3.886  -6.073 -12.217  0.00  0.00    -0.085 HD
BRANCH  26  29
ATOM     29  C   UNL     1       4.784  -7.619 -13.200  0.00  0.00    -0.072 C 
ATOM     30  C   UNL     1       5.984  -6.756 -13.598  0.00  0.00    -0.016 C 
ATOM     31  C   UNL     1       6.667  -7.367 -14.823  0.00  0.00    -0.002 C 
ATOM     32  C   UNL     1       5.674  -7.425 -15.985  0.00  0.00    -0.000 C 
ATOM     33  C   UNL     1       4.474  -8.288 -15.587  0.00  0.00    -0.002 C 
ATOM     34  C   UNL     1       3.791  -7.678 -14.362  0.00  0.00    -0.016 C 
ENDBRANCH  26  29
ENDBRANCH  25  26
ENDBRANCH  22  25
ENDBRANCH  21  22
ENDBRANCH   4  21
TORSDOF 12
