REMARK  Name = ZINC38486858
REMARK  5 active torsions:
REMARK  status: ('A' for Active; 'I' for Inactive)
REMARK    1  A    between atoms: C_6  and  C_7
REMARK    2  A    between atoms: C_13  and  S_19
REMARK    3  A    between atoms: S_19  and  C_20
REMARK    4  A    between atoms: C_20  and  C_21
REMARK    5  A    between atoms: N_23  and  C_24
REMARK                            x       y       z     vdW  Elec       q    Type
REMARK                         _______ _______ _______ _____ _____    ______ ____
ROOT
ATOM      1  C   UNL     1      -1.271  -0.766  -0.022  0.00  0.00    +0.094 A 
ATOM      2  C   UNL     1      -1.390  -2.164  -0.025  0.00  0.00    +0.061 A 
ATOM      3  C   UNL     1      -2.732  -2.465  -0.006  0.00  0.00    +0.112 A 
ATOM      4  C   UNL     1      -3.490  -3.720   0.001  0.00  0.00    +0.187 A 
ATOM      5  N   UNL     1      -3.165  -4.991  -0.007  0.00  0.00    -0.126 NA
ATOM      6  N   UNL     1      -4.231  -5.713   0.006  0.00  0.00    -0.122 NA
ATOM      7  C   UNL     1      -5.300  -4.945   0.024  0.00  0.00    +0.196 A 
ATOM      8  N   UNL     1      -4.868  -3.653   0.021  0.00  0.00    -0.274 N 
ATOM      9  C   UNL     1      -5.498  -2.422   0.034  0.00  0.00    +0.115 A 
ATOM     10  C   UNL     1      -4.808  -1.289   0.026  0.00  0.00    +0.131 A 
ATOM     11  N   UNL     1      -3.422  -1.279   0.007  0.00  0.00    -0.234 N 
ATOM     12  N   UNL     1      -2.482  -0.242   0.003  0.00  0.00    -0.166 NA
ENDROOT
BRANCH   1  18
ATOM     13  C   UNL     1      -0.016   1.388  -0.027  0.00  0.00    +0.013 A 
ATOM     14  C   UNL     1       1.171   2.092  -0.042  0.00  0.00    +0.039 A 
ATOM     15  C   UNL     1       2.379   1.416  -0.068  0.00  0.00    +0.123 A 
ATOM     16  C   UNL     1       2.402   0.031  -0.079  0.00  0.00    +0.039 A 
ATOM     17  C   UNL     1       1.221  -0.681  -0.064  0.00  0.00    +0.013 A 
ATOM     18  C   UNL     1       0.003  -0.005  -0.038  0.00  0.00    +0.002 A 
ATOM     19  F   UNL     1       3.539   2.109  -0.082  0.00  0.00    -0.205 F 
ENDBRANCH   1  18
BRANCH   7  20
ATOM     20  S   UNL     1      -6.976  -5.487   0.047  0.00  0.00    -0.076 S 
BRANCH  20  21
ATOM     21  C   UNL     1      -6.852  -7.297   0.040  0.00  0.00    +0.173 C 
BRANCH  21  22
ATOM     22  C   UNL     1      -8.235  -7.895   0.058  0.00  0.00    +0.227 C 
ATOM     23  O   UNL     1      -9.208  -7.172   0.074  0.00  0.00    -0.275 OA
ATOM     24  N   UNL     1      -8.390  -9.234   0.056  0.00  0.00    -0.285 N 
ATOM     25  H   UNL     1      -7.615  -9.812  -0.024  0.00  0.00    +0.155 HD
BRANCH  24  26
ATOM     26  C   UNL     1      -9.669  -9.790   0.171  0.00  0.00    +0.033 A 
ATOM     27  C   UNL     1      -9.852 -10.975   0.873  0.00  0.00    +0.024 A 
ATOM     28  C   UNL     1     -11.116 -11.521   0.984  0.00  0.00    +0.017 A 
ATOM     29  C   UNL     1     -12.198 -10.890   0.398  0.00  0.00    +0.018 A 
ATOM     30  C   UNL     1     -12.018  -9.710  -0.302  0.00  0.00    +0.017 A 
ATOM     31  C   UNL     1     -10.758  -9.156  -0.412  0.00  0.00    +0.024 A 
ATOM     32 BR   UNL     1     -13.926 -11.642   0.552  0.00  0.00    -0.050 Br
ENDBRANCH  24  26
ENDBRANCH  21  22
ENDBRANCH  20  21
ENDBRANCH   7  20
TORSDOF 5
