REMARK  Name = ZINC63529058
REMARK  4 active torsions:
REMARK  status: ('A' for Active; 'I' for Inactive)
REMARK    1  A    between atoms: C_1  and  C_2
REMARK    2  A    between atoms: C_4  and  C_17
REMARK    3  A    between atoms: N_19  and  C_20
REMARK    4  A    between atoms: C_24  and  C_26
REMARK                            x       y       z     vdW  Elec       q    Type
REMARK                         _______ _______ _______ _____ _____    ______ ____
ROOT
ATOM      1  C   UNL     1      -1.551  -1.890  -0.605  0.00  0.00    +0.259 C 
ATOM      2  O   UNL     1      -1.759  -2.914   0.010  0.00  0.00    -0.271 OA
ATOM      3  N   UNL     1      -1.422  -1.924  -1.946  0.00  0.00    -0.282 N 
ATOM      4  H   UNL     1      -1.323  -1.098  -2.445  0.00  0.00    +0.155 HD
ENDROOT
BRANCH   1   7
ATOM      5  C   UNL     1      -0.041   1.537   0.006  0.00  0.00    +0.016 C 
ATOM      6  C   UNL     1      -0.009   0.007  -0.001  0.00  0.00    +0.067 C 
ATOM      7  C   UNL     1      -1.436  -0.579   0.130  0.00  0.00    +0.265 C 
ATOM      8  O   UNL     1      -1.540  -0.773   1.550  0.00  0.00    -0.483 OA
ATOM      9  C   UNL     1      -0.294  -0.947   2.080  0.00  0.00    +0.101 C 
ATOM     10  C   UNL     1       0.651  -0.528   1.250  0.00  0.00    +0.005 C 
ATOM     11  C   UNL     1       2.126  -0.612   1.523  0.00  0.00    +0.185 C 
ATOM     12  C   UNL     1       2.223  -0.853   3.029  0.00  0.00    -0.019 C 
ATOM     13  C   UNL     1       3.016   0.094   3.469  0.00  0.00    +0.136 C 
ATOM     14  N   UNL     1       3.334   0.947   2.461  0.00  0.00    -0.162 NA
ATOM     15  N   UNL     1       2.848   0.643   1.340  0.00  0.00    -0.175 NA
ATOM     16  C   UNL     1       1.386  -1.902   3.705  0.00  0.00    +0.042 C 
ATOM     17  C   UNL     1      -0.085  -1.524   3.466  0.00  0.00    +0.078 C 
ENDBRANCH   1   7
BRANCH   3  18
ATOM     18  C   UNL     1      -1.432  -3.151  -2.619  0.00  0.00    +0.034 A 
ATOM     19  C   UNL     1      -0.634  -3.335  -3.741  0.00  0.00    +0.023 A 
ATOM     20  C   UNL     1      -0.646  -4.547  -4.403  0.00  0.00    +0.002 A 
ATOM     21  C   UNL     1      -1.452  -5.576  -3.950  0.00  0.00    +0.012 A 
ATOM     22  C   UNL     1      -2.248  -5.395  -2.834  0.00  0.00    +0.057 A 
ATOM     23  C   UNL     1      -2.235  -4.187  -2.164  0.00  0.00    +0.035 A 
BRANCH  22  24
ATOM     24  C   UNL     1      -3.124  -6.519  -2.345  0.00  0.00    +0.417 C 
ATOM     25  F   UNL     1      -2.962  -7.633  -3.175  0.00  0.00    -0.166 F 
ATOM     26  F   UNL     1      -2.763  -6.856  -1.036  0.00  0.00    -0.166 F 
ATOM     27  F   UNL     1      -4.463  -6.111  -2.369  0.00  0.00    -0.166 F 
ENDBRANCH  22  24
ENDBRANCH   3  18
TORSDOF 3
