REMARK  Name = ZINC41224258
REMARK  6 active torsions:
REMARK  status: ('A' for Active; 'I' for Inactive)
REMARK    1  A    between atoms: C_1  and  C_2
REMARK    2  A    between atoms: N_6  and  N_7
REMARK    3  A    between atoms: C_8  and  C_9
REMARK    4  A    between atoms: C_12  and  O_17
REMARK    5  A    between atoms: C_13  and  O_16
REMARK    6  A    between atoms: O_17  and  C_18
REMARK                            x       y       z     vdW  Elec       q    Type
REMARK                         _______ _______ _______ _____ _____    ______ ____
ROOT
ATOM      1  C   UNL     1      -0.151  -0.767   4.808  0.00  0.00    +0.012 A 
ATOM      2  C   UNL     1      -0.228  -1.693   5.852  0.00  0.00    +0.014 A 
ATOM      3  C   UNL     1      -0.325  -1.255   7.156  0.00  0.00    +0.050 A 
ATOM      4  C   UNL     1      -0.347   0.104   7.435  0.00  0.00    +0.162 A 
ATOM      5  C   UNL     1      -0.270   1.033   6.401  0.00  0.00    +0.173 A 
ATOM      6  C   UNL     1      -0.166   0.602   5.090  0.00  0.00    +0.072 A 
ATOM      7 BR   UNL     1      -0.054   1.861   3.684  0.00  0.00    -0.046 Br
ENDROOT
BRANCH   1   9
ATOM      8  N   UNL     1       0.030  -0.371   2.446  0.00  0.00    -0.171 NA
ATOM      9  C   UNL     1      -0.047  -1.233   3.414  0.00  0.00    +0.142 C 
BRANCH   8  15
ATOM     10  C   UNL     1       0.470   1.464   0.020  0.00  0.00    +0.090 C 
ATOM     11  C   UNL     1       0.213  -0.021   0.006  0.00  0.00    +0.150 A 
ATOM     12  N   UNL     1       0.144  -0.764  -1.052  0.00  0.00    -0.157 NA
ATOM     13  N   UNL     1      -0.106  -2.081  -0.644  0.00  0.00    -0.253 N 
ATOM     14  C   UNL     1      -0.181  -2.078   0.703  0.00  0.00    +0.196 A 
ATOM     15  N   UNL     1       0.021  -0.810   1.115  0.00  0.00    -0.193 N 
ATOM     16  S   UNL     1      -0.471  -3.435   1.706  0.00  0.00    -0.010 S 
ATOM     17  H   UNL     1      -0.208  -2.853  -1.223  0.00  0.00    +0.191 HD
ENDBRANCH   8  15
ENDBRANCH   1   9
BRANCH   5  18
ATOM     18  O   UNL     1      -0.291   2.364   6.679  0.00  0.00    -0.503 OA
ATOM     19  H   UNL     1       0.584   2.750   6.825  0.00  0.00    +0.292 HD
ENDBRANCH   5  18
BRANCH   4  20
ATOM     20  O   UNL     1      -0.443   0.530   8.723  0.00  0.00    -0.491 OA
ATOM     21  C   UNL     1      -0.519  -0.476   9.735  0.00  0.00    +0.277 C 
ENDBRANCH   4  20
TORSDOF 4
