REMARK  Name = ZINC06876939
REMARK  2 active torsions:
REMARK  status: ('A' for Active; 'I' for Inactive)
REMARK    1  A    between atoms: C_1  and  C_2
REMARK    2  A    between atoms: N_15  and  C_16
REMARK                            x       y       z     vdW  Elec       q    Type
REMARK                         _______ _______ _______ _____ _____    ______ ____
ROOT
ATOM      1  C   UNL     1       5.371   7.768  -0.781  0.00  0.00    +0.021 C 
ATOM      2  C   UNL     1       5.517   6.245  -0.805  0.00  0.00    +0.066 C 
ATOM      3  C   UNL     1       4.651   5.621   0.299  0.00  0.00    +0.129 C 
ATOM      4  N   UNL     1       4.719   4.167   0.183  0.00  0.00    -0.253 N 
ATOM      5  C   UNL     1       5.924   3.459   0.172  0.00  0.00    +0.051 A 
ATOM      6  C   UNL     1       5.888   2.096   0.449  0.00  0.00    +0.024 A 
ATOM      7  C   UNL     1       7.048   1.349   0.438  0.00  0.00    +0.002 A 
ATOM      8  C   UNL     1       8.259   1.949   0.146  0.00  0.00    +0.001 A 
ATOM      9  C   UNL     1       8.309   3.300  -0.133  0.00  0.00    +0.016 A 
ATOM     10  C   UNL     1       7.145   4.060  -0.122  0.00  0.00    +0.030 A 
ATOM     11  S   UNL     1       7.245   5.786  -0.475  0.00  0.00    -0.119 S 
ATOM     12  C   UNL     1       3.566   3.475   0.088  0.00  0.00    +0.311 C 
ATOM     13  O   UNL     1       3.590   2.262   0.013  0.00  0.00    -0.252 OA
ATOM     14  N   UNL     1       2.387   4.129   0.078  0.00  0.00    -0.269 N 
ATOM     15  H   UNL     1       2.370   5.098   0.073  0.00  0.00    +0.156 HD
ENDROOT
BRANCH  14  16
ATOM     16  C   UNL     1       1.188   3.408   0.075  0.00  0.00    +0.035 A 
ATOM     17  C   UNL     1       1.099   2.207  -0.617  0.00  0.00    +0.024 A 
ATOM     18  C   UNL     1      -0.086   1.498  -0.619  0.00  0.00    +0.017 A 
ATOM     19  C   UNL     1      -1.184   1.982   0.068  0.00  0.00    +0.018 A 
ATOM     20  C   UNL     1      -1.100   3.178   0.758  0.00  0.00    +0.017 A 
ATOM     21  C   UNL     1       0.083   3.892   0.763  0.00  0.00    +0.024 A 
ATOM     22 BR   UNL     1      -2.805   1.008   0.063  0.00  0.00    -0.050 Br
ENDBRANCH  14  16
TORSDOF 1
