REMARK  Name = ZINC20811968
REMARK  8 active torsions:
REMARK  status: ('A' for Active; 'I' for Inactive)
REMARK    1  A    between atoms: C_1  and  C_2
REMARK    2  A    between atoms: C_5  and  N_9
REMARK    3  A    between atoms: C_6  and  C_8
REMARK    4  A    between atoms: C_13  and  C_15
REMARK    5  A    between atoms: C_15  and  N_16
REMARK    6  A    between atoms: N_19  and  C_22
REMARK    7  A    between atoms: C_22  and  C_23
REMARK    8  A    between atoms: N_25  and  C_26
REMARK                            x       y       z     vdW  Elec       q    Type
REMARK                         _______ _______ _______ _____ _____    ______ ____
ROOT
ATOM      1  N   UNL     1       3.601  -2.270  -0.871  0.00  0.00    -0.298 NA
ATOM      2  C   UNL     1       2.857  -2.519   0.371  0.00  0.00    +0.066 C 
ATOM      3  C   UNL     1       1.444  -1.945   0.240  0.00  0.00    -0.063 C 
ATOM      4  N   UNL     1       1.527  -0.505  -0.041  0.00  0.00    +0.387 N 
ATOM      5  C   UNL     1       2.271  -0.256  -1.283  0.00  0.00    -0.063 C 
ATOM      6  C   UNL     1       3.684  -0.830  -1.152  0.00  0.00    +0.066 C 
ATOM      7  H   UNL     1       2.076  -0.029   0.785  0.00  0.00    -0.081 HD
ENDROOT
BRANCH   1   8
ATOM      8  C   UNL     1       4.940  -2.873  -0.814  0.00  0.00    +0.180 C 
BRANCH   8  13
ATOM      9  N   UNL     1       8.623  -3.755  -3.773  0.00  0.00    -0.269 N 
ATOM     10  C   UNL     1       7.385  -3.257  -3.586  0.00  0.00    +0.310 C 
ATOM     11  O   UNL     1       6.782  -2.760  -4.517  0.00  0.00    -0.252 OA
ATOM     12  N   UNL     1       6.815  -3.311  -2.365  0.00  0.00    -0.239 N 
ATOM     13  C   UNL     1       5.577  -2.813  -2.178  0.00  0.00    +0.234 C 
ATOM     14  O   UNL     1       4.976  -2.317  -3.107  0.00  0.00    -0.274 OA
ATOM     15  H   UNL     1       9.143  -4.264  -2.948  0.00  0.00    +0.156 HD
ATOM     16  H   UNL     1       7.361  -3.761  -1.523  0.00  0.00    +0.159 HD
BRANCH   9  21
ATOM     17  C   UNL     1      11.159  -3.224  -8.821  0.00  0.00    +0.044 C 
ATOM     18  C   UNL     1      10.485  -3.366  -7.480  0.00  0.00    -0.050 A 
ATOM     19  C   UNL     1       9.105  -3.361  -7.397  0.00  0.00    +0.005 A 
ATOM     20  C   UNL     1       8.485  -3.490  -6.170  0.00  0.00    +0.024 A 
ATOM     21  C   UNL     1       9.249  -3.624  -5.018  0.00  0.00    +0.038 A 
ATOM     22  C   UNL     1      10.635  -3.623  -5.104  0.00  0.00    -0.029 A 
ATOM     23  C   UNL     1      11.249  -3.499  -6.335  0.00  0.00    +0.008 A 
ATOM     24  C   UNL     1      11.468  -3.763  -3.856  0.00  0.00    +0.045 C 
ENDBRANCH   9  21
ENDBRANCH   8  13
ENDBRANCH   1   8
BRANCH   4  25
ATOM     25  C   UNL     1       0.189   0.098  -0.099  0.00  0.00    +0.019 C 
BRANCH  25  26
ATOM     26  C   UNL     1       0.316   1.599  -0.142  0.00  0.00    +0.201 C 
ATOM     27  O   UNL     1       1.413   2.115  -0.126  0.00  0.00    -0.278 OA
ATOM     28  N   UNL     1      -0.790   2.367  -0.204  0.00  0.00    -0.287 N 
ATOM     29  H   UNL     1      -1.780   1.899  -0.310  0.00  0.00    +0.155 HD
BRANCH  28  30
ATOM     30  C   UNL     1      -0.679   3.761  -0.132  0.00  0.00    +0.033 A 
ATOM     31  C   UNL     1       0.295   4.341   0.670  0.00  0.00    +0.026 A 
ATOM     32  C   UNL     1       0.406   5.716   0.734  0.00  0.00    +0.040 A 
ATOM     33  C   UNL     1      -0.459   6.516   0.009  0.00  0.00    +0.124 A 
ATOM     34  C   UNL     1      -1.435   5.941  -0.788  0.00  0.00    +0.040 A 
ATOM     35  C   UNL     1      -1.546   4.566  -0.859  0.00  0.00    +0.026 A 
ATOM     36  F   UNL     1      -0.352   7.862   0.077  0.00  0.00    -0.205 F 
ENDBRANCH  28  30
ENDBRANCH  25  26
ENDBRANCH   4  25
TORSDOF 6
