REMARK  Name = ZINC02440672
REMARK  4 active torsions:
REMARK  status: ('A' for Active; 'I' for Inactive)
REMARK    1  A    between atoms: C_8  and  C_10
REMARK    2  A    between atoms: N_12  and  C_13
REMARK    3  A    between atoms: C_13  and  N_15
REMARK    4  A    between atoms: N_15  and  C_16
REMARK                            x       y       z     vdW  Elec       q    Type
REMARK                         _______ _______ _______ _____ _____    ______ ____
ROOT
ATOM      1  C   UNL     1       5.954  -4.329  -0.473  0.00  0.00    +0.141 C 
ATOM      2  S   UNL     1       5.311  -5.843  -0.948  0.00  0.00    -0.018 S 
ENDROOT
BRANCH   1   5
ATOM      3  C   UNL     1       3.881  -3.327  -0.859  0.00  0.00    +0.285 C 
ATOM      4  O   UNL     1       3.425  -4.403  -1.197  0.00  0.00    -0.266 OA
ATOM      5  N   UNL     1       5.170  -3.232  -0.479  0.00  0.00    -0.261 N 
ATOM      6  H   UNL     1       5.534  -2.374  -0.209  0.00  0.00    +0.157 HD
BRANCH   3  14
ATOM      7  C   UNL     1      -0.009   1.290  -1.051  0.00  0.00    +0.001 A 
ATOM      8  C   UNL     1       1.101   1.993  -0.602  0.00  0.00    +0.004 A 
ATOM      9  C   UNL     1       2.302   1.353  -0.389  0.00  0.00    +0.047 A 
ATOM     10  C   UNL     1       2.409  -0.013  -0.625  0.00  0.00    +0.136 A 
ATOM     11  C   UNL     1       1.281  -0.721  -1.080  0.00  0.00    +0.021 A 
ATOM     12  C   UNL     1       0.072  -0.053  -1.289  0.00  0.00    +0.011 A 
ATOM     13  C   UNL     1       1.718  -2.109  -1.228  0.00  0.00    +0.063 A 
ATOM     14  C   UNL     1       3.027  -2.133  -0.866  0.00  0.00    +0.191 A 
ATOM     15  O   UNL     1       3.424  -0.892  -0.512  0.00  0.00    -0.450 OA
ENDBRANCH   3  14
ENDBRANCH   1   5
BRANCH   1  16
ATOM     16  N   UNL     1       7.243  -4.233  -0.092  0.00  0.00    -0.297 N 
ATOM     17  H   UNL     1       7.624  -3.366   0.118  0.00  0.00    +0.154 HD
BRANCH  16  18
ATOM     18  C   UNL     1       8.033  -5.386  -0.001  0.00  0.00    +0.033 A 
ATOM     19  C   UNL     1       8.005  -6.331  -1.025  0.00  0.00    +0.027 A 
ATOM     20  C   UNL     1       8.776  -7.470  -0.950  0.00  0.00    +0.049 A 
ATOM     21  C   UNL     1       9.593  -7.686   0.153  0.00  0.00    +0.139 A 
ATOM     22  C   UNL     1       9.625  -6.736   1.189  0.00  0.00    +0.019 A 
ATOM     23  C   UNL     1       8.844  -5.580   1.103  0.00  0.00    +0.034 A 
ATOM     24  C   UNL     1      10.491  -6.976   2.348  0.00  0.00    +0.018 A 
ATOM     25  C   UNL     1      11.230  -8.114   2.371  0.00  0.00    +0.092 A 
ATOM     26  C   UNL     1      11.149  -9.025   1.296  0.00  0.00    +0.337 A 
ATOM     27  O   UNL     1      11.816 -10.043   1.329  0.00  0.00    -0.245 OA
ATOM     28  O   UNL     1      10.354  -8.799   0.239  0.00  0.00    -0.422 OA
ENDBRANCH  16  18
ENDBRANCH   1  16
TORSDOF 4
