REMARK  Name = ZINC09514523
REMARK  7 active torsions:
REMARK  status: ('A' for Active; 'I' for Inactive)
REMARK    1  A    between atoms: C_3  and  N_28
REMARK    2  A    between atoms: C_6  and  C_7
REMARK    3  A    between atoms: C_13  and  N_17
REMARK    4  A    between atoms: C_18  and  C_20
REMARK    5  A    between atoms: C_23  and  N_26
REMARK    6  A    between atoms: C_29  and  C_31
REMARK    7  A    between atoms: C_34  and  N_37
REMARK                            x       y       z     vdW  Elec       q    Type
REMARK                         _______ _______ _______ _____ _____    ______ ____
ROOT
ATOM      1  C   UNL     1      -2.498   0.486   0.174  0.00  0.00    +0.139 A 
ATOM      2  N   UNL     1      -3.719   1.102   0.109  0.00  0.00    -0.338 N 
ATOM      3  H   UNL     1      -3.886   2.087   0.079  0.00  0.00    +0.167 HD
ATOM      4  C   UNL     1      -4.678   0.105   0.091  0.00  0.00    +0.068 A 
ATOM      5  C   UNL     1      -6.065   0.109   0.031  0.00  0.00    +0.049 A 
ATOM      6  C   UNL     1      -6.757  -1.084   0.036  0.00  0.00    +0.064 A 
ATOM      7  C   UNL     1      -6.072  -2.296   0.103  0.00  0.00    +0.054 A 
ATOM      8  C   UNL     1      -4.691  -2.316   0.164  0.00  0.00    +0.054 A 
ATOM      9  C   UNL     1      -3.979  -1.113   0.158  0.00  0.00    +0.091 A 
ATOM     10  N   UNL     1      -2.658  -0.814   0.207  0.00  0.00    -0.228 NA
ATOM     11 CL   UNL     1      -8.491  -1.075  -0.039  0.00  0.00    -0.082 Cl
ENDROOT
BRANCH   1  17
ATOM     12  C   UNL     1      -0.010   0.449   0.283  0.00  0.00    +0.013 A 
ATOM     13  C   UNL     1       1.203   1.102   0.311  0.00  0.00    +0.024 A 
ATOM     14  C   UNL     1       1.247   2.491   0.271  0.00  0.00    +0.034 A 
ATOM     15  C   UNL     1       0.068   3.226   0.203  0.00  0.00    +0.024 A 
ATOM     16  C   UNL     1      -1.148   2.579   0.175  0.00  0.00    +0.013 A 
ATOM     17  C   UNL     1      -1.195   1.184   0.210  0.00  0.00    +0.017 A 
BRANCH  14  18
ATOM     18  N   UNL     1       2.478   3.150   0.300  0.00  0.00    -0.282 N 
ATOM     19  C   UNL     1       3.585   2.529  -0.152  0.00  0.00    +0.248 C 
ATOM     20  O   UNL     1       3.497   1.438  -0.682  0.00  0.00    -0.270 OA
ATOM     21  H   UNL     1       2.535   4.055   0.644  0.00  0.00    +0.155 HD
BRANCH  19  22
ATOM     22  C   UNL     1       4.904   3.172  -0.004  0.00  0.00    +0.037 A 
ATOM     23  C   UNL     1       5.006   4.429   0.600  0.00  0.00    +0.015 A 
ATOM     24  C   UNL     1       6.239   5.024   0.742  0.00  0.00    +0.023 A 
ATOM     25  C   UNL     1       7.382   4.381   0.274  0.00  0.00    +0.025 A 
ATOM     26  C   UNL     1       7.283   3.132  -0.332  0.00  0.00    +0.023 A 
ATOM     27  C   UNL     1       6.054   2.529  -0.472  0.00  0.00    +0.015 A 
BRANCH  25  28
ATOM     28  N   UNL     1       8.625   4.988   0.414  0.00  0.00    -0.358 N 
ATOM     29  H   UNL     1       9.422   4.540   0.089  0.00  0.00    +0.142 HD
ATOM     30  H   UNL     1       8.695   5.858   0.836  0.00  0.00    +0.142 HD
ENDBRANCH  25  28
ENDBRANCH  19  22
ENDBRANCH  14  18
ENDBRANCH   1  17
BRANCH   7  31
ATOM     31  N   UNL     1      -6.786  -3.501   0.109  0.00  0.00    -0.280 N 
ATOM     32  C   UNL     1      -6.337  -4.548   0.828  0.00  0.00    +0.248 C 
ATOM     33  O   UNL     1      -5.268  -4.476   1.404  0.00  0.00    -0.270 OA
ATOM     34  H   UNL     1      -7.605  -3.582  -0.405  0.00  0.00    +0.155 HD
BRANCH  32  35
ATOM     35  C   UNL     1      -7.140  -5.782   0.917  0.00  0.00    +0.037 A 
ATOM     36  C   UNL     1      -8.372  -5.864   0.261  0.00  0.00    +0.015 A 
ATOM     37  C   UNL     1      -9.117  -7.018   0.342  0.00  0.00    +0.023 A 
ATOM     38  C   UNL     1      -8.651  -8.098   1.086  0.00  0.00    +0.025 A 
ATOM     39  C   UNL     1      -7.428  -8.018   1.745  0.00  0.00    +0.023 A 
ATOM     40  C   UNL     1      -6.675  -6.869   1.663  0.00  0.00    +0.015 A 
BRANCH  38  41
ATOM     41  N   UNL     1      -9.409  -9.261   1.170  0.00  0.00    -0.358 N 
ATOM     42  H   UNL     1      -9.085 -10.015   1.687  0.00  0.00    +0.142 HD
ATOM     43  H   UNL     1     -10.262  -9.319   0.711  0.00  0.00    +0.142 HD
ENDBRANCH  38  41
ENDBRANCH  32  35
ENDBRANCH   7  31
TORSDOF 7
