REMARK  Name = ZINC08588373
REMARK  2 active torsions:
REMARK  status: ('A' for Active; 'I' for Inactive)
REMARK    1  A    between atoms: C_1  and  C_2
REMARK    2  A    between atoms: C_15  and  C_17
REMARK                            x       y       z     vdW  Elec       q    Type
REMARK                         _______ _______ _______ _____ _____    ______ ____
ROOT
ATOM      1  C   UNL     1      -0.019   1.526   0.010  0.00  0.00    +0.008 C 
ATOM      2  C   UNL     1       0.002  -0.004   0.002  0.00  0.00    -0.009 C 
ATOM      3  C   UNL     1      -1.433  -0.537   0.021  0.00  0.00    +0.008 C 
ATOM      4  C   UNL     1      -1.431  -2.044  -0.237  0.00  0.00    +0.037 C 
ATOM      5  C   UNL     1      -0.472  -2.712   0.745  0.00  0.00    -0.023 A 
ATOM      6  C   UNL     1       0.476  -1.986   1.383  0.00  0.00    -0.004 A 
ATOM      7  S   UNL     1       1.344  -3.148   2.405  0.00  0.00    -0.073 S 
ATOM      8  C   UNL     1       0.438  -4.602   1.978  0.00  0.00    +0.116 A 
ATOM      9  C   UNL     1      -0.517  -4.132   1.046  0.00  0.00    +0.075 A 
ATOM     10  C   UNL     1      -1.428  -5.095   0.497  0.00  0.00    +0.260 A 
ATOM     11  O   UNL     1      -2.286  -4.787  -0.312  0.00  0.00    -0.267 OA
ATOM     12  N   UNL     1      -1.276  -6.368   0.934  0.00  0.00    -0.306 N 
ATOM     13  H   UNL     1      -1.871  -7.051   0.588  0.00  0.00    +0.170 HD
ATOM     14  C   UNL     1      -0.321  -6.732   1.840  0.00  0.00    +0.149 A 
ATOM     15  N   UNL     1       0.536  -5.865   2.365  0.00  0.00    -0.222 NA
ATOM     16  C   UNL     1       0.737  -0.516   1.249  0.00  0.00    +0.046 C 
ENDROOT
BRANCH  14  17
ATOM     17  C   UNL     1      -0.238  -8.144   2.250  0.00  0.00    +0.102 A 
ATOM     18  C   UNL     1       0.707  -8.573   3.171  0.00  0.00    +0.030 A 
ATOM     19  C   UNL     1       0.746  -9.955   3.493  0.00  0.00    +0.019 A 
ATOM     20  C   UNL     1       1.536 -10.416   4.555  0.00  0.00    +0.026 A 
ATOM     21  C   UNL     1       1.531 -11.743   4.879  0.00  0.00    +0.019 A 
ATOM     22  C   UNL     1       0.755 -12.642   4.160  0.00  0.00    +0.019 A 
ATOM     23  C   UNL     1      -0.015 -12.213   3.099  0.00  0.00    +0.048 A 
ATOM     24  C   UNL     1      -0.020 -10.870   2.747  0.00  0.00    +0.139 A 
ATOM     25  O   UNL     1      -0.738 -10.444   1.680  0.00  0.00    -0.422 OA
ATOM     26  C   UNL     1      -1.161  -9.156   1.703  0.00  0.00    +0.348 A 
ATOM     27  O   UNL     1      -2.260  -8.845   1.285  0.00  0.00    -0.244 OA
ATOM     28 BR   UNL     1       2.591 -12.361   6.318  0.00  0.00    -0.050 Br
ENDBRANCH  14  17
TORSDOF 1
