REMARK  Name = ZINC20207207
REMARK  7 active torsions:
REMARK  status: ('A' for Active; 'I' for Inactive)
REMARK    1  A    between atoms: C_1  and  C_2
REMARK    2  A    between atoms: C_5  and  C_9
REMARK    3  A    between atoms: C_12  and  C_14
REMARK    4  A    between atoms: C_25  and  S_26
REMARK    5  A    between atoms: S_26  and  C_29
REMARK    6  A    between atoms: C_29  and  C_30
REMARK    7  A    between atoms: C_29  and  C_31
REMARK                            x       y       z     vdW  Elec       q    Type
REMARK                         _______ _______ _______ _____ _____    ______ ____
ROOT
ATOM      1  C   UNL     1      -0.409  -7.445  -1.738  0.00  0.00    +0.062 C 
ATOM      2  C   UNL     1      -0.374  -7.257  -3.111  0.00  0.00    +0.082 C 
ATOM      3  C   UNL     1      -0.350  -8.403  -4.060  0.00  0.00    +0.138 C 
ATOM      4  N   UNL     1      -0.945  -9.544  -3.825  0.00  0.00    -0.284 NA
ATOM      5  N   UNL     1       0.376  -8.135  -5.237  0.00  0.00    -0.201 N 
ATOM      6  C   UNL     1       0.544  -6.820  -5.619  0.00  0.00    +0.183 C 
ATOM      7  N   UNL     1       0.178  -5.756  -4.942  0.00  0.00    -0.152 NA
ATOM      8  C   UNL     1      -0.363  -5.905  -3.715  0.00  0.00    +0.273 C 
ATOM      9  O   UNL     1      -0.829  -4.949  -3.115  0.00  0.00    -0.268 OA
ATOM     10  S   UNL     1       1.317  -6.946  -7.090  0.00  0.00    +0.049 S 
ATOM     11  N   UNL     1       1.512  -8.610  -7.154  0.00  0.00    -0.174 NA
ATOM     12  C   UNL     1       0.941  -9.040  -6.072  0.00  0.00    +0.257 C 
ATOM     13  H   UNL     1      -1.433  -9.675  -2.998  0.00  0.00    +0.188 HD
ENDROOT
BRANCH   1  17
ATOM     14  C   UNL     1       0.924  -4.546  -0.164  0.00  0.00    +0.136 A 
ATOM     15  C   UNL     1       0.484  -5.227   0.952  0.00  0.00    +0.050 A 
ATOM     16  C   UNL     1      -0.082  -6.420   0.505  0.00  0.00    +0.050 A 
ATOM     17  C   UNL     1       0.033  -6.426  -0.878  0.00  0.00    +0.129 A 
ATOM     18  O   UNL     1       0.640  -5.279  -1.254  0.00  0.00    -0.455 OA
BRANCH  14  23
ATOM     19  C   UNL     1       3.520   0.588  -0.158  0.00  0.00    +0.045 C 
ATOM     20  C   UNL     1       2.840  -0.757  -0.159  0.00  0.00    -0.032 A 
ATOM     21  C   UNL     1       2.607  -1.410  -1.357  0.00  0.00    +0.005 A 
ATOM     22  C   UNL     1       1.985  -2.640  -1.366  0.00  0.00    +0.012 A 
ATOM     23  C   UNL     1       1.590  -3.229  -0.162  0.00  0.00    +0.019 A 
ATOM     24  C   UNL     1       1.829  -2.566   1.044  0.00  0.00    +0.031 A 
ATOM     25  C   UNL     1       2.457  -1.337   1.039  0.00  0.00    +0.045 A 
ATOM     26 CL   UNL     1       2.761  -0.512   2.536  0.00  0.00    -0.083 Cl
ENDBRANCH  14  23
ENDBRANCH   1  17
BRANCH  12  27
ATOM     27  S   UNL     1       0.900 -10.761  -5.696  0.00  0.00    +0.031 S 
ATOM     28  O   UNL     1       1.685 -10.893  -4.519  0.00  0.00    -0.166 OA
ATOM     29  O   UNL     1      -0.480 -11.097  -5.687  0.00  0.00    -0.166 OA
BRANCH  27  30
ATOM     30  C   UNL     1       1.730 -11.563  -7.095  0.00  0.00    +0.133 C 
ATOM     31  C   UNL     1       1.644 -13.082  -6.936  0.00  0.00    +0.032 C 
ATOM     32  C   UNL     1       1.047 -11.147  -8.399  0.00  0.00    +0.032 C 
ENDBRANCH  27  30
ENDBRANCH  12  27
TORSDOF 4
