REMARK  Name = ZINC01431897
REMARK  7 active torsions:
REMARK  status: ('A' for Active; 'I' for Inactive)
REMARK    1  A    between atoms: C_2  and  C_25
REMARK    2  A    between atoms: C_5  and  C_6
REMARK    3  A    between atoms: C_15  and  C_23
REMARK    4  A    between atoms: C_16  and  N_22
REMARK    5  A    between atoms: C_17  and  C_18
REMARK    6  A    between atoms: C_17  and  C_20
REMARK    7  A    between atoms: C_25  and  N_26
REMARK                            x       y       z     vdW  Elec       q    Type
REMARK                         _______ _______ _______ _____ _____    ______ ____
ROOT
ATOM      1  C   UNL     1      -0.906   4.487  -3.675  0.00  0.00    +0.073 C 
ATOM      2  C   UNL     1      -0.544   4.141  -5.120  0.00  0.00    +0.031 C 
ATOM      3  C   UNL     1       0.845   3.556  -5.228  0.00  0.00    +0.009 C 
ATOM      4  C   UNL     1       0.848   2.052  -5.308  0.00  0.00    +0.005 C 
ATOM      5  C   UNL     1       0.023   1.633  -6.533  0.00  0.00    +0.027 C 
ATOM      6  C   UNL     1      -1.383   2.137  -6.335  0.00  0.00    -0.022 C 
ATOM      7  C   UNL     1      -1.619   3.254  -5.676  0.00  0.00    -0.029 C 
ATOM      8  C   UNL     1      -3.026   3.655  -5.410  0.00  0.00    +0.074 C 
ATOM      9  C   UNL     1      -3.282   4.593  -4.463  0.00  0.00    +0.054 C 
ATOM     10  C   UNL     1      -2.214   5.281  -3.668  0.00  0.00    +0.189 C 
ENDROOT
BRANCH   1  15
ATOM     11  C   UNL     1      -0.406   2.799  -1.782  0.00  0.00    +0.016 A 
ATOM     12  C   UNL     1      -0.742   1.585  -1.213  0.00  0.00    -0.026 A 
ATOM     13  C   UNL     1      -1.732   0.848  -1.772  0.00  0.00    +0.050 A 
ATOM     14  S   UNL     1      -2.232   1.879  -3.141  0.00  0.00    -0.101 S 
ATOM     15  C   UNL     1      -1.082   3.219  -2.880  0.00  0.00    -0.003 A 
BRANCH  12  16
ATOM     16  C   UNL     1      -0.013   1.086   0.008  0.00  0.00    +0.120 C 
BRANCH  16  17
ATOM     17  N   UNL     1      -0.700   1.560   1.217  0.00  0.00    -0.294 NA
ATOM     18  C   UNL     1      -0.608   3.022   1.336  0.00  0.00    +0.113 C 
ATOM     19  C   UNL     1      -1.387   3.478   2.573  0.00  0.00    +0.175 C 
ATOM     20  O   UNL     1      -0.873   2.807   3.727  0.00  0.00    -0.377 OA
ATOM     21  C   UNL     1      -0.948   1.381   3.645  0.00  0.00    +0.175 C 
ATOM     22  C   UNL     1      -0.165   0.904   2.419  0.00  0.00    +0.113 C 
ENDBRANCH  16  17
ENDBRANCH  12  16
ENDBRANCH   1  15
BRANCH   9  23
ATOM     23  N   UNL     1      -4.585   4.928  -4.221  0.00  0.00    -0.358 N 
ATOM     24  H   UNL     1      -4.826   5.684  -3.460  0.00  0.00    +0.142 HD
ATOM     25  H   UNL     1      -5.392   4.440  -4.787  0.00  0.00    +0.142 HD
ENDBRANCH   9  23
BRANCH  10  26
ATOM     26  C   UNL     1      -2.674   5.436  -2.279  0.00  0.00    +0.091 C 
ATOM     27  N   UNL     1      -3.029   5.556  -1.206  0.00  0.00    -0.194 NA
ENDBRANCH  10  26
BRANCH  10  28
ATOM     28  C   UNL     1      -1.970   6.613  -4.244  0.00  0.00    +0.091 C 
ATOM     29  N   UNL     1      -1.781   7.642  -4.688  0.00  0.00    -0.194 NA
ENDBRANCH  10  28
BRANCH   8  30
ATOM     30  C   UNL     1      -4.099   3.059  -6.146  0.00  0.00    +0.101 C 
ATOM     31  N   UNL     1      -4.951   2.585  -6.730  0.00  0.00    -0.191 NA
ENDBRANCH   8  30
TORSDOF 7
