REMARK  Name = ZINC36508289
REMARK  11 active torsions:
REMARK  status: ('A' for Active; 'I' for Inactive)
REMARK    1  A    between atoms: C_1  and  C_2
REMARK    2  A    between atoms: C_2  and  C_3
REMARK    3  A    between atoms: C_3  and  C_4
REMARK    4  A    between atoms: C_4  and  C_5
REMARK    5  A    between atoms: C_5  and  C_6
REMARK    6  A    between atoms: C_6  and  N_7
REMARK    7  A    between atoms: N_7  and  C_8
REMARK    8  A    between atoms: C_8  and  C_10
REMARK    9  A    between atoms: C_8  and  C_16
REMARK   10  A    between atoms: N_18  and  C_19
REMARK   11  A    between atoms: C_25  and  C_27
REMARK                            x       y       z     vdW  Elec       q    Type
REMARK                         _______ _______ _______ _____ _____    ______ ____
ROOT
ATOM      1  C   UNL     1       1.736  -4.535   5.123  0.00  0.00    +0.165 C 
ENDROOT
BRANCH   1   2
ATOM      2  C   UNL     1       2.025  -6.014   4.860  0.00  0.00    +0.018 C 
ATOM      3  C   UNL     1       1.805  -6.813   6.146  0.00  0.00    +0.006 C 
ATOM      4  C   UNL     1       2.095  -8.292   5.884  0.00  0.00    +0.000 C 
ATOM      5  C   UNL     1       1.153  -8.811   4.795  0.00  0.00    +0.000 C 
ATOM      6  C   UNL     1       1.373  -8.012   3.508  0.00  0.00    +0.000 C 
ATOM      7  C   UNL     1       1.083  -6.533   3.771  0.00  0.00    +0.006 C 
ENDBRANCH   1   2
BRANCH   1   8
ATOM      8  C   UNL     1       2.680  -4.018   6.177  0.00  0.00    +0.234 C 
ATOM      9  O   UNL     1       3.590  -3.278   5.866  0.00  0.00    -0.274 OA
ATOM     10  N   UNL     1       2.514  -4.377   7.465  0.00  0.00    -0.311 N 
ATOM     11  H   UNL     1       1.826  -5.017   7.705  0.00  0.00    +0.149 HD
BRANCH  10  12
ATOM     12  C   UNL     1       3.374  -3.802   8.503  0.00  0.00    +0.073 C 
ATOM     13  C   UNL     1       4.670  -4.609   8.597  0.00  0.00    +0.022 C 
ATOM     14  C   UNL     1       5.567  -4.008   9.681  0.00  0.00    +0.002 C 
ATOM     15  C   UNL     1       4.841  -4.051  11.026  0.00  0.00    +0.000 C 
ATOM     16  C   UNL     1       3.544  -3.243  10.932  0.00  0.00    +0.002 C 
ATOM     17  C   UNL     1       2.647  -3.844   9.848  0.00  0.00    +0.022 C 
ENDBRANCH  10  12
ENDBRANCH   1   8
BRANCH   1  18
ATOM     18  N   UNL     1       1.921  -3.774   3.885  0.00  0.00    -0.289 N 
ATOM     19  C   UNL     1       3.107  -3.806   3.245  0.00  0.00    +0.219 C 
ATOM     20  O   UNL     1       4.000  -4.516   3.658  0.00  0.00    -0.275 OA
BRANCH  19  21
ATOM     21  C   UNL     1       3.325  -2.959   2.018  0.00  0.00    +0.075 C 
ATOM     22  C   UNL     1       2.581  -3.578   0.833  0.00  0.00    +0.013 C 
ATOM     23  C   UNL     1       2.802  -2.719  -0.413  0.00  0.00    +0.001 C 
ATOM     24  C   UNL     1       4.298  -2.652  -0.728  0.00  0.00    +0.000 C 
ATOM     25  C   UNL     1       5.041  -2.032   0.457  0.00  0.00    +0.001 C 
ATOM     26  C   UNL     1       4.821  -2.892   1.703  0.00  0.00    +0.013 C 
ENDBRANCH  19  21
BRANCH  18  27
ATOM     27  C   UNL     1       0.818  -2.978   3.342  0.00  0.00    +0.108 C 
BRANCH  27  28
ATOM     28  C   UNL     1       0.793  -1.608   4.022  0.00  0.00    +0.019 C 
BRANCH  28  29
ATOM     29  C   UNL     1      -0.359  -0.777   3.455  0.00  0.00    +0.002 C 
BRANCH  29  30
ATOM     30  C   UNL     1      -0.384   0.593   4.136  0.00  0.00    -0.000 C 
BRANCH  30  32
ATOM     31  C   UNL     1      -1.560   2.794   4.250  0.00  0.00    +0.004 C 
ATOM     32  C   UNL     1      -1.536   1.424   3.569  0.00  0.00    -0.003 C 
ENDBRANCH  30  32
ENDBRANCH  29  30
ENDBRANCH  28  29
ENDBRANCH  27  28
ENDBRANCH  18  27
ENDBRANCH   1  18
TORSDOF 10
