REMARK  Name = ZINC59678619
REMARK  10 active torsions:
REMARK  status: ('A' for Active; 'I' for Inactive)
REMARK    1  A    between atoms: C_1  and  C_2
REMARK    2  A    between atoms: C_4  and  C_20
REMARK    3  A    between atoms: C_5  and  C_19
REMARK    4  A    between atoms: N_6  and  C_7
REMARK    5  A    between atoms: C_9  and  C_16
REMARK    6  A    between atoms: C_11  and  C_13
REMARK    7  A    between atoms: N_21  and  N_22
REMARK    8  A    between atoms: N_25  and  C_26
REMARK    9  A    between atoms: C_31  and  O_32
REMARK   10  A    between atoms: O_32  and  C_33
REMARK                            x       y       z     vdW  Elec       q    Type
REMARK                         _______ _______ _______ _____ _____    ______ ____
ROOT
ATOM      1  C   UNL     1      -0.100   1.501   0.013  0.00  0.00    +0.064 C 
ATOM      2  C   UNL     1      -0.065  -0.005   0.005  0.00  0.00    +0.022 A 
ATOM      3  C   UNL     1      -0.054  -0.781  -1.095  0.00  0.00    +0.032 A 
ATOM      4  C   UNL     1      -0.019  -2.170  -0.626  0.00  0.00    +0.016 A 
ATOM      5  C   UNL     1      -0.011  -2.114   0.738  0.00  0.00    +0.030 A 
ATOM      6  N   UNL     1      -0.033  -0.805   1.111  0.00  0.00    -0.317 N 
ATOM      7  C   UNL     1       0.023  -3.298   1.670  0.00  0.00    +0.064 C 
ENDROOT
BRANCH   6   8
ATOM      8  C   UNL     1      -0.028  -0.346   2.436  0.00  0.00    +0.048 A 
ATOM      9  C   UNL     1       1.079  -0.569   3.240  0.00  0.00    +0.041 A 
ATOM     10  C   UNL     1       1.088  -0.114   4.561  0.00  0.00    +0.066 A 
ATOM     11  C   UNL     1      -0.018   0.566   5.070  0.00  0.00    +0.030 A 
ATOM     12  C   UNL     1      -1.129   0.788   4.258  0.00  0.00    +0.066 A 
ATOM     13  C   UNL     1      -1.128   0.334   2.936  0.00  0.00    +0.041 A 
BRANCH  12  14
ATOM     14  C   UNL     1      -2.303   1.506   4.791  0.00  0.00    +0.387 C 
ATOM     15  O   UNL     1      -2.301   1.908   5.946  0.00  0.00    -0.241 OA
ATOM     16  O   UNL     1      -3.277   1.701   4.077  0.00  0.00    -0.241 OA
ENDBRANCH  12  14
BRANCH  10  17
ATOM     17  C   UNL     1       2.267  -0.351   5.417  0.00  0.00    +0.387 C 
ATOM     18  O   UNL     1       3.237  -0.948   4.970  0.00  0.00    -0.241 OA
ATOM     19  O   UNL     1       2.274   0.048   6.573  0.00  0.00    -0.241 OA
ENDBRANCH  10  17
ENDBRANCH   6   8
BRANCH   4  20
ATOM     20  C   UNL     1       0.003  -3.385  -1.462  0.00  0.00    +0.140 C 
ATOM     21  N   UNL     1       0.034  -4.556  -0.904  0.00  0.00    -0.186 NA
BRANCH  21  22
ATOM     22  N   UNL     1       0.055  -5.710  -1.698  0.00  0.00    -0.191 N 
ATOM     23  C   UNL     1       0.087  -6.926  -1.118  0.00  0.00    +0.323 C 
ATOM     24  O   UNL     1       0.105  -7.928  -1.807  0.00  0.00    -0.251 OA
ATOM     25  N   UNL     1       0.099  -7.032   0.226  0.00  0.00    -0.265 N 
ATOM     26  H   UNL     1       0.046  -5.634  -2.665  0.00  0.00    +0.179 HD
ATOM     27  H   UNL     1       0.167  -6.235   0.774  0.00  0.00    +0.157 HD
BRANCH  25  28
ATOM     28  C   UNL     1       0.013  -8.294   0.830  0.00  0.00    +0.077 A 
ATOM     29  C   UNL     1      -0.581  -9.349   0.154  0.00  0.00    +0.027 A 
ATOM     30  C   UNL     1      -0.665 -10.592   0.752  0.00  0.00    +0.002 A 
ATOM     31  C   UNL     1      -0.158 -10.787   2.024  0.00  0.00    +0.004 A 
ATOM     32  C   UNL     1       0.436  -9.740   2.703  0.00  0.00    +0.047 A 
ATOM     33  C   UNL     1       0.529  -8.492   2.109  0.00  0.00    +0.141 A 
BRANCH  33  34
ATOM     34  O   UNL     1       1.117  -7.462   2.774  0.00  0.00    -0.493 OA
ATOM     35  C   UNL     1       1.624  -7.739   4.081  0.00  0.00    +0.277 C 
ENDBRANCH  33  34
ENDBRANCH  25  28
ENDBRANCH  21  22
ENDBRANCH   4  20
TORSDOF 7
