REMARK  Name = ZINC05222239
REMARK  4 active torsions:
REMARK  status: ('A' for Active; 'I' for Inactive)
REMARK    1  A    between atoms: C_6  and  N_7
REMARK    2  A    between atoms: C_9  and  N_14
REMARK    3  A    between atoms: N_14  and  S_15
REMARK    4  A    between atoms: S_15  and  C_18
REMARK                            x       y       z     vdW  Elec       q    Type
REMARK                         _______ _______ _______ _____ _____    ______ ____
ROOT
ATOM      1  N   UNL     1      -2.457   3.823   0.046  0.00  0.00    -0.270 N 
ATOM      2  C   UNL     1      -3.771   3.176  -0.051  0.00  0.00    +0.134 C 
ATOM      3  C   UNL     1      -4.758   4.303  -0.429  0.00  0.00    +0.103 C 
ATOM      4  C   UNL     1      -4.036   5.553   0.125  0.00  0.00    +0.118 C 
ATOM      5  C   UNL     1      -2.576   5.157   0.157  0.00  0.00    +0.221 C 
ATOM      6  O   UNL     1      -1.649   5.931   0.264  0.00  0.00    -0.275 OA
ENDROOT
BRANCH   1  12
ATOM      7  C   UNL     1      -0.042   3.846   0.013  0.00  0.00    +0.025 A 
ATOM      8  C   UNL     1       1.161   3.167  -0.008  0.00  0.00    +0.022 A 
ATOM      9  C   UNL     1       1.177   1.783   0.000  0.00  0.00    +0.041 A 
ATOM     10  C   UNL     1      -0.012   1.076   0.024  0.00  0.00    +0.022 A 
ATOM     11  C   UNL     1      -1.218   1.749   0.039  0.00  0.00    +0.025 A 
ATOM     12  C   UNL     1      -1.236   3.138   0.031  0.00  0.00    +0.036 A 
ATOM     13 CL   UNL     1       2.690   0.934  -0.018  0.00  0.00    -0.084 Cl
ENDBRANCH   1  12
BRANCH   3  14
ATOM     14  N   UNL     1      -4.920   4.391  -1.882  0.00  0.00    -0.185 NA
ATOM     15  H   UNL     1      -4.167   4.212  -2.466  0.00  0.00    +0.148 HD
BRANCH  14  16
ATOM     16  S   UNL     1      -6.390   4.797  -2.527  0.00  0.00    +0.059 S 
ATOM     17  O   UNL     1      -6.221   4.826  -3.938  0.00  0.00    -0.153 OA
ATOM     18  O   UNL     1      -7.355   3.970  -1.893  0.00  0.00    -0.153 OA
BRANCH  16  19
ATOM     19  C   UNL     1      -6.739   6.451  -2.029  0.00  0.00    +0.105 A 
ATOM     20  C   UNL     1      -7.427   6.688  -0.853  0.00  0.00    +0.030 A 
ATOM     21  C   UNL     1      -7.696   7.985  -0.459  0.00  0.00    +0.022 A 
ATOM     22  C   UNL     1      -7.287   9.046  -1.247  0.00  0.00    +0.041 A 
ATOM     23  C   UNL     1      -6.604   8.808  -2.427  0.00  0.00    +0.022 A 
ATOM     24  C   UNL     1      -6.331   7.511  -2.817  0.00  0.00    +0.030 A 
ATOM     25 CL   UNL     1      -7.632  10.675  -0.756  0.00  0.00    -0.084 Cl
ENDBRANCH  16  19
ENDBRANCH  14  16
ENDBRANCH   3  14
TORSDOF 4
