REMARK  Name = ZINC50846966
REMARK  3 active torsions:
REMARK  status: ('A' for Active; 'I' for Inactive)
REMARK    1  A    between atoms: C_4  and  C_8
REMARK    2  A    between atoms: C_8  and  C_9
REMARK    3  A    between atoms: C_13  and  N_15
REMARK                            x       y       z     vdW  Elec       q    Type
REMARK                         _______ _______ _______ _____ _____    ______ ____
ROOT
ATOM      1  C   UNL     1       4.166  -0.960   1.376  0.00  0.00    +0.136 A 
ATOM      2  N   UNL     1       4.915  -0.061   1.979  0.00  0.00    -0.236 NA
ATOM      3  C   UNL     1       5.337  -0.239   3.229  0.00  0.00    +0.050 A 
ATOM      4  C   UNL     1       4.977  -1.385   3.895  0.00  0.00    +0.013 A 
ATOM      5  C   UNL     1       4.182  -2.323   3.225  0.00  0.00    +0.123 A 
ATOM      6  N   UNL     1       3.797  -2.072   1.979  0.00  0.00    -0.217 NA
ATOM      7  C   UNL     1       5.391  -1.669   5.312  0.00  0.00    +0.040 C 
ATOM      8  C   UNL     1       6.567  -0.780   5.714  0.00  0.00    +0.005 C 
ATOM      9  C   UNL     1       6.215   0.673   5.375  0.00  0.00    +0.006 C 
ATOM     10  C   UNL     1       6.197   0.825   3.854  0.00  0.00    +0.056 C 
ENDROOT
BRANCH   5  11
ATOM     11  N   UNL     1       3.799  -3.496   3.856  0.00  0.00    -0.343 N 
ATOM     12  H   UNL     1       4.081  -3.671   4.767  0.00  0.00    +0.144 HD
ATOM     13  H   UNL     1       3.249  -4.142   3.386  0.00  0.00    +0.144 HD
ENDBRANCH   5  11
BRANCH   1  14
ATOM     14  C   UNL     1       3.713  -0.707  -0.038  0.00  0.00    +0.114 C 
BRANCH  14  18
ATOM     15  C   UNL     1      -0.017   1.378   0.010  0.00  0.00    +0.003 A 
ATOM     16  C   UNL     1       1.171   2.086   0.002  0.00  0.00    +0.020 A 
ATOM     17  C   UNL     1       2.378   1.411  -0.013  0.00  0.00    +0.046 A 
ATOM     18  C   UNL     1       2.398   0.028  -0.021  0.00  0.00    -0.003 A 
ATOM     19  C   UNL     1       1.209  -0.680  -0.013  0.00  0.00    +0.046 A 
ATOM     20  C   UNL     1       0.002  -0.004   0.002  0.00  0.00    +0.020 A 
ATOM     21 CL   UNL     1       1.233  -2.416  -0.023  0.00  0.00    -0.083 Cl
ATOM     22 CL   UNL     1       3.869   2.300  -0.024  0.00  0.00    -0.083 Cl
ENDBRANCH  14  18
ENDBRANCH   1  14
TORSDOF 3
