REMARK  Name = ZINC13353772
REMARK  7 active torsions:
REMARK  status: ('A' for Active; 'I' for Inactive)
REMARK    1  A    between atoms: C_6  and  C_7
REMARK    2  A    between atoms: N_9  and  N_10
REMARK    3  A    between atoms: C_11  and  C_13
REMARK    4  A    between atoms: C_13  and  S_14
REMARK    5  A    between atoms: S_14  and  C_15
REMARK    6  A    between atoms: C_18  and  C_27
REMARK    7  A    between atoms: N_19  and  C_20
REMARK                            x       y       z     vdW  Elec       q    Type
REMARK                         _______ _______ _______ _____ _____    ______ ____
ROOT
ATOM      1  C   UNL     1       4.839   1.171  -0.038  0.00  0.00    +0.174 C 
ENDROOT
BRANCH   1   3
ATOM      2  N   UNL     1       2.366   1.217  -0.014  0.00  0.00    -0.233 N 
ATOM      3  C   UNL     1       3.524   1.907  -0.021  0.00  0.00    +0.239 C 
ATOM      4  O   UNL     1       3.508   3.120  -0.015  0.00  0.00    -0.273 OA
ATOM      5  H   UNL     1       2.379   0.247  -0.019  0.00  0.00    +0.173 HD
BRANCH   2   8
ATOM      6  C   UNL     1      -0.014   1.211   0.009  0.00  0.00    +0.260 C 
ATOM      7  O   UNL     1       0.002  -0.004   0.002  0.00  0.00    -0.269 OA
ATOM      8  N   UNL     1       1.143   1.901   0.001  0.00  0.00    -0.230 N 
ATOM      9  H   UNL     1       1.130   2.871   0.007  0.00  0.00    +0.173 HD
BRANCH   6  15
ATOM     10  C   UNL     1      -1.326   3.329   0.032  0.00  0.00    +0.014 A 
ATOM     11  C   UNL     1      -2.533   3.996   0.036  0.00  0.00    +0.021 A 
ATOM     12  C   UNL     1      -3.721   3.285   0.038  0.00  0.00    +0.041 A 
ATOM     13  C   UNL     1      -3.706   1.900   0.030  0.00  0.00    +0.021 A 
ATOM     14  C   UNL     1      -2.505   1.221   0.021  0.00  0.00    +0.014 A 
ATOM     15  C   UNL     1      -1.304   1.933   0.019  0.00  0.00    +0.038 A 
ATOM     16 CL   UNL     1      -5.236   4.132   0.049  0.00  0.00    -0.084 Cl
ENDBRANCH   6  15
ENDBRANCH   2   8
ENDBRANCH   1   3
BRANCH   1  17
ATOM     17  S   UNL     1       6.199   2.366  -0.044  0.00  0.00    -0.078 S 
BRANCH  17  18
ATOM     18  C   UNL     1       7.574   1.265  -0.064  0.00  0.00    +0.175 A 
ATOM     19  N   UNL     1       7.500  -0.052  -0.070  0.00  0.00    -0.229 NA
ATOM     20  C   UNL     1       8.723  -0.575  -0.085  0.00  0.00    +0.147 A 
ATOM     21  C   UNL     1       9.632   0.462  -0.088  0.00  0.00    +0.156 A 
ATOM     22  N   UNL     1       8.882   1.635  -0.079  0.00  0.00    -0.282 N 
BRANCH  22  23
ATOM     23  C   UNL     1       9.380   2.946  -0.084  0.00  0.00    +0.049 A 
ATOM     24  C   UNL     1      10.092   3.415  -1.179  0.00  0.00    +0.029 A 
ATOM     25  C   UNL     1      10.577   4.708  -1.184  0.00  0.00    +0.040 A 
ATOM     26  C   UNL     1      10.363   5.533  -0.093  0.00  0.00    +0.124 A 
ATOM     27  C   UNL     1       9.657   5.065   1.003  0.00  0.00    +0.040 A 
ATOM     28  C   UNL     1       9.166   3.775   1.009  0.00  0.00    +0.029 A 
ATOM     29  F   UNL     1      10.843   6.796  -0.097  0.00  0.00    -0.205 F 
ENDBRANCH  22  23
BRANCH  21  30
ATOM     30  C   UNL     1      11.044   0.356  -0.103  0.00  0.00    +0.405 C 
ATOM     31  O   UNL     1      11.572  -0.741  -0.115  0.00  0.00    -0.239 OA
ATOM     32  O   UNL     1      11.805   1.470  -0.104  0.00  0.00    -0.239 OA
ENDBRANCH  21  30
ENDBRANCH  17  18
ENDBRANCH   1  17
TORSDOF 7
