REMARK  Name = ZINC04716519
REMARK  8 active torsions:
REMARK  status: ('A' for Active; 'I' for Inactive)
REMARK    1  A    between atoms: C_1  and  C_2
REMARK    2  A    between atoms: C_2  and  C_33
REMARK    3  A    between atoms: C_9  and  O_12
REMARK    4  A    between atoms: O_12  and  C_13
REMARK    5  A    between atoms: C_20  and  O_31
REMARK    6  A    between atoms: C_21  and  O_29
REMARK    7  A    between atoms: O_29  and  C_30
REMARK    8  A    between atoms: O_31  and  C_32
REMARK                            x       y       z     vdW  Elec       q    Type
REMARK                         _______ _______ _______ _____ _____    ______ ____
ROOT
ATOM      1  C   UNL     1      -7.427  -4.104   0.058  0.00  0.00    +0.060 C 
ATOM      2  C   UNL     1      -6.846  -4.595   1.385  0.00  0.00    +0.124 C 
ATOM      3  C   UNL     1      -5.556  -5.326   1.123  0.00  0.00    +0.020 C 
ATOM      4  C   UNL     1      -4.405  -4.656   1.096  0.00  0.00    +0.015 C 
ATOM      5  C   UNL     1      -4.444  -3.198   1.341  0.00  0.00    +0.062 A 
ATOM      6  C   UNL     1      -3.368  -2.378   1.002  0.00  0.00    +0.142 A 
ATOM      7  C   UNL     1      -3.460  -0.999   1.253  0.00  0.00    +0.064 A 
ATOM      8  C   UNL     1      -4.608  -0.460   1.846  0.00  0.00    +0.064 A 
ATOM      9  C   UNL     1      -5.667  -1.282   2.178  0.00  0.00    +0.163 A 
ATOM     10  C   UNL     1      -5.593  -2.649   1.928  0.00  0.00    +0.174 A 
ATOM     11  O   UNL     1      -6.622  -3.476   2.244  0.00  0.00    -0.478 OA
ATOM     12  C   UNL     1      -2.333  -0.122   0.878  0.00  0.00    +0.178 C 
ATOM     13  O   UNL     1      -2.246   1.026   1.261  0.00  0.00    -0.291 OA
ATOM     14  C   UNL     1      -1.294  -0.762  -0.018  0.00  0.00    +0.138 C 
ATOM     15  C   UNL     1       0.002  -0.004   0.002  0.00  0.00    +0.012 A 
ATOM     16  C   UNL     1      -0.017   1.380   0.010  0.00  0.00    +0.057 A 
ATOM     17  C   UNL     1       1.168   2.096   0.002  0.00  0.00    +0.162 A 
ATOM     18  C   UNL     1       2.383   1.418  -0.012  0.00  0.00    +0.165 A 
ATOM     19  C   UNL     1       2.402   0.036  -0.014  0.00  0.00    +0.095 A 
ATOM     20  C   UNL     1       1.211  -0.684  -0.002  0.00  0.00    +0.128 A 
ATOM     21  O   UNL     1       1.279  -2.041   0.009  0.00  0.00    -0.488 OA
ATOM     22  C   UNL     1       0.095  -2.798  -0.254  0.00  0.00    +0.274 C 
ATOM     23  C   UNL     1      -1.050  -2.174   0.541  0.00  0.00    +0.226 C 
ATOM     24  O   UNL     1      -2.257  -2.920   0.438  0.00  0.00    -0.483 OA
ATOM     25  C   UNL     1      -7.841  -5.548   2.050  0.00  0.00    +0.060 C 
ENDROOT
BRANCH   9  26
ATOM     26  O   UNL     1      -6.783  -0.755   2.752  0.00  0.00    -0.491 OA
ATOM     27  C   UNL     1      -6.790   0.656   2.980  0.00  0.00    +0.277 C 
ENDBRANCH   9  26
BRANCH  18  28
ATOM     28  O   UNL     1       3.551   2.115  -0.025  0.00  0.00    -0.491 OA
ATOM     29  C   UNL     1       4.761   1.354  -0.039  0.00  0.00    +0.277 C 
ENDBRANCH  18  28
BRANCH  17  30
ATOM     30  O   UNL     1       1.144   3.456   0.009  0.00  0.00    -0.491 OA
ATOM     31  C   UNL     1      -0.141   4.082   0.023  0.00  0.00    +0.277 C 
ENDBRANCH  17  30
TORSDOF 3
