REMARK  Name = ZINC40399642
REMARK  7 active torsions:
REMARK  status: ('A' for Active; 'I' for Inactive)
REMARK    1  A    between atoms: C_1  and  C_2
REMARK    2  A    between atoms: C_2  and  C_3
REMARK    3  A    between atoms: C_3  and  C_5
REMARK    4  A    between atoms: C_3  and  C_6
REMARK    5  A    between atoms: N_10  and  C_27
REMARK    6  A    between atoms: C_18  and  C_20
REMARK    7  A    between atoms: C_27  and  C_28
REMARK                            x       y       z     vdW  Elec       q    Type
REMARK                         _______ _______ _______ _____ _____    ______ ____
ROOT
ATOM      1  C   UNL     1      -2.164  -1.894  -0.173  0.00  0.00    +0.022 C 
ATOM      2  C   UNL     1      -1.162  -2.483   0.795  0.00  0.00    +0.201 C 
ATOM      3  O   UNL     1      -0.039  -2.069   0.994  0.00  0.00    -0.277 OA
ATOM      4  N   UNL     1      -1.728  -3.548   1.401  0.00  0.00    -0.309 N 
ATOM      5  C   UNL     1      -3.089  -3.734   0.892  0.00  0.00    +0.006 C 
ATOM      6  N   UNL     1      -3.470  -2.463   0.237  0.00  0.00    +0.401 N 
ATOM      7  C   UNL     1      -4.048  -4.031   2.043  0.00  0.00    +0.025 C 
ATOM      8  C   UNL     1      -3.623  -5.330   2.737  0.00  0.00    +0.108 C 
ATOM      9  N   UNL     1      -3.527  -6.394   1.729  0.00  0.00    -0.298 N 
ATOM     10  C   UNL     1      -2.686  -6.174   0.545  0.00  0.00    +0.108 C 
ATOM     11  C   UNL     1      -3.119  -4.869  -0.131  0.00  0.00    +0.025 C 
ATOM     12  C   UNL     1      -4.198  -7.552   1.888  0.00  0.00    +0.247 C 
ATOM     13  O   UNL     1      -4.966  -7.687   2.821  0.00  0.00    -0.270 OA
ATOM     14  H   UNL     1      -3.936  -1.852   0.890  0.00  0.00    -0.082 HD
ATOM     15  H   UNL     1      -4.052  -2.636  -0.569  0.00  0.00    -0.082 HD
ENDROOT
BRANCH  12  16
ATOM     16  C   UNL     1      -4.001  -8.659   0.929  0.00  0.00    +0.037 A 
ATOM     17  C   UNL     1      -2.726  -8.938   0.433  0.00  0.00    +0.014 A 
ATOM     18  C   UNL     1      -2.547  -9.972  -0.461  0.00  0.00    +0.021 A 
ATOM     19  C   UNL     1      -3.631 -10.733  -0.869  0.00  0.00    +0.041 A 
ATOM     20  C   UNL     1      -4.898 -10.461  -0.381  0.00  0.00    +0.021 A 
ATOM     21  C   UNL     1      -5.088  -9.433   0.519  0.00  0.00    +0.014 A 
ATOM     22 CL   UNL     1      -3.399 -12.032  -1.997  0.00  0.00    -0.084 Cl
ENDBRANCH  12  16
BRANCH   1  23
ATOM     23  C   UNL     1      -2.187  -0.368  -0.053  0.00  0.00    -0.020 C 
ATOM     24  C   UNL     1      -2.383   0.025   1.412  0.00  0.00    +0.006 C 
BRANCH  23  26
ATOM     25  C   UNL     1      -0.931   1.731  -0.558  0.00  0.00    +0.004 C 
ATOM     26  C   UNL     1      -0.862   0.203  -0.561  0.00  0.00    -0.001 C 
ENDBRANCH  23  26
ENDBRANCH   1  23
BRANCH   4  27
ATOM     27  C   UNL     1      -1.081  -4.388   2.413  0.00  0.00    +0.141 C 
BRANCH  27  28
ATOM     28  C   UNL     1      -1.103  -3.679   3.743  0.00  0.00    -0.030 A 
ATOM     29  C   UNL     1       0.070  -3.186   4.282  0.00  0.00    +0.008 A 
ATOM     30  C   UNL     1       0.051  -2.536   5.502  0.00  0.00    +0.038 A 
ATOM     31  C   UNL     1      -1.144  -2.379   6.183  0.00  0.00    +0.123 A 
ATOM     32  C   UNL     1      -2.319  -2.874   5.642  0.00  0.00    +0.038 A 
ATOM     33  C   UNL     1      -2.298  -3.519   4.420  0.00  0.00    +0.008 A 
ATOM     34  F   UNL     1      -1.164  -1.744   7.375  0.00  0.00    -0.205 F 
ENDBRANCH  27  28
ENDBRANCH   4  27
TORSDOF 5
