REMARK  Name = ZINC08998874
REMARK  13 active torsions:
REMARK  status: ('A' for Active; 'I' for Inactive)
REMARK    1  A    between atoms: C_1  and  C_2
REMARK    2  A    between atoms: C_2  and  O_3
REMARK    3  A    between atoms: O_3  and  C_4
REMARK    4  A    between atoms: C_4  and  C_5
REMARK    5  A    between atoms: C_5  and  N_6
REMARK    6  A    between atoms: C_10  and  O_37
REMARK    7  A    between atoms: N_15  and  C_16
REMARK    8  A    between atoms: C_16  and  C_18
REMARK    9  A    between atoms: C_21  and  S_24
REMARK   10  A    between atoms: S_24  and  N_27
REMARK   11  A    between atoms: C_29  and  C_36
REMARK   12  A    between atoms: C_32  and  C_35
REMARK   13  A    between atoms: O_37  and  C_38
REMARK                            x       y       z     vdW  Elec       q    Type
REMARK                         _______ _______ _______ _____ _____    ______ ____
ROOT
ATOM      1  C   UNL     1      -3.270   3.167  -4.769  0.00  0.00    +0.269 C 
ATOM      2  O   UNL     1      -3.092   4.263  -5.272  0.00  0.00    -0.268 OA
ENDROOT
BRANCH   1  12
ATOM      3  N   UNL     1      -5.758   1.949  -7.080  0.00  0.00    -0.319 N 
ATOM      4  C   UNL     1      -6.373   2.490  -8.196  0.00  0.00    +0.058 A 
ATOM      5  C   UNL     1      -7.345   1.905  -9.023  0.00  0.00    +0.030 A 
ATOM      6  C   UNL     1      -7.851   2.585 -10.105  0.00  0.00    +0.048 A 
ATOM      7  C   UNL     1      -7.418   3.869 -10.414  0.00  0.00    +0.121 A 
ATOM      8  C   UNL     1      -6.457   4.469  -9.612  0.00  0.00    +0.062 A 
ATOM      9  C   UNL     1      -5.953   3.786  -8.531  0.00  0.00    +0.042 A 
ATOM     10  S   UNL     1      -4.752   4.161  -7.279  0.00  0.00    -0.052 S 
ATOM     11  C   UNL     1      -4.833   2.672  -6.394  0.00  0.00    +0.167 A 
ATOM     12  N   UNL     1      -4.151   2.320  -5.309  0.00  0.00    -0.152 NA
BRANCH   7  13
ATOM     13  O   UNL     1      -7.929   4.529 -11.487  0.00  0.00    -0.495 OA
ATOM     14  C   UNL     1      -8.914   3.842 -12.262  0.00  0.00    +0.277 C 
ENDBRANCH   7  13
BRANCH   3  15
ATOM     15  C   UNL     1      -6.107   0.598  -6.635  0.00  0.00    +0.152 C 
BRANCH  15  16
ATOM     16  C   UNL     1      -4.856  -0.105  -6.106  0.00  0.00    +0.181 C 
BRANCH  16  17
ATOM     17  O   UNL     1      -5.167  -1.465  -5.797  0.00  0.00    -0.378 OA
BRANCH  17  19
ATOM     18  C   UNL     1      -4.507  -3.648  -4.998  0.00  0.00    +0.034 C 
ATOM     19  C   UNL     1      -4.060  -2.215  -5.293  0.00  0.00    +0.156 C 
ENDBRANCH  17  19
ENDBRANCH  16  17
ENDBRANCH  15  16
ENDBRANCH   3  15
ENDBRANCH   1  12
BRANCH   1  20
ATOM     20  C   UNL     1      -2.510   2.775  -3.560  0.00  0.00    +0.039 A 
ATOM     21  C   UNL     1      -1.589   3.657  -2.995  0.00  0.00    +0.015 A 
ATOM     22  C   UNL     1      -0.884   3.286  -1.868  0.00  0.00    +0.029 A 
ATOM     23  C   UNL     1      -1.089   2.041  -1.300  0.00  0.00    +0.106 A 
ATOM     24  C   UNL     1      -1.996   1.160  -1.859  0.00  0.00    +0.029 A 
ATOM     25  C   UNL     1      -2.712   1.521  -2.982  0.00  0.00    +0.015 A 
BRANCH  23  26
ATOM     26  S   UNL     1      -0.184   1.574   0.138  0.00  0.00    +0.061 S 
ATOM     27  O   UNL     1      -0.158   0.153   0.158  0.00  0.00    -0.153 OA
ATOM     28  O   UNL     1       1.001   2.358   0.145  0.00  0.00    -0.153 OA
BRANCH  26  29
ATOM     29  N   UNL     1      -1.074   2.049   1.452  0.00  0.00    -0.176 NA
ATOM     30  C   UNL     1      -0.883   3.380   2.043  0.00  0.00    +0.112 C 
ATOM     31  C   UNL     1      -2.248   4.082   2.116  0.00  0.00    +0.002 C 
ATOM     32  C   UNL     1      -3.233   3.192   2.877  0.00  0.00    +0.009 C 
ATOM     33  C   UNL     1      -3.411   1.869   2.129  0.00  0.00    +0.002 C 
ATOM     34  C   UNL     1      -2.064   1.144   2.052  0.00  0.00    +0.112 C 
ATOM     35  C   UNL     1      -3.922   2.148   0.714  0.00  0.00    +0.009 C 
ATOM     36  C   UNL     1      -2.095   5.417   2.848  0.00  0.00    +0.009 C 
ENDBRANCH  26  29
ENDBRANCH  23  26
ENDBRANCH   1  20
TORSDOF 9
