REMARK  Name = ZINC60324585
REMARK  5 active torsions:
REMARK  status: ('A' for Active; 'I' for Inactive)
REMARK    1  A    between atoms: C_1  and  C_2
REMARK    2  A    between atoms: C_12  and  N_14
REMARK    3  A    between atoms: C_15  and  C_17
REMARK    4  A    between atoms: C_19  and  S_24
REMARK    5  A    between atoms: S_24  and  N_27
REMARK                            x       y       z     vdW  Elec       q    Type
REMARK                         _______ _______ _______ _____ _____    ______ ____
ROOT
ATOM      1  N   UNL     1      -6.134   1.781   0.510  0.00  0.00    -0.281 N 
ATOM      2  C   UNL     1      -6.194   3.100   0.779  0.00  0.00    +0.251 C 
ATOM      3  O   UNL     1      -5.176   3.718   1.023  0.00  0.00    -0.270 OA
ATOM      4  H   UNL     1      -6.952   1.274   0.381  0.00  0.00    +0.155 HD
ENDROOT
BRANCH   1  16
ATOM      5  C   UNL     1       0.217  -2.674  -0.592  0.00  0.00    +0.109 C 
ATOM      6  C   UNL     1      -1.097  -1.937  -0.554  0.00  0.00    +0.217 C 
ATOM      7  O   UNL     1      -2.062  -2.387  -1.135  0.00  0.00    -0.276 OA
ATOM      8  N   UNL     1      -1.200  -0.778   0.126  0.00  0.00    -0.271 N 
ATOM      9  C   UNL     1      -0.019  -0.178   0.763  0.00  0.00    +0.114 C 
ATOM     10  C   UNL     1      -0.427   0.279   2.169  0.00  0.00    +0.024 C 
ATOM     11  C   UNL     1      -1.495   1.366   2.045  0.00  0.00    +0.038 C 
ATOM     12  C   UNL     1      -2.614   0.906   1.149  0.00  0.00    -0.024 A 
ATOM     13  C   UNL     1      -2.435  -0.121   0.234  0.00  0.00    +0.040 A 
ATOM     14  C   UNL     1      -3.485  -0.517  -0.588  0.00  0.00    +0.025 A 
ATOM     15  C   UNL     1      -4.710   0.111  -0.498  0.00  0.00    +0.025 A 
ATOM     16  C   UNL     1      -4.893   1.141   0.415  0.00  0.00    +0.034 A 
ATOM     17  C   UNL     1      -3.845   1.532   1.242  0.00  0.00    +0.028 A 
ENDBRANCH   1  16
BRANCH   2  18
ATOM     18  C   UNL     1      -7.497   3.795   0.779  0.00  0.00    +0.074 A 
ATOM     19  C   UNL     1      -8.670   3.088   0.505  0.00  0.00    +0.044 A 
ATOM     20  C   UNL     1      -9.883   3.743   0.507  0.00  0.00    +0.106 A 
ATOM     21  C   UNL     1      -9.942   5.099   0.779  0.00  0.00    +0.031 A 
ATOM     22  C   UNL     1      -8.787   5.808   1.051  0.00  0.00    +0.041 A 
ATOM     23  C   UNL     1      -7.564   5.164   1.059  0.00  0.00    +0.136 A 
ATOM     24  F   UNL     1      -6.435   5.856   1.330  0.00  0.00    -0.205 F 
BRANCH  20  25
ATOM     25  S   UNL     1     -11.363   2.851   0.162  0.00  0.00    +0.061 S 
ATOM     26  O   UNL     1     -12.308   3.800  -0.312  0.00  0.00    -0.153 OA
ATOM     27  O   UNL     1     -10.983   1.711  -0.597  0.00  0.00    -0.153 OA
BRANCH  25  28
ATOM     28  N   UNL     1     -11.943   2.287   1.607  0.00  0.00    -0.172 NA
ATOM     29  C   UNL     1     -11.532   0.973   2.126  0.00  0.00    +0.137 C 
ATOM     30  C   UNL     1     -11.066   1.150   3.576  0.00  0.00    +0.177 C 
ATOM     31  O   UNL     1     -12.080   1.837   4.315  0.00  0.00    -0.377 OA
ATOM     32  C   UNL     1     -12.353   3.159   3.845  0.00  0.00    +0.177 C 
ATOM     33  C   UNL     1     -12.880   3.087   2.411  0.00  0.00    +0.137 C 
ENDBRANCH  25  28
ENDBRANCH  20  25
ENDBRANCH   2  18
TORSDOF 4
