REMARK  Name = ZINC12027131
REMARK  10 active torsions:
REMARK  status: ('A' for Active; 'I' for Inactive)
REMARK    1  A    between atoms: C_4  and  C_7
REMARK    2  A    between atoms: C_7  and  C_8
REMARK    3  A    between atoms: C_8  and  C_9
REMARK    4  A    between atoms: C_9  and  S_10
REMARK    5  A    between atoms: S_10  and  N_13
REMARK    6  A    between atoms: N_13  and  C_14
REMARK    7  A    between atoms: C_14  and  C_15
REMARK    8  A    between atoms: C_15  and  C_17
REMARK    9  A    between atoms: C_15  and  S_23
REMARK   10  A    between atoms: S_23  and  C_26
REMARK                            x       y       z     vdW  Elec       q    Type
REMARK                         _______ _______ _______ _____ _____    ______ ____
ROOT
ATOM      1  C   UNL     1       2.399   1.698  -1.261  0.00  0.00    +0.137 C 
ENDROOT
BRANCH   1   2
ATOM      2  N   UNL     1       1.730   2.237  -2.448  0.00  0.00    -0.192 NA
ATOM      3  H   UNL     1       0.862   2.662  -2.365  0.00  0.00    +0.148 HD
BRANCH   2   4
ATOM      4  S   UNL     1       2.457   2.122  -3.932  0.00  0.00    +0.029 S 
ATOM      5  O   UNL     1       1.556   2.758  -4.827  0.00  0.00    -0.158 OA
ATOM      6  O   UNL     1       3.767   2.637  -3.735  0.00  0.00    -0.158 OA
BRANCH   4   7
ATOM      7  C   UNL     1       2.531   0.343  -4.277  0.00  0.00    +0.185 C 
BRANCH   7   8
ATOM      8  C   UNL     1       3.191   0.115  -5.639  0.00  0.00    +0.029 C 
BRANCH   8   9
ATOM      9  C   UNL     1       3.253  -1.386  -5.930  0.00  0.00    +0.037 C 
BRANCH   9  13
ATOM     10  C   UNL     1       5.097  -2.023  -9.731  0.00  0.00    +0.000 A 
ATOM     11  C   UNL     1       5.870  -1.979  -8.586  0.00  0.00    +0.000 A 
ATOM     12  C   UNL     1       5.274  -1.772  -7.356  0.00  0.00    +0.003 A 
ATOM     13  C   UNL     1       3.904  -1.611  -7.271  0.00  0.00    -0.047 A 
ATOM     14  C   UNL     1       3.130  -1.661  -8.415  0.00  0.00    +0.003 A 
ATOM     15  C   UNL     1       3.727  -1.862  -9.646  0.00  0.00    +0.000 A 
ENDBRANCH   9  13
ENDBRANCH   8   9
ENDBRANCH   7   8
ENDBRANCH   4   7
ENDBRANCH   2   4
ENDBRANCH   1   2
BRANCH   1  16
ATOM     16  C   UNL     1       1.725   2.248  -0.002  0.00  0.00    +0.183 C 
BRANCH  16  17
ATOM     17  C   UNL     1       2.412   1.693   1.219  0.00  0.00    -0.004 A 
ATOM     18  C   UNL     1       3.009   2.544   2.136  0.00  0.00    +0.008 A 
ATOM     19  C   UNL     1       3.630   1.989   3.244  0.00  0.00    +0.020 A 
ATOM     20  C   UNL     1       3.633   0.615   3.397  0.00  0.00    +0.111 A 
ATOM     21  N   UNL     1       3.055  -0.164   2.504  0.00  0.00    -0.263 NA
ATOM     22  C   UNL     1       2.450   0.330   1.441  0.00  0.00    +0.116 A 
ENDBRANCH  16  17
BRANCH  16  23
ATOM     23  S   UNL     1      -0.022   1.758   0.012  0.00  0.00    +0.011 S 
ATOM     24  O   UNL     1      -0.641   2.119  -1.215  0.00  0.00    -0.168 OA
ATOM     25  O   UNL     1      -0.618   2.106   1.254  0.00  0.00    -0.168 OA
BRANCH  23  26
ATOM     26  C   UNL     1       0.002  -0.004   0.002  0.00  0.00    +0.126 A 
ATOM     27  C   UNL     1       0.029  -0.863   1.050  0.00  0.00    +0.035 A 
ATOM     28  C   UNL     1       0.040  -2.223   0.802  0.00  0.00    +0.009 A 
ATOM     29  C   UNL     1       0.035  -2.657  -0.482  0.00  0.00    +0.047 A 
ATOM     30  S   UNL     1       0.005  -1.121  -1.391  0.00  0.00    -0.078 S 
ENDBRANCH  23  26
ENDBRANCH  16  23
ENDBRANCH   1  16
TORSDOF 10
