REMARK  Name = ZINC39851855
REMARK  3 active torsions:
REMARK  status: ('A' for Active; 'I' for Inactive)
REMARK    1  A    between atoms: C_1  and  C_2
REMARK    2  A    between atoms: C_6  and  C_7
REMARK    3  A    between atoms: N_9  and  C_10
REMARK                            x       y       z     vdW  Elec       q    Type
REMARK                         _______ _______ _______ _____ _____    ______ ____
ROOT
ATOM      1  C   UNL     1      -0.018   1.503   0.010  0.00  0.00    +0.048 C 
ATOM      2  C   UNL     1       0.002  -0.004   0.002  0.00  0.00    +0.005 A 
ATOM      3  C   UNL     1       0.008  -0.832  -1.122  0.00  0.00    +0.023 A 
ATOM      4  C   UNL     1       0.027  -2.117  -0.677  0.00  0.00    +0.112 A 
ATOM      5  O   UNL     1       0.035  -2.105   0.657  0.00  0.00    -0.454 OA
ATOM      6  C   UNL     1       0.024  -0.827   1.094  0.00  0.00    +0.193 A 
ATOM      7  C   UNL     1       0.036  -3.315  -1.595  0.00  0.00    +0.075 C 
ATOM      8  C   UNL     1      -0.433  -2.879  -2.986  0.00  0.00    +0.010 C 
ATOM      9  C   UNL     1       0.362  -1.649  -3.441  0.00  0.00    +0.034 C 
ATOM     10  C   UNL     1      -0.002  -0.457  -2.570  0.00  0.00    +0.090 C 
ATOM     11  S   UNL     1       1.136   0.941  -2.885  0.00  0.00    -0.138 S 
ATOM     12  C   UNL     1       0.195   1.956  -4.093  0.00  0.00    +0.081 C 
ATOM     13  C   UNL     1      -1.268   1.942  -3.581  0.00  0.00    +0.081 C 
ATOM     14  S   UNL     1      -1.625   0.226  -3.054  0.00  0.00    -0.138 S 
ENDROOT
BRANCH   6  15
ATOM     15  C   UNL     1       0.032  -0.396   2.496  0.00  0.00    +0.280 C 
ATOM     16  O   UNL     1       0.018   0.789   2.769  0.00  0.00    -0.267 OA
ATOM     17  N   UNL     1       0.054  -1.315   3.483  0.00  0.00    -0.306 N 
ATOM     18  H   UNL     1       0.065  -2.260   3.265  0.00  0.00    +0.149 HD
BRANCH  17  19
ATOM     19  C   UNL     1       0.062  -0.885   4.883  0.00  0.00    +0.073 C 
ATOM     20  C   UNL     1      -1.351  -0.661   5.351  0.00  0.00    +0.022 C 
ATOM     21  C   UNL     1      -1.459   0.490   6.370  0.00  0.00    +0.002 C 
ATOM     22  C   UNL     1      -0.318   0.480   7.405  0.00  0.00    +0.000 C 
ATOM     23  C   UNL     1       0.003  -0.906   7.895  0.00  0.00    +0.000 C 
ATOM     24  C   UNL     1       1.157  -1.473   7.043  0.00  0.00    +0.002 C 
ATOM     25  C   UNL     1       0.700  -1.983   5.759  0.00  0.00    +0.022 C 
ENDBRANCH  17  19
ENDBRANCH   6  15
TORSDOF 2
