REMARK  Name = ZINC63140782
REMARK  5 active torsions:
REMARK  status: ('A' for Active; 'I' for Inactive)
REMARK    1  A    between atoms: C_1  and  C_2
REMARK    2  A    between atoms: C_7  and  C_8
REMARK    3  A    between atoms: N_27  and  C_30
REMARK    4  A    between atoms: C_30  and  C_31
REMARK    5  A    between atoms: C_31  and  C_32
REMARK                            x       y       z     vdW  Elec       q    Type
REMARK                         _______ _______ _______ _____ _____    ______ ____
ROOT
ATOM      1  C   UNL     1       0.069  -0.145   2.603  0.00  0.00    +0.134 C 
ATOM      2  C   UNL     1      -1.359  -0.008   3.139  0.00  0.00    +0.131 C 
ATOM      3  C   UNL     1      -1.241   0.393   4.604  0.00  0.00    -0.034 C 
ATOM      4  C   UNL     1      -1.936   1.516   4.743  0.00  0.00    -0.001 A 
ATOM      5  C   UNL     1      -2.249   2.334   5.925  0.00  0.00    +0.010 A 
ATOM      6  C   UNL     1      -2.991   3.451   5.702  0.00  0.00    +0.001 A 
ATOM      7  C   UNL     1      -3.446   3.831   4.436  0.00  0.00    +0.002 A 
ATOM      8  C   UNL     1      -3.210   3.136   3.295  0.00  0.00    +0.026 A 
ATOM      9  C   UNL     1      -2.444   1.939   3.402  0.00  0.00    +0.043 A 
ATOM     10  N   UNL     1      -2.092   1.070   2.473  0.00  0.00    -0.375 N 
ATOM     11  C   UNL     1      -0.395  -0.379   5.587  0.00  0.00    +0.065 C 
ATOM     12  C   UNL     1       0.987  -0.558   4.932  0.00  0.00    +0.167 C 
ATOM     13  N   UNL     1       0.826  -0.994   3.549  0.00  0.00    -0.279 N 
ATOM     14  C   UNL     1       1.337  -2.143   3.089  0.00  0.00    +0.234 C 
ATOM     15  O   UNL     1       1.131  -2.426   1.928  0.00  0.00    -0.274 OA
ATOM     16  C   UNL     1       2.141  -3.100   3.904  0.00  0.00    +0.203 C 
ATOM     17  N   UNL     1       2.322  -2.641   5.271  0.00  0.00    -0.291 N 
ATOM     18  C   UNL     1       1.807  -1.507   5.742  0.00  0.00    +0.237 C 
ATOM     19  O   UNL     1       2.022  -1.224   6.902  0.00  0.00    -0.274 OA
ATOM     20  H   UNL     1      -2.276   1.128   1.523  0.00  0.00    +0.160 HD
ENDROOT
BRANCH   1  27
ATOM     21  C   UNL     1       2.265   0.260   0.770  0.00  0.00    +0.044 C 
ATOM     22  C   UNL     1       1.094  -0.599   0.365  0.00  0.00    -0.045 A 
ATOM     23  C   UNL     1       1.074  -1.197  -0.881  0.00  0.00    +0.004 A 
ATOM     24  C   UNL     1       0.000  -1.985  -1.252  0.00  0.00    +0.000 A 
ATOM     25  C   UNL     1      -1.053  -2.174  -0.376  0.00  0.00    +0.000 A 
ATOM     26  C   UNL     1      -1.032  -1.577   0.870  0.00  0.00    +0.006 A 
ATOM     27  C   UNL     1       0.044  -0.792   1.242  0.00  0.00    -0.022 A 
ENDBRANCH   1  27
BRANCH  17  28
ATOM     28  C   UNL     1       3.111  -3.474   6.182  0.00  0.00    +0.113 C 
BRANCH  28  29
ATOM     29  C   UNL     1       4.582  -3.062   6.106  0.00  0.00    +0.054 C 
BRANCH  29  30
ATOM     30  C   UNL     1       5.394  -3.918   7.043  0.00  0.00    -0.046 A 
ATOM     31  C   UNL     1       5.585  -3.520   8.353  0.00  0.00    +0.006 A 
ATOM     32  C   UNL     1       6.328  -4.305   9.213  0.00  0.00    +0.038 A 
ATOM     33  C   UNL     1       6.883  -5.491   8.763  0.00  0.00    +0.123 A 
ATOM     34  C   UNL     1       6.691  -5.889   7.451  0.00  0.00    +0.038 A 
ATOM     35  C   UNL     1       5.943  -5.105   6.593  0.00  0.00    +0.006 A 
ATOM     36  F   UNL     1       7.610  -6.259   9.603  0.00  0.00    -0.205 F 
ENDBRANCH  29  30
ENDBRANCH  28  29
ENDBRANCH  17  28
TORSDOF 4
