REMARK  Name = ZINC16951762
REMARK  5 active torsions:
REMARK  status: ('A' for Active; 'I' for Inactive)
REMARK    1  A    between atoms: C_1  and  C_2
REMARK    2  A    between atoms: C_2  and  C_26
REMARK    3  A    between atoms: C_6  and  C_24
REMARK    4  A    between atoms: C_9  and  N_14
REMARK    5  A    between atoms: C_24  and  O_25
REMARK                            x       y       z     vdW  Elec       q    Type
REMARK                         _______ _______ _______ _____ _____    ______ ____
ROOT
ATOM      1  C   UNL     1       1.865   5.983   0.317  0.00  0.00    +0.074 C 
ATOM      2  C   UNL     1       0.985   6.686   1.353  0.00  0.00    +0.166 C 
ATOM      3  O   UNL     1       0.399   7.860   0.770  0.00  0.00    -0.341 OA
ATOM      4  C   UNL     1      -0.924   7.953   1.340  0.00  0.00    +0.186 C 
ATOM      5  C   UNL     1      -1.901   8.439   0.251  0.00  0.00    +0.178 C 
ATOM      6  O   UNL     1      -2.382   7.288  -0.457  0.00  0.00    -0.346 OA
ATOM      7  C   UNL     1      -1.742   6.106   0.046  0.00  0.00    +0.254 C 
ATOM      8  C   UNL     1      -1.318   6.447   1.494  0.00  0.00    +0.202 C 
ATOM      9  O   UNL     1      -0.062   5.804   1.772  0.00  0.00    -0.339 OA
ATOM     10  C   UNL     1       1.833   7.082   2.563  0.00  0.00    +0.074 C 
ENDROOT
BRANCH   7  11
ATOM     11  N   UNL     1      -2.680   4.981   0.044  0.00  0.00    -0.285 N 
ATOM     12  C   UNL     1      -4.042   5.066   0.051  0.00  0.00    +0.203 A 
ATOM     13  N   UNL     1      -4.562   3.873   0.047  0.00  0.00    -0.231 NA
ATOM     14  C   UNL     1      -3.570   2.949   0.036  0.00  0.00    +0.141 A 
ATOM     15  C   UNL     1      -2.352   3.649   0.034  0.00  0.00    +0.169 A 
ATOM     16  N   UNL     1      -1.212   2.965   0.029  0.00  0.00    -0.195 NA
ATOM     17  C   UNL     1      -1.220   1.642   0.017  0.00  0.00    +0.216 A 
ATOM     18  N   UNL     1      -2.346   0.941   0.018  0.00  0.00    -0.205 NA
ATOM     19  C   UNL     1      -3.531   1.544   0.028  0.00  0.00    +0.140 A 
ATOM     20  N   UNL     1      -0.011   0.966   0.007  0.00  0.00    -0.327 N 
ATOM     21  H   UNL     1       0.002  -0.004   0.002  0.00  0.00    +0.145 HD
ATOM     22  H   UNL     1       0.822   1.462   0.002  0.00  0.00    +0.145 HD
ATOM     23  S   UNL     1      -5.020   0.602   0.029  0.00  0.00    -0.028 SA
ENDBRANCH   7  11
BRANCH   5  24
ATOM     24  C   UNL     1      -1.173   9.374  -0.717  0.00  0.00    +0.190 C 
BRANCH  24  25
ATOM     25  O   UNL     1      -2.109   9.912  -1.653  0.00  0.00    -0.392 OA
ATOM     26  H   UNL     1      -1.717  10.515  -2.299  0.00  0.00    +0.210 HD
ENDBRANCH  24  25
ENDBRANCH   5  24
TORSDOF 3
