REMARK  Name = ZINC39387666
REMARK  7 active torsions:
REMARK  status: ('A' for Active; 'I' for Inactive)
REMARK    1  A    between atoms: C_6  and  C_7
REMARK    2  A    between atoms: C_7  and  C_11
REMARK    3  A    between atoms: C_15  and  C_18
REMARK    4  A    between atoms: C_18  and  C_19
REMARK    5  A    between atoms: C_19  and  C_20
REMARK    6  A    between atoms: N_22  and  C_23
REMARK    7  A    between atoms: C_23  and  C_24
REMARK                            x       y       z     vdW  Elec       q    Type
REMARK                         _______ _______ _______ _____ _____    ______ ____
ROOT
ATOM      1  C   UNL     1      -1.084  -2.288  -0.085  0.00  0.00    +0.212 C 
ATOM      2  N   UNL     1      -0.119  -2.744   0.949  0.00  0.00    -0.226 NA
ATOM      3  N   UNL     1      -0.485  -4.161   1.117  0.00  0.00    -0.227 NA
ATOM      4  C   UNL     1      -1.959  -4.162   0.968  0.00  0.00    +0.202 C 
ATOM      5  O   UNL     1      -2.306  -2.983   0.222  0.00  0.00    -0.341 OA
ATOM      6  H   UNL     1      -0.244  -2.234   1.811  0.00  0.00    +0.143 HD
ATOM      7  H   UNL     1      -0.214  -4.499   2.028  0.00  0.00    +0.143 HD
ENDROOT
BRANCH   1   8
ATOM      8  C   UNL     1      -1.293  -0.775   0.011  0.00  0.00    +0.036 C 
ATOM      9  C   UNL     1      -2.253  -0.353   1.135  0.00  0.00    +0.015 C 
ATOM     10  C   UNL     1      -2.818   0.688   0.155  0.00  0.00    +0.002 C 
ATOM     11  C   UNL     1      -2.339  -0.234  -0.978  0.00  0.00    +0.015 C 
BRANCH   8  17
ATOM     12  C   UNL     1       0.681   0.193  -1.186  0.00  0.00    +0.006 A 
ATOM     13  C   UNL     1       1.868   0.900  -1.195  0.00  0.00    +0.020 A 
ATOM     14  C   UNL     1       2.377   1.411  -0.014  0.00  0.00    +0.041 A 
ATOM     15  C   UNL     1       1.698   1.214   1.175  0.00  0.00    +0.020 A 
ATOM     16  C   UNL     1       0.510   0.506   1.182  0.00  0.00    +0.006 A 
ATOM     17  C   UNL     1       0.002  -0.004   0.002  0.00  0.00    -0.037 A 
ATOM     18 CL   UNL     1       3.869   2.299  -0.024  0.00  0.00    -0.084 Cl
ENDBRANCH   8  17
ENDBRANCH   1   8
BRANCH   4  19
ATOM     19  C   UNL     1      -2.405  -5.412   0.208  0.00  0.00    +0.058 C 
BRANCH  19  20
ATOM     20  C   UNL     1      -3.933  -5.447   0.136  0.00  0.00    +0.099 C 
BRANCH  20  21
ATOM     21  C   UNL     1      -4.373  -6.679  -0.612  0.00  0.00    +0.213 C 
ATOM     22  O   UNL     1      -3.546  -7.453  -1.046  0.00  0.00    -0.276 OA
ATOM     23  N   UNL     1      -5.686  -6.921  -0.800  0.00  0.00    -0.311 N 
ATOM     24  H   UNL     1      -6.347  -6.302  -0.453  0.00  0.00    +0.149 HD
BRANCH  23  25
ATOM     25  C   UNL     1      -6.113  -8.118  -1.527  0.00  0.00    +0.139 C 
BRANCH  25  26
ATOM     26  C   UNL     1      -7.618  -8.153  -1.597  0.00  0.00    -0.025 C 
ATOM     27  C   UNL     1      -8.313  -7.673  -2.673  0.00  0.00    +0.005 C 
ATOM     28  C   UNL     1      -9.768  -7.785  -2.712  0.00  0.00    -0.002 C 
ATOM     29  C   UNL     1     -10.507  -8.051  -1.629  0.00  0.00    +0.004 C 
ATOM     30  C   UNL     1      -9.825  -8.190  -0.301  0.00  0.00    +0.158 C 
ATOM     31  C   UNL     1      -8.409  -8.686  -0.564  0.00  0.00    -0.013 C 
ATOM     32  C   UNL     1      -8.205  -9.665   0.333  0.00  0.00    +0.025 C 
ATOM     33  C   UNL     1      -9.433  -9.999   0.948  0.00  0.00    +0.106 C 
ATOM     34  N   UNL     1     -10.398  -9.188   0.590  0.00  0.00    -0.279 NA
ENDBRANCH  25  26
ENDBRANCH  23  25
ENDBRANCH  20  21
ENDBRANCH  19  20
ENDBRANCH   4  19
TORSDOF 7
