REMARK  Name = ZINC13440727
REMARK  10 active torsions:
REMARK  status: ('A' for Active; 'I' for Inactive)
REMARK    1  A    between atoms: C_1  and  O_2
REMARK    2  A    between atoms: O_2  and  C_3
REMARK    3  A    between atoms: C_7  and  S_9
REMARK    4  A    between atoms: S_9  and  N_12
REMARK    5  A    between atoms: N_12  and  C_13
REMARK    6  A    between atoms: N_17  and  C_20
REMARK    7  A    between atoms: C_20  and  C_21
REMARK    8  A    between atoms: N_23  and  C_24
REMARK    9  A    between atoms: C_24  and  C_25
REMARK   10  A    between atoms: C_28  and  C_32
REMARK                            x       y       z     vdW  Elec       q    Type
REMARK                         _______ _______ _______ _____ _____    ______ ____
ROOT
ATOM      1  C   UNL     1      -1.010   0.512   0.336  0.00  0.00    +0.112 A 
ATOM      2  C   UNL     1      -2.374   0.409   0.320  0.00  0.00    +0.031 A 
ATOM      3  C   UNL     1      -3.141   1.524  -0.050  0.00  0.00    +0.020 A 
ATOM      4  C   UNL     1      -2.532   2.684  -0.385  0.00  0.00    +0.090 A 
ATOM      5  N   UNL     1      -1.176   2.789  -0.369  0.00  0.00    -0.305 N 
ATOM      6  C   UNL     1      -0.408   1.739  -0.019  0.00  0.00    +0.274 A 
ATOM      7  O   UNL     1       0.808   1.848  -0.011  0.00  0.00    -0.266 OA
ENDROOT
BRANCH   1   8
ATOM      8  N   UNL     1      -0.221  -0.585   0.701  0.00  0.00    -0.211 N 
ATOM      9  H   UNL     1       0.741  -0.486   0.781  0.00  0.00    +0.174 HD
BRANCH   8  10
ATOM     10  S   UNL     1      -0.929  -2.053   0.996  0.00  0.00    +0.073 S 
ATOM     11  O   UNL     1       0.125  -2.962   1.284  0.00  0.00    -0.150 OA
ATOM     12  O   UNL     1      -1.997  -1.813   1.902  0.00  0.00    -0.150 OA
BRANCH  10  17
ATOM     13  C   UNL     1      -3.576  -2.785  -1.941  0.00  0.00    +0.122 A 
ATOM     14  C   UNL     1      -2.803  -3.442  -2.887  0.00  0.00    +0.046 A 
ATOM     15  C   UNL     1      -1.463  -3.670  -2.644  0.00  0.00    +0.005 A 
ATOM     16  C   UNL     1      -0.891  -3.245  -1.458  0.00  0.00    +0.029 A 
ATOM     17  C   UNL     1      -1.660  -2.591  -0.514  0.00  0.00    +0.112 A 
ATOM     18  C   UNL     1      -3.002  -2.365  -0.750  0.00  0.00    +0.074 A 
BRANCH  13  20
ATOM     19  C   UNL     1      -5.420  -3.026  -3.422  0.00  0.00    +0.277 C 
ATOM     20  O   UNL     1      -4.896  -2.559  -2.178  0.00  0.00    -0.495 OA
ENDBRANCH  13  20
ENDBRANCH  10  17
ENDBRANCH   8  10
ENDBRANCH   1   8
BRANCH   5  21
ATOM     21  C   UNL     1      -0.543   4.058  -0.737  0.00  0.00    +0.220 C 
BRANCH  21  22
ATOM     22  C   UNL     1      -0.374   4.911   0.493  0.00  0.00    +0.233 C 
ATOM     23  O   UNL     1      -0.746   4.499   1.572  0.00  0.00    -0.274 OA
ATOM     24  N   UNL     1       0.189   6.131   0.396  0.00  0.00    -0.310 N 
ATOM     25  H   UNL     1       0.486   6.460  -0.467  0.00  0.00    +0.149 HD
BRANCH  24  26
ATOM     26  C   UNL     1       0.353   6.960   1.592  0.00  0.00    +0.141 C 
BRANCH  26  27
ATOM     27  C   UNL     1       1.004   8.266   1.213  0.00  0.00    -0.012 A 
ATOM     28  C   UNL     1       0.246   9.422   1.156  0.00  0.00    +0.007 A 
ATOM     29  C   UNL     1       0.836  10.620   0.810  0.00  0.00    +0.011 A 
ATOM     30  C   UNL     1       2.199  10.666   0.518  0.00  0.00    +0.013 A 
ATOM     31  C   UNL     1       2.958   9.498   0.577  0.00  0.00    +0.031 A 
ATOM     32  C   UNL     1       2.358   8.305   0.929  0.00  0.00    +0.046 A 
ATOM     33 CL   UNL     1       3.303   6.850   1.010  0.00  0.00    -0.083 Cl
BRANCH  30  34
ATOM     34  C   UNL     1       2.837  11.949   0.146  0.00  0.00    +0.094 C 
ATOM     35  N   UNL     1       4.184  11.991  -0.142  0.00  0.00    -0.345 N 
ATOM     36  H   UNL     1       2.453  13.927  -0.142  0.00  0.00    +0.157 HD
ATOM     37  H   UNL     1       4.714  11.179  -0.101  0.00  0.00    +0.144 HD
ATOM     38  H   UNL     1       4.602  12.832  -0.385  0.00  0.00    +0.144 HD
ATOM     39  N   UNL     1       2.060  13.020   0.109  0.00  0.00    -0.387 N 
ATOM     40  H   UNL     1       1.061  12.937   0.332  0.00  0.00    +0.157 HD
ENDBRANCH  30  34
ENDBRANCH  26  27
ENDBRANCH  24  26
ENDBRANCH  21  22
ENDBRANCH   5  21
TORSDOF 9
