REMARK  Name = ZINC10103540
REMARK  7 active torsions:
REMARK  status: ('A' for Active; 'I' for Inactive)
REMARK    1  A    between atoms: C_1  and  C_2
REMARK    2  A    between atoms: C_3  and  N_9
REMARK    3  A    between atoms: C_10  and  C_34
REMARK    4  A    between atoms: C_11  and  C_33
REMARK    5  A    between atoms: N_19  and  C_24
REMARK    6  A    between atoms: N_22  and  C_23
REMARK    7  A    between atoms: C_24  and  C_25
REMARK                            x       y       z     vdW  Elec       q    Type
REMARK                         _______ _______ _______ _____ _____    ______ ____
ROOT
ATOM      1  N   UNL     1      -5.774   2.802  -6.226  0.00  0.00    -0.282 N 
ATOM      2  C   UNL     1      -6.186   1.621  -5.634  0.00  0.00    +0.043 A 
ATOM      3  C   UNL     1      -5.691   1.582  -4.400  0.00  0.00    +0.044 A 
ATOM      4  N   UNL     1      -4.957   2.736  -4.187  0.00  0.00    -0.274 N 
ATOM      5  C   UNL     1      -5.011   3.485  -5.314  0.00  0.00    +0.223 A 
ATOM      6  N   UNL     1      -4.314   4.597  -5.133  0.00  0.00    -0.193 NA
ATOM      7  C   UNL     1      -3.794   4.613  -3.909  0.00  0.00    +0.170 A 
ATOM      8  C   UNL     1      -4.184   3.435  -3.272  0.00  0.00    +0.157 A 
ATOM      9  C   UNL     1      -3.765   3.198  -1.953  0.00  0.00    +0.283 A 
ATOM     10  O   UNL     1      -4.095   2.175  -1.377  0.00  0.00    -0.265 OA
ATOM     11  N   UNL     1      -2.994   4.112  -1.330  0.00  0.00    -0.255 N 
ATOM     12  C   UNL     1      -2.626   5.247  -1.950  0.00  0.00    +0.334 A 
ATOM     13  O   UNL     1      -1.934   6.050  -1.354  0.00  0.00    -0.246 OA
ATOM     14  N   UNL     1      -3.001   5.514  -3.215  0.00  0.00    -0.279 N 
ATOM     15  C   UNL     1      -2.574   6.760  -3.857  0.00  0.00    +0.155 C 
ATOM     16  C   UNL     1      -5.894   0.470  -3.404  0.00  0.00    +0.066 C 
ATOM     17  C   UNL     1      -7.044   0.562  -6.276  0.00  0.00    +0.066 C 
ENDROOT
BRANCH   1  20
ATOM     18  C   UNL     1      -8.127   4.356  -6.613  0.00  0.00    +0.047 C 
ATOM     19  C   UNL     1      -7.221   3.985  -7.758  0.00  0.00    -0.008 A 
ATOM     20  C   UNL     1      -6.082   3.224  -7.525  0.00  0.00    +0.054 A 
ATOM     21  C   UNL     1      -5.247   2.888  -8.582  0.00  0.00    +0.026 A 
ATOM     22  C   UNL     1      -5.556   3.302  -9.864  0.00  0.00    +0.003 A 
ATOM     23  C   UNL     1      -6.690   4.058 -10.094  0.00  0.00    +0.020 A 
ATOM     24  C   UNL     1      -7.522   4.400  -9.041  0.00  0.00    +0.046 A 
ATOM     25 CL   UNL     1      -8.945   5.350  -9.334  0.00  0.00    -0.083 Cl
ENDBRANCH   1  20
BRANCH  11  26
ATOM     26  C   UNL     1      -2.554   3.867   0.046  0.00  0.00    +0.165 C 
BRANCH  26  27
ATOM     27  C   UNL     1      -1.238   3.133   0.030  0.00  0.00    -0.026 A 
ATOM     28  C   UNL     1      -1.219   1.750   0.017  0.00  0.00    +0.007 A 
ATOM     29  C   UNL     1      -0.013   1.076   0.008  0.00  0.00    +0.022 A 
ATOM     30  C   UNL     1       1.176   1.784   0.000  0.00  0.00    +0.059 A 
ATOM     31  C   UNL     1       1.156   3.168   0.008  0.00  0.00    +0.060 A 
ATOM     32  C   UNL     1      -0.052   3.842   0.022  0.00  0.00    +0.026 A 
ATOM     33 CL   UNL     1       2.647   4.058  -0.003  0.00  0.00    -0.082 Cl
ATOM     34 CL   UNL     1       2.691   0.937  -0.019  0.00  0.00    -0.082 Cl
ENDBRANCH  26  27
ENDBRANCH  11  26
TORSDOF 3
