REMARK  Name = ZINC36701546
REMARK  8 active torsions:
REMARK  status: ('A' for Active; 'I' for Inactive)
REMARK    1  A    between atoms: C_1  and  C_2
REMARK    2  A    between atoms: C_5  and  N_9
REMARK    3  A    between atoms: C_6  and  C_8
REMARK    4  A    between atoms: C_10  and  C_12
REMARK    5  A    between atoms: C_14  and  C_32
REMARK    6  A    between atoms: C_22  and  C_24
REMARK    7  A    between atoms: C_27  and  O_30
REMARK    8  A    between atoms: O_30  and  C_31
REMARK                            x       y       z     vdW  Elec       q    Type
REMARK                         _______ _______ _______ _____ _____    ______ ____
ROOT
ATOM      1  C   UNL     1       0.335  -6.080  -1.534  0.00  0.00    +0.124 C 
ATOM      2  C   UNL     1       1.585  -6.667  -0.867  0.00  0.00    +0.084 C 
ATOM      3  N   UNL     1       2.757  -6.359  -1.710  0.00  0.00    -0.310 N 
ATOM      4  C   UNL     1       2.593  -6.537  -3.077  0.00  0.00    +0.214 A 
ATOM      5  N   UNL     1       3.489  -6.566  -4.027  0.00  0.00    -0.202 NA
ATOM      6  C   UNL     1       2.886  -6.765  -5.204  0.00  0.00    +0.247 A 
ATOM      7  N   UNL     1       1.594  -6.865  -5.013  0.00  0.00    -0.156 NA
ATOM      8  N   UNL     1       1.376  -6.719  -3.643  0.00  0.00    -0.225 N 
ATOM      9  C   UNL     1       0.118  -6.745  -2.900  0.00  0.00    +0.154 C 
ATOM     10  C   UNL     1       1.767  -6.045   0.519  0.00  0.00    +0.028 C 
ATOM     11  H   UNL     1       3.594  -6.051  -1.329  0.00  0.00    +0.149 HD
ENDROOT
BRANCH   9  12
ATOM     12  C   UNL     1      -0.936  -5.989  -3.667  0.00  0.00    -0.022 A 
ATOM     13  C   UNL     1      -0.608  -4.813  -4.315  0.00  0.00    +0.009 A 
ATOM     14  C   UNL     1      -1.572  -4.118  -5.019  0.00  0.00    +0.046 A 
ATOM     15  C   UNL     1      -2.871  -4.602  -5.075  0.00  0.00    +0.120 A 
ATOM     16  C   UNL     1      -3.198  -5.783  -4.425  0.00  0.00    +0.046 A 
ATOM     17  C   UNL     1      -2.229  -6.477  -3.727  0.00  0.00    +0.009 A 
BRANCH  15  18
ATOM     18  O   UNL     1      -3.822  -3.921  -5.767  0.00  0.00    -0.495 OA
ATOM     19  C   UNL     1      -5.138  -4.478  -5.782  0.00  0.00    +0.277 C 
ENDBRANCH  15  18
ENDBRANCH   9  12
BRANCH   1  21
ATOM     20  N   UNL     1      -0.460  -3.745  -1.352  0.00  0.00    -0.285 N 
ATOM     21  C   UNL     1       0.517  -4.596  -1.722  0.00  0.00    +0.224 C 
ATOM     22  O   UNL     1       1.543  -4.168  -2.207  0.00  0.00    -0.275 OA
ATOM     23  H   UNL     1      -1.239  -4.077  -0.879  0.00  0.00    +0.155 HD
BRANCH  20  28
ATOM     24  C   UNL     1      -0.018   1.780  -2.563  0.00  0.00    +0.044 C 
ATOM     25  C   UNL     1      -0.135   0.312  -2.241  0.00  0.00    -0.050 A 
ATOM     26  C   UNL     1       1.004  -0.436  -2.006  0.00  0.00    +0.005 A 
ATOM     27  C   UNL     1       0.900  -1.781  -1.711  0.00  0.00    +0.024 A 
ATOM     28  C   UNL     1      -0.351  -2.382  -1.650  0.00  0.00    +0.036 A 
ATOM     29  C   UNL     1      -1.493  -1.628  -1.886  0.00  0.00    -0.029 A 
ATOM     30  C   UNL     1      -1.382  -0.282  -2.176  0.00  0.00    +0.008 A 
ATOM     31  C   UNL     1      -2.852  -2.277  -1.821  0.00  0.00    +0.045 C 
ENDBRANCH  20  28
ENDBRANCH   1  21
TORSDOF 4
