REMARK  Name = ZINC58733414
REMARK  8 active torsions:
REMARK  status: ('A' for Active; 'I' for Inactive)
REMARK    1  A    between atoms: C_1  and  C_2
REMARK    2  A    between atoms: C_2  and  C_21
REMARK    3  A    between atoms: N_5  and  C_9
REMARK    4  A    between atoms: C_9  and  C_10
REMARK    5  A    between atoms: C_21  and  C_22
REMARK    6  A    between atoms: C_22  and  C_23
REMARK    7  A    between atoms: C_26  and  O_29
REMARK    8  A    between atoms: O_29  and  C_30
REMARK                            x       y       z     vdW  Elec       q    Type
REMARK                         _______ _______ _______ _____ _____    ______ ____
ROOT
ATOM      1  C   UNL     1      -0.019   1.526   0.010  0.00  0.00    +0.041 C 
ATOM      2  C   UNL     1       0.002  -0.004   0.002  0.00  0.00    +0.110 C 
ATOM      3  C   UNL     1       0.815  -0.520  -1.169  0.00  0.00    +0.247 C 
ATOM      4  O   UNL     1       0.595  -0.342  -2.348  0.00  0.00    -0.273 OA
ATOM      5  N   UNL     1       1.833  -1.217  -0.627  0.00  0.00    -0.220 N 
ATOM      6  C   UNL     1       1.777  -1.214   0.710  0.00  0.00    +0.310 C 
ATOM      7  O   UNL     1       2.586  -1.776   1.421  0.00  0.00    -0.252 OA
ATOM      8  N   UNL     1       0.724  -0.519   1.178  0.00  0.00    -0.285 N 
ATOM      9  H   UNL     1       0.487  -0.383   2.109  0.00  0.00    +0.151 HD
ENDROOT
BRANCH   5  10
ATOM     10  C   UNL     1       2.871  -1.896  -1.406  0.00  0.00    +0.155 C 
BRANCH  10  11
ATOM     11  C   UNL     1       4.020  -0.950  -1.644  0.00  0.00    -0.001 A 
ATOM     12  C   UNL     1       4.135  -0.303  -2.835  0.00  0.00    +0.045 A 
ATOM     13  C   UNL     1       5.191   0.577  -3.076  0.00  0.00    +0.124 A 
ATOM     14  C   UNL     1       6.137   0.812  -2.122  0.00  0.00    +0.048 A 
ATOM     15  C   UNL     1       6.047   0.161  -0.882  0.00  0.00    +0.003 A 
ATOM     16  C   UNL     1       4.972  -0.729  -0.633  0.00  0.00    +0.076 A 
ATOM     17  N   UNL     1       4.880  -1.348   0.548  0.00  0.00    -0.255 NA
ATOM     18  C   UNL     1       5.765  -1.146   1.494  0.00  0.00    +0.111 A 
ATOM     19  C   UNL     1       6.843  -0.280   1.317  0.00  0.00    +0.020 A 
ATOM     20  C   UNL     1       7.003   0.375   0.130  0.00  0.00    +0.011 A 
ATOM     21  F   UNL     1       5.278   1.204  -4.269  0.00  0.00    -0.205 F 
ENDBRANCH  10  11
ENDBRANCH   5  10
BRANCH   2  22
ATOM     22  C   UNL     1      -1.423  -0.560  -0.041  0.00  0.00    +0.039 C 
BRANCH  22  23
ATOM     23  C   UNL     1      -2.200  -0.066   1.182  0.00  0.00    +0.038 C 
BRANCH  23  24
ATOM     24  C   UNL     1      -3.603  -0.614   1.140  0.00  0.00    -0.047 A 
ATOM     25  C   UNL     1      -4.602   0.096   0.499  0.00  0.00    +0.007 A 
ATOM     26  C   UNL     1      -5.889  -0.403   0.460  0.00  0.00    +0.046 A 
ATOM     27  C   UNL     1      -6.179  -1.619   1.063  0.00  0.00    +0.127 A 
ATOM     28  C   UNL     1      -5.175  -2.329   1.704  0.00  0.00    +0.046 A 
ATOM     29  C   UNL     1      -3.888  -1.828   1.737  0.00  0.00    +0.007 A 
BRANCH  27  30
ATOM     30  O   UNL     1      -7.445  -2.112   1.026  0.00  0.00    -0.434 OA
BRANCH  30  31
ATOM     31  C   UNL     1      -7.671  -3.369   1.668  0.00  0.00    +0.541 C 
ATOM     32  F   UNL     1      -6.868  -4.347   1.072  0.00  0.00    -0.166 F 
ATOM     33  F   UNL     1      -7.348  -3.264   3.025  0.00  0.00    -0.166 F 
ENDBRANCH  30  31
ENDBRANCH  27  30
ENDBRANCH  23  24
ENDBRANCH  22  23
ENDBRANCH   2  22
TORSDOF 7
