REMARK  Name = ZINC16557372
REMARK  12 active torsions:
REMARK  status: ('A' for Active; 'I' for Inactive)
REMARK    1  A    between atoms: C_1  and  C_2
REMARK    2  A    between atoms: C_2  and  N_3
REMARK    3  A    between atoms: N_3  and  C_4
REMARK    4  A    between atoms: N_3  and  C_18
REMARK    5  A    between atoms: C_4  and  C_5
REMARK    6  A    between atoms: N_7  and  C_8
REMARK    7  A    between atoms: C_11  and  N_14
REMARK    8  A    between atoms: C_15  and  C_17
REMARK    9  A    between atoms: C_18  and  C_20
REMARK   10  A    between atoms: C_18  and  C_26
REMARK   11  A    between atoms: N_28  and  C_29
REMARK   12  A    between atoms: C_32  and  C_36
REMARK                            x       y       z     vdW  Elec       q    Type
REMARK                         _______ _______ _______ _____ _____    ______ ____
ROOT
ATOM      1  N   UNL     1       2.031  -0.479  -0.500  0.00  0.00    -0.280 NA
ENDROOT
BRANCH   1   3
ATOM      2  C   UNL     1       1.214   1.242   1.038  0.00  0.00    +0.020 C 
ATOM      3  C   UNL     1       2.149   0.043   0.868  0.00  0.00    +0.082 C 
ENDBRANCH   1   3
BRANCH   1   4
ATOM      4  C   UNL     1       2.580  -1.839  -0.594  0.00  0.00    +0.181 C 
BRANCH   4   5
ATOM      5  C   UNL     1       1.605  -2.817   0.008  0.00  0.00    +0.231 C 
ATOM      6  O   UNL     1       0.555  -2.421   0.470  0.00  0.00    -0.274 OA
ATOM      7  N   UNL     1       1.899  -4.132   0.034  0.00  0.00    -0.284 N 
ATOM      8  H   UNL     1       2.764  -4.442  -0.275  0.00  0.00    +0.155 HD
BRANCH   7   9
ATOM      9  C   UNL     1       0.954  -5.052   0.507  0.00  0.00    +0.034 A 
ATOM     10  C   UNL     1      -0.401  -4.822   0.304  0.00  0.00    +0.025 A 
ATOM     11  C   UNL     1      -1.332  -5.728   0.770  0.00  0.00    +0.025 A 
ATOM     12  C   UNL     1      -0.914  -6.870   1.442  0.00  0.00    +0.033 A 
ATOM     13  C   UNL     1       0.440  -7.100   1.644  0.00  0.00    +0.025 A 
ATOM     14  C   UNL     1       1.372  -6.197   1.173  0.00  0.00    +0.025 A 
BRANCH  12  15
ATOM     15  N   UNL     1      -1.859  -7.789   1.915  0.00  0.00    -0.286 N 
ATOM     16  C   UNL     1      -1.622  -8.474   3.051  0.00  0.00    +0.214 C 
ATOM     17  O   UNL     1      -0.630  -8.237   3.707  0.00  0.00    -0.276 OA
ATOM     18  C   UNL     1      -2.591  -9.535   3.507  0.00  0.00    +0.109 C 
ATOM     19  H   UNL     1      -2.684  -7.933   1.425  0.00  0.00    +0.155 HD
ENDBRANCH  12  15
ENDBRANCH   7   9
ENDBRANCH   4   5
ENDBRANCH   1   4
BRANCH   1  20
ATOM     20  C   UNL     1       2.681   0.418  -1.464  0.00  0.00    +0.174 C 
BRANCH  20  21
ATOM     21  C   UNL     1       1.883   1.691  -1.582  0.00  0.00    -0.021 A 
ATOM     22  C   UNL     1       0.513   1.634  -1.763  0.00  0.00    +0.005 A 
ATOM     23  C   UNL     1      -0.219   2.802  -1.871  0.00  0.00    +0.000 A 
ATOM     24  C   UNL     1       0.418   4.026  -1.798  0.00  0.00    +0.000 A 
ATOM     25  C   UNL     1       1.787   4.083  -1.616  0.00  0.00    +0.000 A 
ATOM     26  C   UNL     1       2.519   2.916  -1.504  0.00  0.00    +0.005 A 
ENDBRANCH  20  21
BRANCH  20  27
ATOM     27  C   UNL     1       2.752  -0.256  -2.810  0.00  0.00    +0.239 C 
ATOM     28  O   UNL     1       1.883  -1.033  -3.145  0.00  0.00    -0.273 OA
ATOM     29  N   UNL     1       3.781   0.004  -3.640  0.00  0.00    -0.284 N 
ATOM     30  H   UNL     1       4.516   0.563  -3.342  0.00  0.00    +0.155 HD
BRANCH  29  31
ATOM     31  C   UNL     1       3.789  -0.532  -4.933  0.00  0.00    +0.035 A 
ATOM     32  C   UNL     1       4.990  -0.898  -5.527  0.00  0.00    +0.023 A 
ATOM     33  C   UNL     1       4.996  -1.427  -6.802  0.00  0.00    +0.006 A 
ATOM     34  C   UNL     1       3.807  -1.592  -7.489  0.00  0.00    -0.032 A 
ATOM     35  C   UNL     1       2.609  -1.229  -6.901  0.00  0.00    +0.046 A 
ATOM     36  C   UNL     1       2.596  -0.704  -5.622  0.00  0.00    +0.043 A 
ATOM     37 CL   UNL     1       1.119  -1.437  -7.768  0.00  0.00    -0.083 Cl
ATOM     38  C   UNL     1       3.817  -2.169  -8.882  0.00  0.00    +0.045 C 
ENDBRANCH  29  31
ENDBRANCH  20  27
ENDBRANCH   1  20
TORSDOF 9
