REMARK  Name = ZINC39231294
REMARK  9 active torsions:
REMARK  status: ('A' for Active; 'I' for Inactive)
REMARK    1  A    between atoms: C_1  and  C_2
REMARK    2  A    between atoms: C_2  and  C_4
REMARK    3  A    between atoms: C_2  and  N_8
REMARK    4  A    between atoms: C_4  and  C_5
REMARK    5  A    between atoms: C_4  and  C_6
REMARK    6  A    between atoms: C_4  and  C_7
REMARK    7  A    between atoms: C_9  and  C_11
REMARK    8  A    between atoms: C_15  and  C_17
REMARK    9  A    between atoms: N_30  and  C_33
REMARK                            x       y       z     vdW  Elec       q    Type
REMARK                         _______ _______ _______ _____ _____    ______ ____
ROOT
ATOM      1  C   UNL     1      -6.137  -1.948   3.680  0.00  0.00    -0.017 A 
ATOM      2  C   UNL     1      -5.519  -1.606   4.885  0.00  0.00    +0.012 A 
ATOM      3  C   UNL     1      -6.189  -1.748   6.080  0.00  0.00    +0.047 A 
ATOM      4  C   UNL     1      -7.491  -2.234   6.100  0.00  0.00    +0.132 A 
ATOM      5  C   UNL     1      -8.118  -2.576   4.890  0.00  0.00    +0.060 A 
ATOM      6  C   UNL     1      -7.441  -2.429   3.680  0.00  0.00    +0.023 A 
ATOM      7  C   UNL     1      -9.503  -3.080   4.919  0.00  0.00    +0.170 C 
ATOM      8  O   UNL     1     -10.163  -3.190   3.907  0.00  0.00    -0.292 OA
ATOM      9  C   UNL     1     -10.060  -3.454   6.281  0.00  0.00    +0.127 C 
ATOM     10  C   UNL     1      -9.567  -2.395   7.277  0.00  0.00    +0.114 C 
ATOM     11  O   UNL     1      -8.141  -2.374   7.280  0.00  0.00    -0.485 OA
ATOM     12  C   UNL     1     -10.101  -1.023   6.860  0.00  0.00    +0.030 C 
ATOM     13  C   UNL     1      -9.684   0.019   7.901  0.00  0.00    -0.075 C 
ATOM     14  N   UNL     1     -10.234  -0.348   9.212  0.00  0.00    +0.378 N 
ATOM     15  C   UNL     1      -9.667  -1.629   9.650  0.00  0.00    -0.075 C 
ATOM     16  C   UNL     1     -10.083  -2.735   8.676  0.00  0.00    +0.030 C 
ATOM     17  C   UNL     1      -9.899   0.695  10.191  0.00  0.00    -0.096 C 
ATOM     18  H   UNL     1     -11.237  -0.431   9.143  0.00  0.00    -0.082 HD
ENDROOT
BRANCH   1  23
ATOM     19  C   UNL     1      -3.416  -1.167   1.191  0.00  0.00    +0.037 A 
ATOM     20  C   UNL     1      -4.046  -1.507  -0.008  0.00  0.00    +0.013 A 
ATOM     21  C   UNL     1      -5.341  -1.984   0.002  0.00  0.00    +0.001 A 
ATOM     22  C   UNL     1      -6.021  -2.129   1.195  0.00  0.00    +0.008 A 
ATOM     23  C   UNL     1      -5.403  -1.793   2.399  0.00  0.00    -0.017 A 
ATOM     24  C   UNL     1      -4.096  -1.317   2.398  0.00  0.00    +0.021 A 
BRANCH  19  26
ATOM     25  N   UNL     1      -1.372  -0.511   0.012  0.00  0.00    -0.308 N 
ATOM     26  C   UNL     1      -2.029  -0.655   1.181  0.00  0.00    +0.244 C 
ATOM     27  O   UNL     1      -1.480  -0.364   2.226  0.00  0.00    -0.270 OA
ATOM     28  H   UNL     1      -1.810  -0.743  -0.822  0.00  0.00    +0.149 HD
BRANCH  25  30
ATOM     29  C   UNL     1      -0.019   1.526   0.010  0.00  0.00    +0.028 C 
ATOM     30  C   UNL     1       0.002  -0.004   0.002  0.00  0.00    +0.076 C 
BRANCH  30  31
ATOM     31  C   UNL     1       0.718  -0.497  -1.257  0.00  0.00    -0.020 C 
ATOM     32  C   UNL     1       2.154   0.032  -1.268  0.00  0.00    +0.012 C 
ATOM     33  C   UNL     1       0.739  -2.027  -1.265  0.00  0.00    +0.012 C 
ATOM     34  C   UNL     1      -0.022   0.009  -2.496  0.00  0.00    +0.012 C 
ENDBRANCH  30  31
ENDBRANCH  25  30
ENDBRANCH  19  26
ENDBRANCH   1  23
TORSDOF 4
