REMARK  Name = ZINC39451353
REMARK  2 active torsions:
REMARK  status: ('A' for Active; 'I' for Inactive)
REMARK    1  A    between atoms: C_1  and  S_2
REMARK    2  A    between atoms: S_2  and  C_3
REMARK                            x       y       z     vdW  Elec       q    Type
REMARK                         _______ _______ _______ _____ _____    ______ ____
ROOT
ATOM      1  C   UNL     1      -1.702  -0.454   0.016  0.00  0.00    +0.026 A 
ATOM      2  C   UNL     1      -2.074  -1.796   0.018  0.00  0.00    +0.031 A 
ATOM      3  C   UNL     1      -3.434  -2.095   0.030  0.00  0.00    +0.069 A 
ATOM      4  C   UNL     1      -4.375  -1.041   0.039  0.00  0.00    +0.099 A 
ATOM      5  C   UNL     1      -5.802  -1.385   0.052  0.00  0.00    +0.083 A 
ATOM      6  C   UNL     1      -6.188  -2.714   0.051  0.00  0.00    +0.127 A 
ATOM      7  N   UNL     1      -5.242  -3.733   0.045  0.00  0.00    -0.213 N 
ATOM      8  C   UNL     1      -3.921  -3.483   0.034  0.00  0.00    +0.276 A 
ATOM      9  O   UNL     1      -3.127  -4.406   0.027  0.00  0.00    -0.266 OA
ATOM     10 CL   UNL     1      -5.777  -5.357   0.051  0.00  0.00    +0.022 Cl
ATOM     11  C   UNL     1      -7.560  -3.045   0.053  0.00  0.00    +0.185 C 
ATOM     12  O   UNL     1      -7.898  -4.212   0.102  0.00  0.00    -0.290 OA
ATOM     13  C   UNL     1      -8.611  -1.967  -0.006  0.00  0.00    +0.115 C 
ATOM     14  C   UNL     1      -8.072  -0.696   0.658  0.00  0.00    +0.146 C 
ATOM     15  N   UNL     1      -6.760  -0.389   0.069  0.00  0.00    -0.328 N 
ATOM     16 BR   UNL     1      -7.880  -0.988   2.593  0.00  0.00    -0.067 Br
ATOM     17  N   UNL     1      -3.967   0.223   0.037  0.00  0.00    -0.252 NA
ATOM     18  C   UNL     1      -2.690   0.533   0.031  0.00  0.00    +0.126 A 
ATOM     19  H   UNL     1      -6.571   0.489  -0.297  0.00  0.00    +0.147 HD
ENDROOT
BRANCH   1  21
ATOM     20  C   UNL     1      -0.022   1.810   0.012  0.00  0.00    +0.090 C 
ATOM     21  S   UNL     1       0.002  -0.004   0.002  0.00  0.00    -0.127 S 
ENDBRANCH   1  21
TORSDOF 1
