REMARK  Name = ZINC25036976
REMARK  6 active torsions:
REMARK  status: ('A' for Active; 'I' for Inactive)
REMARK    1  A    between atoms: C_1  and  S_2
REMARK    2  A    between atoms: S_2  and  C_5
REMARK    3  A    between atoms: C_8  and  N_11
REMARK    4  A    between atoms: C_12  and  C_14
REMARK    5  A    between atoms: C_14  and  N_15
REMARK    6  A    between atoms: C_18  and  C_21
REMARK                            x       y       z     vdW  Elec       q    Type
REMARK                         _______ _______ _______ _____ _____    ______ ____
ROOT
ATOM      1  N   UNL     1      -2.777   5.787   7.471  0.00  0.00    +0.385 N 
ATOM      2  C   UNL     1      -2.798   6.722   6.338  0.00  0.00    -0.078 C 
ATOM      3  C   UNL     1      -2.166   8.050   6.759  0.00  0.00    -0.009 C 
ATOM      4  C   UNL     1      -2.950   8.632   7.938  0.00  0.00    +0.041 C 
ATOM      5  C   UNL     1      -2.955   7.620   9.087  0.00  0.00    -0.009 C 
ATOM      6  C   UNL     1      -3.564   6.303   8.598  0.00  0.00    -0.078 C 
ATOM      7  H   UNL     1      -1.734   5.690   7.806  0.00  0.00    -0.081 HD
ENDROOT
BRANCH   4   8
ATOM      8  C   UNL     1      -2.299   9.911   8.397  0.00  0.00    +0.082 A 
ATOM      9  N   UNL     1      -2.813  11.107   8.447  0.00  0.00    -0.244 NA
ATOM     10  C   UNL     1      -2.116  12.178   8.882  0.00  0.00    +0.080 A 
ATOM     11  C   UNL     1      -2.531  13.524   8.993  0.00  0.00    +0.049 A 
ATOM     12  C   UNL     1      -1.670  14.482   9.463  0.00  0.00    +0.043 A 
ATOM     13  C   UNL     1      -0.371  14.168   9.843  0.00  0.00    +0.021 A 
ATOM     14  C   UNL     1       0.066  12.860   9.746  0.00  0.00    +0.018 A 
ATOM     15  C   UNL     1      -0.789  11.893   9.277  0.00  0.00    +0.039 A 
ATOM     16  S   UNL     1      -0.685  10.144   8.992  0.00  0.00    -0.072 S 
ATOM     17 CL   UNL     1      -2.215  16.126   9.586  0.00  0.00    -0.083 Cl
ENDBRANCH   4   8
BRANCH   1  18
ATOM     18  C   UNL     1      -3.249   4.457   7.065  0.00  0.00    +0.019 C 
BRANCH  18  20
ATOM     19  N   UNL     1      -3.426   2.203   8.067  0.00  0.00    -0.287 N 
ATOM     20  C   UNL     1      -2.970   3.467   8.166  0.00  0.00    +0.201 C 
ATOM     21  O   UNL     1      -2.335   3.808   9.142  0.00  0.00    -0.278 OA
ATOM     22  H   UNL     1      -3.927   1.869   7.146  0.00  0.00    +0.155 HD
BRANCH  19  26
ATOM     23  C   UNL     1      -2.938  -0.443  11.248  0.00  0.00    +0.088 A 
ATOM     24  C   UNL     1      -2.899  -0.913   9.948  0.00  0.00    +0.029 A 
ATOM     25  C   UNL     1      -3.065  -0.039   8.892  0.00  0.00    +0.025 A 
ATOM     26  C   UNL     1      -3.261   1.314   9.136  0.00  0.00    +0.033 A 
ATOM     27  C   UNL     1      -3.295   1.783  10.442  0.00  0.00    +0.025 A 
ATOM     28  C   UNL     1      -3.133   0.904  11.495  0.00  0.00    +0.029 A 
BRANCH  23  30
ATOM     29  C   UNL     1      -4.411  -2.118  12.999  0.00  0.00    +0.200 C 
ATOM     30  S   UNL     1      -2.732  -1.562  12.594  0.00  0.00    -0.006 S 
ATOM     31  O   UNL     1      -2.212  -0.767  13.650  0.00  0.00    -0.170 OA
ATOM     32  O   UNL     1      -1.976  -2.639  12.057  0.00  0.00    -0.170 OA
ENDBRANCH  23  30
ENDBRANCH  19  26
ENDBRANCH  18  20
ENDBRANCH   1  18
TORSDOF 5
