REMARK  Name = ZINC09777283
REMARK  7 active torsions:
REMARK  status: ('A' for Active; 'I' for Inactive)
REMARK    1  A    between atoms: C_1  and  C_2
REMARK    2  A    between atoms: C_4  and  C_43
REMARK    3  A    between atoms: C_6  and  N_8
REMARK    4  A    between atoms: C_9  and  C_11
REMARK    5  A    between atoms: N_22  and  C_34
REMARK    6  A    between atoms: C_23  and  C_25
REMARK    7  A    between atoms: N_27  and  C_28
REMARK                            x       y       z     vdW  Elec       q    Type
REMARK                         _______ _______ _______ _____ _____    ______ ____
ROOT
ATOM      1  C   UNL     1      -1.957  -3.942   2.899  0.00  0.00    +0.123 C 
ATOM      2  C   UNL     1      -2.824  -3.088   3.881  0.00  0.00    +0.155 C 
ATOM      3  C   UNL     1      -2.338  -3.410   5.299  0.00  0.00    +0.004 C 
ATOM      4  C   UNL     1      -1.143  -2.826   5.453  0.00  0.00    +0.009 C 
ATOM      5  C   UNL     1      -0.888  -2.192   4.132  0.00  0.00    +0.127 C 
ATOM      6  C   UNL     1      -0.555  -3.346   3.117  0.00  0.00    +0.128 C 
ATOM      7  C   UNL     1      -0.019  -2.556   1.956  0.00  0.00    +0.224 C 
ATOM      8  O   UNL     1      -0.032  -2.914   0.798  0.00  0.00    -0.275 OA
ATOM      9  N   UNL     1       0.485  -1.381   2.409  0.00  0.00    -0.283 N 
ATOM     10  C   UNL     1       0.208  -1.211   3.856  0.00  0.00    +0.199 C 
ATOM     11  O   UNL     1      -2.203  -1.766   3.683  0.00  0.00    -0.358 OA
ENDROOT
BRANCH   9  12
ATOM     12  C   UNL     1       1.200  -0.407   1.580  0.00  0.00    +0.077 C 
ATOM     13  C   UNL     1       0.288   0.063   0.446  0.00  0.00    +0.022 C 
ATOM     14  C   UNL     1       0.227   1.592   0.439  0.00  0.00    +0.002 C 
ATOM     15  C   UNL     1       1.636   2.159   0.631  0.00  0.00    +0.000 C 
ATOM     16  C   UNL     1       2.422   2.024  -0.674  0.00  0.00    +0.000 C 
ATOM     17  C   UNL     1       2.858   0.569  -0.859  0.00  0.00    +0.000 C 
ATOM     18  C   UNL     1       3.394   0.025   0.467  0.00  0.00    +0.002 C 
ATOM     19  C   UNL     1       2.451  -1.061   0.991  0.00  0.00    +0.022 C 
ENDBRANCH   9  12
BRANCH   1  21
ATOM     20  N   UNL     1      -3.158  -6.071   3.278  0.00  0.00    -0.285 N 
ATOM     21  C   UNL     1      -1.989  -5.399   3.280  0.00  0.00    +0.224 C 
ATOM     22  O   UNL     1      -0.963  -5.968   3.589  0.00  0.00    -0.275 OA
ATOM     23  H   UNL     1      -3.988  -5.599   3.107  0.00  0.00    +0.155 HD
BRANCH  20  29
ATOM     24  C   UNL     1      -5.426 -10.010   5.151  0.00  0.00    +0.044 C 
ATOM     25  C   UNL     1      -4.261  -9.384   4.430  0.00  0.00    -0.048 A 
ATOM     26  C   UNL     1      -3.204 -10.172   4.011  0.00  0.00    +0.006 A 
ATOM     27  C   UNL     1      -2.133  -9.601   3.349  0.00  0.00    -0.048 A 
ATOM     28  C   UNL     1      -2.114  -8.242   3.104  0.00  0.00    +0.026 A 
ATOM     29  C   UNL     1      -3.173  -7.448   3.524  0.00  0.00    +0.034 A 
ATOM     30  C   UNL     1      -4.246  -8.024   4.194  0.00  0.00    +0.026 A 
ATOM     31  C   UNL     1      -0.984 -10.464   2.893  0.00  0.00    +0.044 C 
ENDBRANCH  20  29
ENDBRANCH   1  21
BRANCH  10  32
ATOM     32  C   UNL     1       1.433  -1.541   4.670  0.00  0.00    +0.237 C 
ATOM     33  O   UNL     1       2.329  -2.195   4.180  0.00  0.00    -0.274 OA
ATOM     34  N   UNL     1       1.532  -1.109   5.943  0.00  0.00    -0.311 N 
ATOM     35  H   UNL     1       0.816  -0.585   6.335  0.00  0.00    +0.149 HD
BRANCH  34  36
ATOM     36  C   UNL     1       2.723  -1.429   6.735  0.00  0.00    +0.073 C 
ATOM     37  C   UNL     1       2.555  -2.810   7.372  0.00  0.00    +0.022 C 
ATOM     38  C   UNL     1       3.798  -3.145   8.198  0.00  0.00    +0.002 C 
ATOM     39  C   UNL     1       3.978  -2.095   9.296  0.00  0.00    +0.000 C 
ATOM     40  C   UNL     1       4.146  -0.714   8.659  0.00  0.00    +0.002 C 
ATOM     41  C   UNL     1       2.903  -0.379   7.833  0.00  0.00    +0.022 C 
ENDBRANCH  34  36
ENDBRANCH  10  32
TORSDOF 5
