REMARK  Name = ZINC01071771
REMARK  3 active torsions:
REMARK  status: ('A' for Active; 'I' for Inactive)
REMARK    1  A    between atoms: C_8  and  C_24
REMARK    2  A    between atoms: C_14  and  C_19
REMARK    3  A    between atoms: C_29  and  N_30
REMARK                            x       y       z     vdW  Elec       q    Type
REMARK                         _______ _______ _______ _____ _____    ______ ____
ROOT
ATOM      1  C   UNL     1       0.082   1.897  -0.012  0.00  0.00    +0.002 A 
ATOM      2  C   UNL     1       1.399   1.526  -0.210  0.00  0.00    +0.002 A 
ATOM      3  C   UNL     1       2.375   2.490  -0.397  0.00  0.00    +0.025 A 
ATOM      4  C   UNL     1       2.018   3.826  -0.392  0.00  0.00    +0.052 A 
ATOM      5  C   UNL     1       0.694   4.200  -0.220  0.00  0.00    +0.049 A 
ATOM      6  C   UNL     1      -0.277   3.234  -0.006  0.00  0.00    +0.025 A 
ATOM      7  N   UNL     1       0.367   5.552  -0.305  0.00  0.00    -0.331 N 
ATOM      8  C   UNL     1       0.524   6.280  -1.546  0.00  0.00    +0.138 C 
ATOM      9  C   UNL     1       1.952   6.408  -2.021  0.00  0.00    +0.036 C 
ATOM     10  C   UNL     1       3.009   5.741  -1.528  0.00  0.00    +0.017 C 
ATOM     11  N   UNL     1       2.955   4.848  -0.507  0.00  0.00    -0.316 N 
ATOM     12  C   UNL     1       4.399   5.971  -2.099  0.00  0.00    +0.060 C 
ATOM     13  C   UNL     1       4.303   6.296  -3.588  0.00  0.00    +0.039 C 
ATOM     14  C   UNL     1       3.451   7.562  -3.736  0.00  0.00    +0.088 C 
ATOM     15  C   UNL     1       2.120   7.319  -3.090  0.00  0.00    +0.163 C 
ATOM     16  O   UNL     1       1.150   7.927  -3.500  0.00  0.00    -0.292 OA
ATOM     17  H   UNL     1       0.030   6.013   0.479  0.00  0.00    +0.147 HD
ATOM     18  H   UNL     1       3.620   4.928   0.195  0.00  0.00    +0.152 HD
ENDROOT
BRANCH   8  19
ATOM     19  C   UNL     1      -0.273   5.577  -2.615  0.00  0.00    +0.011 A 
ATOM     20  C   UNL     1       0.377   4.853  -3.597  0.00  0.00    +0.057 A 
ATOM     21  C   UNL     1      -0.353   4.202  -4.577  0.00  0.00    +0.167 A 
ATOM     22  C   UNL     1      -1.744   4.289  -4.577  0.00  0.00    +0.168 A 
ATOM     23  C   UNL     1      -2.388   5.021  -3.594  0.00  0.00    +0.082 A 
ATOM     24  C   UNL     1      -1.652   5.664  -2.616  0.00  0.00    +0.135 A 
ATOM     25  O   UNL     1      -2.225   3.575  -5.636  0.00  0.00    -0.453 OA
ATOM     26  C   UNL     1      -1.102   3.389  -6.518  0.00  0.00    +0.466 C 
ATOM     27  O   UNL     1       0.035   3.433  -5.636  0.00  0.00    -0.453 OA
BRANCH  24  28
ATOM     28  N   UNL     1      -2.343   6.447  -1.566  0.00  0.00    +0.057 N 
ATOM     29  O   UNL     1      -3.549   6.609  -1.622  0.00  0.00    -0.126 OA
ATOM     30  O   UNL     1      -1.706   6.928  -0.646  0.00  0.00    -0.126 OA
ENDBRANCH  24  28
ENDBRANCH   8  19
BRANCH  13  31
ATOM     31  C   UNL     1       5.682   6.540  -4.147  0.00  0.00    -0.006 A 
ATOM     32  C   UNL     1       6.331   5.881  -5.137  0.00  0.00    +0.011 A 
ATOM     33  C   UNL     1       7.605   6.284  -5.488  0.00  0.00    +0.008 A 
ATOM     34  C   UNL     1       8.168   7.328  -4.832  0.00  0.00    +0.045 A 
ATOM     35  S   UNL     1       6.880   7.779  -3.682  0.00  0.00    -0.101 S 
ENDBRANCH  13  31
TORSDOF 3
