REMARK  Name = ZINC65292735
REMARK  4 active torsions:
REMARK  status: ('A' for Active; 'I' for Inactive)
REMARK    1  A    between atoms: C_1  and  C_2
REMARK    2  A    between atoms: C_2  and  N_3
REMARK    3  A    between atoms: N_22  and  C_23
REMARK    4  A    between atoms: C_27  and  C_29
REMARK                            x       y       z     vdW  Elec       q    Type
REMARK                         _______ _______ _______ _____ _____    ______ ____
ROOT
ATOM      1  N   UNL     1       0.924   0.331  -1.619  0.00  0.00    -0.303 N 
ATOM      2  C   UNL     1       0.142  -0.211  -2.621  0.00  0.00    +0.089 A 
ATOM      3  C   UNL     1      -1.224   0.043  -2.680  0.00  0.00    +0.138 A 
ATOM      4  N   UNL     1      -1.956  -0.481  -3.642  0.00  0.00    -0.261 NA
ATOM      5  C   UNL     1      -1.441  -1.257  -4.579  0.00  0.00    +0.113 A 
ATOM      6  C   UNL     1      -0.110  -1.562  -4.602  0.00  0.00    +0.049 A 
ATOM      7  C   UNL     1       0.723  -1.034  -3.603  0.00  0.00    +0.093 A 
ATOM      8  N   UNL     1       2.047  -1.307  -3.584  0.00  0.00    -0.225 NA
ATOM      9  C   UNL     1       2.819  -0.811  -2.650  0.00  0.00    +0.188 A 
ATOM     10  C   UNL     1       2.248   0.062  -1.603  0.00  0.00    +0.292 A 
ATOM     11  O   UNL     1       2.962   0.530  -0.736  0.00  0.00    -0.264 OA
ATOM     12  N   UNL     1       4.169  -1.100  -2.645  0.00  0.00    -0.308 N 
ATOM     13  C   UNL     1       5.020  -0.685  -1.521  0.00  0.00    +0.125 C 
ATOM     14  C   UNL     1       5.737  -1.922  -0.966  0.00  0.00    +0.128 C 
ATOM     15  N   UNL     1       6.349  -2.651  -2.085  0.00  0.00    -0.282 N 
ATOM     16  C   UNL     1       5.499  -3.066  -3.210  0.00  0.00    +0.128 C 
ATOM     17  C   UNL     1       4.781  -1.834  -3.762  0.00  0.00    +0.125 C 
ATOM     18  C   UNL     1       7.667  -2.933  -2.081  0.00  0.00    +0.307 C 
ATOM     19  O   UNL     1       8.349  -2.637  -1.119  0.00  0.00    -0.252 OA
ATOM     20  N   UNL     1       8.229  -3.544  -3.143  0.00  0.00    -0.269 N 
ATOM     21  H   UNL     1       7.691  -3.756  -3.921  0.00  0.00    +0.156 HD
ENDROOT
BRANCH  20  22
ATOM     22  C   UNL     1       9.589  -3.873  -3.122  0.00  0.00    +0.035 A 
ATOM     23  C   UNL     1      10.338  -3.664  -1.971  0.00  0.00    +0.023 A 
ATOM     24  C   UNL     1      11.680  -3.990  -1.954  0.00  0.00    +0.002 A 
ATOM     25  C   UNL     1      12.278  -4.523  -3.081  0.00  0.00    +0.012 A 
ATOM     26  C   UNL     1      11.535  -4.732  -4.229  0.00  0.00    +0.057 A 
ATOM     27  C   UNL     1      10.191  -4.413  -4.250  0.00  0.00    +0.035 A 
BRANCH  26  28
ATOM     28  C   UNL     1      12.191  -5.312  -5.455  0.00  0.00    +0.417 C 
ATOM     29  F   UNL     1      13.544  -5.554  -5.190  0.00  0.00    -0.166 F 
ATOM     30  F   UNL     1      11.561  -6.512  -5.798  0.00  0.00    -0.166 F 
ATOM     31  F   UNL     1      12.079  -4.407  -6.516  0.00  0.00    -0.166 F 
ENDBRANCH  26  28
ENDBRANCH  20  22
BRANCH   1  33
ATOM     32  C   UNL     1       0.365   2.646  -1.060  0.00  0.00    +0.027 C 
ATOM     33  C   UNL     1       0.328   1.189  -0.592  0.00  0.00    +0.122 C 
ENDBRANCH   1  33
TORSDOF 3
