REMARK  Name = ZINC01868949
REMARK  8 active torsions:
REMARK  status: ('A' for Active; 'I' for Inactive)
REMARK    1  A    between atoms: C_4  and  N_10
REMARK    2  A    between atoms: C_5  and  C_7
REMARK    3  A    between atoms: N_10  and  C_11
REMARK    4  A    between atoms: C_11  and  C_12
REMARK    5  A    between atoms: C_13  and  C_23
REMARK    6  A    between atoms: N_25  and  N_26
REMARK    7  A    between atoms: C_27  and  C_28
REMARK    8  A    between atoms: C_33  and  O_34
REMARK                            x       y       z     vdW  Elec       q    Type
REMARK                         _______ _______ _______ _____ _____    ______ ____
ROOT
ATOM      1  C   UNL     1       6.184  -0.309  -0.246  0.00  0.00    +0.096 A 
ATOM      2  C   UNL     1       6.932  -0.676   0.836  0.00  0.00    +0.174 A 
ATOM      3  N   UNL     1       7.974  -1.407   0.405  0.00  0.00    -0.124 NA
ATOM      4  N   UNL     1       7.923  -1.519  -0.877  0.00  0.00    -0.058 NA
ATOM      5  N   UNL     1       6.788  -0.834  -1.335  0.00  0.00    -0.190 N 
ATOM      6  C   UNL     1       6.365  -0.716  -2.664  0.00  0.00    +0.240 A 
ATOM      7  C   UNL     1       7.032  -1.299  -3.832  0.00  0.00    +0.206 A 
ATOM      8  N   UNL     1       6.349  -0.978  -4.896  0.00  0.00    -0.032 NA
ATOM      9  O   UNL     1       5.242  -0.197  -4.483  0.00  0.00    -0.239 OA
ATOM     10  N   UNL     1       5.307  -0.074  -3.073  0.00  0.00    -0.027 NA
ATOM     11  N   UNL     1       8.194  -2.062  -3.809  0.00  0.00    -0.337 N 
ATOM     12  H   UNL     1       8.634  -2.250  -2.965  0.00  0.00    +0.144 HD
ATOM     13  H   UNL     1       8.563  -2.408  -4.636  0.00  0.00    +0.144 HD
ENDROOT
BRANCH   2  14
ATOM     14  C   UNL     1       6.644  -0.328   2.240  0.00  0.00    +0.285 C 
ATOM     15  O   UNL     1       5.667   0.343   2.513  0.00  0.00    -0.267 OA
ATOM     16  N   UNL     1       7.465  -0.754   3.221  0.00  0.00    -0.202 N 
ATOM     17  H   UNL     1       8.244  -1.289   3.004  0.00  0.00    +0.178 HD
BRANCH  16  18
ATOM     18  N   UNL     1       7.192  -0.423   4.555  0.00  0.00    -0.187 NA
ATOM     19  C   UNL     1       7.982  -0.834   5.500  0.00  0.00    +0.142 C 
BRANCH  19  20
ATOM     20  C   UNL     1       7.695  -0.486   6.903  0.00  0.00    +0.037 A 
ATOM     21  C   UNL     1       8.546  -0.920   7.922  0.00  0.00    +0.033 A 
ATOM     22  C   UNL     1       8.271  -0.592   9.234  0.00  0.00    +0.042 A 
ATOM     23  C   UNL     1       7.155   0.168   9.544  0.00  0.00    +0.023 A 
ATOM     24  C   UNL     1       6.306   0.603   8.544  0.00  0.00    +0.047 A 
ATOM     25  C   UNL     1       6.570   0.287   7.222  0.00  0.00    +0.126 A 
ATOM     26 CL   UNL     1       9.329  -1.132  10.500  0.00  0.00    -0.084 Cl
BRANCH  25  27
ATOM     27  O   UNL     1       5.739   0.719   6.238  0.00  0.00    -0.506 OA
ATOM     28  H   UNL     1       5.017   0.109   6.037  0.00  0.00    +0.292 HD
ENDBRANCH  25  27
ENDBRANCH  19  20
ENDBRANCH  16  18
ENDBRANCH   2  14
BRANCH   1  29
ATOM     29  C   UNL     1       4.923   0.517  -0.230  0.00  0.00    +0.159 C 
BRANCH  29  30
ATOM     30  N   UNL     1       3.763  -0.366  -0.086  0.00  0.00    -0.338 N 
ATOM     31  H   UNL     1       3.889  -1.325  -0.020  0.00  0.00    +0.146 HD
BRANCH  30  35
ATOM     32  C   UNL     1      -0.077   1.247   0.034  0.00  0.00    +0.001 A 
ATOM     33  C   UNL     1       1.031   2.080   0.015  0.00  0.00    +0.002 A 
ATOM     34  C   UNL     1       2.304   1.549  -0.024  0.00  0.00    +0.024 A 
ATOM     35  C   UNL     1       2.483   0.171  -0.046  0.00  0.00    +0.040 A 
ATOM     36  C   UNL     1       1.363  -0.675  -0.027  0.00  0.00    +0.057 A 
ATOM     37  C   UNL     1       0.081  -0.121   0.013  0.00  0.00    +0.015 A 
BRANCH  36  38
ATOM     38  C   UNL     1       1.539  -2.138  -0.050  0.00  0.00    +0.243 C 
ATOM     39  O   UNL     1       2.654  -2.618   0.024  0.00  0.00    -0.270 OA
ATOM     40  N   UNL     1       0.464  -2.945  -0.153  0.00  0.00    -0.325 N 
ATOM     41  H   UNL     1      -0.426  -2.562  -0.211  0.00  0.00    +0.145 HD
ATOM     42  H   UNL     1       0.579  -3.908  -0.168  0.00  0.00    +0.145 HD
ENDBRANCH  36  38
ENDBRANCH  30  35
ENDBRANCH  29  30
ENDBRANCH   1  29
TORSDOF 8
