REMARK  Name = ZINC08344120
REMARK  8 active torsions:
REMARK  status: ('A' for Active; 'I' for Inactive)
REMARK    1  A    between atoms: C_1  and  C_2
REMARK    2  A    between atoms: C_2  and  C_4
REMARK    3  A    between atoms: C_2  and  N_65
REMARK    4  A    between atoms: N_6  and  C_7
REMARK    5  A    between atoms: C_10  and  N_13
REMARK    6  A    between atoms: N_21  and  C_24
REMARK    7  A    between atoms: C_27  and  O_30
REMARK    8  A    between atoms: O_30  and  C_31
REMARK                            x       y       z     vdW  Elec       q    Type
REMARK                         _______ _______ _______ _____ _____    ______ ____
ROOT
ATOM      1  C   UNL     1       3.278   1.726   2.567  0.00  0.00    -0.004 C 
ATOM      2  C   UNL     1       3.492   2.003   1.077  0.00  0.00    +0.017 C 
ENDROOT
BRANCH   2   8
ATOM      3  C   UNL     1       1.102   1.662   0.877  0.00  0.00    -0.059 C 
ATOM      4  C   UNL     1       0.024   0.914   0.090  0.00  0.00    +0.086 C 
ATOM      5  N   UNL     1       0.083   1.317  -1.322  0.00  0.00    -0.333 N 
ATOM      6  C   UNL     1       1.401   1.017  -1.897  0.00  0.00    +0.086 C 
ATOM      7  C   UNL     1       2.480   1.765  -1.110  0.00  0.00    -0.059 C 
ATOM      8  N   UNL     1       2.424   1.335   0.303  0.00  0.00    +0.389 N 
ATOM      9  H   UNL     1       2.565   0.319   0.348  0.00  0.00    -0.081 HD
BRANCH   5  10
ATOM     10  C   UNL     1      -0.937   0.707  -2.060  0.00  0.00    +0.030 A 
ATOM     11  C   UNL     1      -1.828  -0.155  -1.434  0.00  0.00    +0.027 A 
ATOM     12  C   UNL     1      -2.838  -0.752  -2.163  0.00  0.00    +0.047 A 
ATOM     13  C   UNL     1      -2.955  -0.501  -3.522  0.00  0.00    +0.120 A 
ATOM     14  C   UNL     1      -2.062   0.355  -4.149  0.00  0.00    +0.047 A 
ATOM     15  C   UNL     1      -1.055   0.958  -3.421  0.00  0.00    +0.027 A 
BRANCH  13  16
ATOM     16  O   UNL     1      -3.946  -1.095  -4.240  0.00  0.00    -0.495 OA
ATOM     17  C   UNL     1      -4.830  -1.965  -3.530  0.00  0.00    +0.277 C 
ENDBRANCH  13  16
ENDBRANCH   5  10
ENDBRANCH   2   8
BRANCH   2  18
ATOM     18  C   UNL     1       3.467   3.490   0.834  0.00  0.00    +0.203 C 
ATOM     19  O   UNL     1       2.421   4.044   0.570  0.00  0.00    -0.277 OA
ATOM     20  N   UNL     1       4.607   4.205   0.911  0.00  0.00    -0.287 N 
ATOM     21  H   UNL     1       5.455   3.752   1.047  0.00  0.00    +0.155 HD
BRANCH  20  22
ATOM     22  C   UNL     1       4.569   5.601   0.793  0.00  0.00    +0.033 A 
ATOM     23  C   UNL     1       5.630   6.277   0.206  0.00  0.00    +0.025 A 
ATOM     24  C   UNL     1       5.590   7.652   0.085  0.00  0.00    +0.025 A 
ATOM     25  C   UNL     1       4.494   8.359   0.560  0.00  0.00    +0.030 A 
ATOM     26  C   UNL     1       3.435   7.683   1.152  0.00  0.00    +0.025 A 
ATOM     27  C   UNL     1       3.473   6.308   1.268  0.00  0.00    +0.025 A 
BRANCH  25  28
ATOM     28  N   UNL     1       4.455   9.752   0.442  0.00  0.00    -0.330 N 
ATOM     29  C   UNL     1       3.248  10.187  -0.272  0.00  0.00    +0.105 C 
ATOM     30  C   UNL     1       3.166  11.715  -0.255  0.00  0.00    +0.019 C 
ATOM     31  C   UNL     1       4.415  12.296  -0.925  0.00  0.00    +0.003 C 
ATOM     32  C   UNL     1       5.660  11.789  -0.191  0.00  0.00    +0.019 C 
ATOM     33  C   UNL     1       5.669  10.259  -0.210  0.00  0.00    +0.105 C 
ENDBRANCH  25  28
ENDBRANCH  20  22
ENDBRANCH   2  18
TORSDOF 6
