REMARK  Name = ZINC33686757
REMARK  9 active torsions:
REMARK  status: ('A' for Active; 'I' for Inactive)
REMARK    1  A    between atoms: C_1  and  C_2
REMARK    2  A    between atoms: C_2  and  O_3
REMARK    3  A    between atoms: O_3  and  C_4
REMARK    4  A    between atoms: C_7  and  N_10
REMARK    5  A    between atoms: C_11  and  C_13
REMARK    6  A    between atoms: C_13  and  S_14
REMARK    7  A    between atoms: S_14  and  C_15
REMARK    8  A    between atoms: C_19  and  C_23
REMARK    9  A    between atoms: N_26  and  C_27
REMARK                            x       y       z     vdW  Elec       q    Type
REMARK                         _______ _______ _______ _____ _____    ______ ____
ROOT
ATOM      1  C   UNL     1       2.371 -10.044  -4.913  0.00  0.00    +0.177 A 
ATOM      2  N   UNL     1       1.823 -10.710  -3.921  0.00  0.00    -0.201 NA
ATOM      3  C   UNL     1       1.745 -12.055  -3.947  0.00  0.00    +0.187 A 
ATOM      4  C   UNL     1       2.294 -12.755  -5.122  0.00  0.00    +0.079 A 
ATOM      5  C   UNL     1       2.095 -14.101  -4.907  0.00  0.00    +0.046 A 
ATOM      6  N   UNL     1       1.484 -14.240  -3.723  0.00  0.00    -0.279 N 
ATOM      7  N   UNL     1       1.275 -12.983  -3.143  0.00  0.00    -0.153 NA
ATOM      8  H   UNL     1       1.226 -15.087  -3.326  0.00  0.00    +0.189 HD
ATOM      9  C   UNL     1       2.492 -15.217  -5.839  0.00  0.00    +0.066 C 
ATOM     10  C   UNL     1       2.885 -11.937  -6.178  0.00  0.00    +0.115 A 
ATOM     11  N   UNL     1       3.419 -12.510  -7.308  0.00  0.00    -0.344 N 
ATOM     12  N   UNL     1       2.882 -10.615  -6.009  0.00  0.00    -0.276 N 
ATOM     13  H   UNL     1       3.408 -13.474  -7.415  0.00  0.00    +0.144 HD
ATOM     14  H   UNL     1       3.807 -11.950  -7.999  0.00  0.00    +0.144 HD
ENDROOT
BRANCH  12  15
ATOM     15  C   UNL     1       3.428  -9.813  -6.989  0.00  0.00    +0.052 A 
ATOM     16  C   UNL     1       2.837  -9.751  -8.250  0.00  0.00    +0.026 A 
ATOM     17  C   UNL     1       3.386  -8.947  -9.228  0.00  0.00    +0.003 A 
ATOM     18  C   UNL     1       4.522  -8.204  -8.959  0.00  0.00    +0.020 A 
ATOM     19  C   UNL     1       5.113  -8.262  -7.709  0.00  0.00    +0.043 A 
ATOM     20  C   UNL     1       4.568  -9.059  -6.721  0.00  0.00    +0.046 A 
ATOM     21 CL   UNL     1       6.538  -7.327  -7.380  0.00  0.00    -0.083 Cl
ENDBRANCH  12  15
BRANCH   1  22
ATOM     22  S   UNL     1       2.429  -8.287  -4.794  0.00  0.00    -0.078 S 
BRANCH  22  23
ATOM     23  C   UNL     1       1.651  -7.929  -3.195  0.00  0.00    +0.173 C 
BRANCH  23  25
ATOM     24  N   UNL     1       1.102  -5.938  -1.834  0.00  0.00    -0.285 N 
ATOM     25  C   UNL     1       1.635  -6.440  -2.966  0.00  0.00    +0.227 C 
ATOM     26  O   UNL     1       2.103  -5.694  -3.799  0.00  0.00    -0.275 OA
ATOM     27  H   UNL     1       0.797  -6.536  -1.135  0.00  0.00    +0.155 HD
BRANCH  24  31
ATOM     28  C   UNL     1       0.759  -1.811  -1.344  0.00  0.00    +0.121 A 
ATOM     29  C   UNL     1       0.629  -2.373  -2.606  0.00  0.00    +0.047 A 
ATOM     30  C   UNL     1       0.743  -3.739  -2.769  0.00  0.00    +0.027 A 
ATOM     31  C   UNL     1       0.987  -4.551  -1.670  0.00  0.00    +0.034 A 
ATOM     32  C   UNL     1       1.117  -3.989  -0.407  0.00  0.00    +0.027 A 
ATOM     33  C   UNL     1       1.009  -2.622  -0.246  0.00  0.00    +0.047 A 
BRANCH  28  34
ATOM     34  O   UNL     1       0.648  -0.466  -1.184  0.00  0.00    -0.492 OA
BRANCH  34  36
ATOM     35  C   UNL     1       0.297   1.788  -1.982  0.00  0.00    +0.048 C 
ATOM     36  C   UNL     1       0.390   0.308  -2.357  0.00  0.00    +0.225 C 
ENDBRANCH  34  36
ENDBRANCH  28  34
ENDBRANCH  24  31
ENDBRANCH  23  25
ENDBRANCH  22  23
ENDBRANCH   1  22
TORSDOF 7
