REMARK  Name = ZINC06134232
REMARK  15 active torsions:
REMARK  status: ('A' for Active; 'I' for Inactive)
REMARK    1  A    between atoms: C_1  and  C_2
REMARK    2  A    between atoms: C_2  and  C_3
REMARK    3  A    between atoms: C_2  and  C_4
REMARK    4  A    between atoms: C_4  and  C_5
REMARK    5  A    between atoms: C_5  and  N_6
REMARK    6  A    between atoms: C_7  and  C_9
REMARK    7  A    between atoms: C_9  and  C_11
REMARK    8  A    between atoms: C_9  and  N_19
REMARK    9  A    between atoms: C_14  and  O_17
REMARK   10  A    between atoms: O_17  and  C_18
REMARK   11  A    between atoms: N_19  and  C_20
REMARK   12  A    between atoms: C_20  and  C_21
REMARK   13  A    between atoms: C_26  and  C_28
REMARK   14  A    between atoms: C_29  and  N_36
REMARK   15  A    between atoms: C_30  and  C_33
REMARK                            x       y       z     vdW  Elec       q    Type
REMARK                         _______ _______ _______ _____ _____    ______ ____
ROOT
ATOM      1  N   UNL     1       3.872  -4.399   1.044  0.00  0.00    -0.274 N 
ATOM      2  C   UNL     1       3.543  -5.294   0.091  0.00  0.00    +0.258 C 
ATOM      3  O   UNL     1       2.425  -5.288  -0.390  0.00  0.00    -0.269 OA
ENDROOT
BRANCH   2   4
ATOM      4  C   UNL     1       4.532  -6.273  -0.366  0.00  0.00    +0.115 A 
ATOM      5  C   UNL     1       4.376  -7.637  -0.616  0.00  0.00    +0.076 A 
ATOM      6  C   UNL     1       5.558  -8.240  -1.045  0.00  0.00    +0.155 A 
ATOM      7  N   UNL     1       6.647  -7.513  -1.159  0.00  0.00    -0.203 NA
ATOM      8  S   UNL     1       6.257  -6.043  -0.745  0.00  0.00    +0.019 S 
BRANCH   6   9
ATOM      9  C   UNL     1       5.588  -9.680  -1.363  0.00  0.00    +0.262 C 
ATOM     10  O   UNL     1       4.577 -10.347  -1.255  0.00  0.00    -0.269 OA
ATOM     11  N   UNL     1       6.735 -10.256  -1.773  0.00  0.00    -0.324 N 
ATOM     12  H   UNL     1       7.542  -9.724  -1.859  0.00  0.00    +0.145 HD
ATOM     13  H   UNL     1       6.755 -11.203  -1.982  0.00  0.00    +0.145 HD
ENDBRANCH   6   9
BRANCH   5  14
ATOM     14  N   UNL     1       3.177  -8.318  -0.457  0.00  0.00    -0.355 N 
ATOM     15  H   UNL     1       2.386  -7.844  -0.157  0.00  0.00    +0.142 HD
ATOM     16  H   UNL     1       3.130  -9.269  -0.646  0.00  0.00    +0.142 HD
ENDBRANCH   5  14
ENDBRANCH   2   4
BRANCH   1  17
ATOM     17  C   UNL     1       2.830  -3.586   1.675  0.00  0.00    +0.193 C 
BRANCH  17  18
ATOM     18  C   UNL     1       2.731  -2.258   0.968  0.00  0.00    -0.018 A 
ATOM     19  C   UNL     1       3.875  -1.524   0.716  0.00  0.00    +0.009 A 
ATOM     20  C   UNL     1       3.788  -0.310   0.063  0.00  0.00    +0.046 A 
ATOM     21  C   UNL     1       2.551   0.178  -0.330  0.00  0.00    +0.120 A 
ATOM     22  C   UNL     1       1.404  -0.558  -0.072  0.00  0.00    +0.046 A 
ATOM     23  C   UNL     1       1.496  -1.775   0.576  0.00  0.00    +0.009 A 
BRANCH  21  24
ATOM     24  O   UNL     1       2.462   1.375  -0.967  0.00  0.00    -0.495 OA
ATOM     25  C   UNL     1       3.684   2.079  -1.200  0.00  0.00    +0.277 C 
ENDBRANCH  21  24
ENDBRANCH  17  18
BRANCH  17  27
ATOM     26  N   UNL     1       2.201  -3.298   4.050  0.00  0.00    -0.313 N 
ATOM     27  C   UNL     1       3.178  -3.358   3.123  0.00  0.00    +0.238 C 
ATOM     28  O   UNL     1       4.338  -3.230   3.455  0.00  0.00    -0.273 OA
ATOM     29  H   UNL     1       1.274  -3.401   3.784  0.00  0.00    +0.149 HD
BRANCH  26  30
ATOM     30  C   UNL     1       2.540  -3.077   5.458  0.00  0.00    +0.104 C 
BRANCH  30  31
ATOM     31  C   UNL     1       1.258  -3.051   6.293  0.00  0.00    +0.022 C 
BRANCH  31  33
ATOM     32  C   UNL     1       2.230  -1.431   7.927  0.00  0.00    +0.007 C 
ATOM     33  C   UNL     1       1.612  -2.821   7.763  0.00  0.00    -0.016 C 
ATOM     34  C   UNL     1       0.344  -2.919   8.614  0.00  0.00    +0.007 C 
ENDBRANCH  31  33
ENDBRANCH  30  31
ENDBRANCH  26  30
ENDBRANCH  17  27
ENDBRANCH   1  17
BRANCH   1  35
ATOM     35  C   UNL     1       5.271  -4.240   1.448  0.00  0.00    +0.183 C 
BRANCH  35  36
ATOM     36  C   UNL     1       5.620  -5.289   2.471  0.00  0.00    +0.122 A 
ATOM     37  C   UNL     1       6.009  -6.549   2.205  0.00  0.00    +0.046 A 
ATOM     38  C   UNL     1       6.232  -7.181   3.450  0.00  0.00    +0.041 A 
ATOM     39  C   UNL     1       5.967  -6.269   4.403  0.00  0.00    +0.195 A 
ATOM     40  O   UNL     1       5.602  -5.124   3.804  0.00  0.00    -0.466 OA
ENDBRANCH  35  36
ENDBRANCH   1  35
TORSDOF 12
