REMARK  Name = ZINC64131676
REMARK  5 active torsions:
REMARK  status: ('A' for Active; 'I' for Inactive)
REMARK    1  A    between atoms: C_1  and  C_2
REMARK    2  A    between atoms: C_10  and  C_12
REMARK    3  A    between atoms: C_12  and  N_13
REMARK    4  A    between atoms: C_21  and  C_23
REMARK    5  A    between atoms: C_25  and  C_34
REMARK                            x       y       z     vdW  Elec       q    Type
REMARK                         _______ _______ _______ _____ _____    ______ ____
ROOT
ATOM      1  N   UNL     1       2.478   0.845   4.292  0.00  0.00    -0.294 N 
ATOM      2  C   UNL     1       3.153   1.967   3.625  0.00  0.00    +0.127 C 
ATOM      3  C   UNL     1       2.127   2.733   2.784  0.00  0.00    +0.127 C 
ATOM      4  N   UNL     1       1.377   3.651   3.638  0.00  0.00    -0.298 N 
ATOM      5  C   UNL     1       0.512   3.188   4.721  0.00  0.00    +0.117 C 
ATOM      6  C   UNL     1       1.358   2.472   5.781  0.00  0.00    +0.115 C 
ATOM      7  C   UNL     1       1.632   1.064   5.303  0.00  0.00    +0.217 C 
ATOM      8  O   UNL     1       1.083   0.127   5.843  0.00  0.00    -0.276 OA
ATOM      9  C   UNL     1       1.487   4.976   3.418  0.00  0.00    +0.242 C 
ATOM     10  O   UNL     1       2.198   5.385   2.525  0.00  0.00    -0.273 OA
ENDROOT
BRANCH   9  11
ATOM     11  C   UNL     1       0.726   5.949   4.281  0.00  0.00    +0.193 C 
ATOM     12  C   UNL     1       1.460   6.174   5.584  0.00  0.00    -0.033 C 
ATOM     13  C   UNL     1       1.759   7.493   5.623  0.00  0.00    +0.001 A 
ATOM     14  C   UNL     1       2.456   8.325   6.611  0.00  0.00    +0.030 A 
ATOM     15  C   UNL     1       2.606   9.648   6.365  0.00  0.00    +0.042 A 
ATOM     16  C   UNL     1       2.113  10.241   5.193  0.00  0.00    +0.022 A 
ATOM     17  C   UNL     1       1.463   9.540   4.240  0.00  0.00    +0.027 A 
ATOM     18  C   UNL     1       1.249   8.143   4.394  0.00  0.00    +0.043 A 
ATOM     19  N   UNL     1       0.656   7.260   3.625  0.00  0.00    -0.370 N 
ATOM     20 CL   UNL     1       3.428  10.636   7.531  0.00  0.00    -0.084 Cl
ATOM     21  C   UNL     1       1.792   5.139   6.628  0.00  0.00    +0.042 C 
ATOM     22  H   UNL     1       0.242   7.442   2.767  0.00  0.00    +0.161 HD
ENDBRANCH   9  11
BRANCH   1  23
ATOM     23  C   UNL     1       2.730  -0.525   3.841  0.00  0.00    +0.159 C 
BRANCH  23  32
ATOM     24  C   UNL     1      -0.018   1.503   0.010  0.00  0.00    +0.043 C 
ATOM     25  C   UNL     1       0.002  -0.004   0.002  0.00  0.00    -0.031 C 
ATOM     26  C   UNL     1       0.006  -0.675  -1.151  0.00  0.00    +0.004 C 
ATOM     27  C   UNL     1       0.020  -2.142  -1.196  0.00  0.00    +0.015 C 
ATOM     28  C   UNL     1       0.379  -2.837  -0.090  0.00  0.00    +0.073 C 
ATOM     29  N   UNL     1       0.679  -2.067   1.012  0.00  0.00    -0.306 N 
ATOM     30  C   UNL     1       0.025  -0.777   1.297  0.00  0.00    +0.218 C 
ATOM     31  N   UNL     1       0.830  -0.117   2.318  0.00  0.00    -0.262 NA
ATOM     32  C   UNL     1       1.742  -0.890   2.763  0.00  0.00    +0.050 C 
ATOM     33  C   UNL     1       1.678  -2.224   2.061  0.00  0.00    +0.159 C 
ENDBRANCH  23  32
ENDBRANCH   1  23
TORSDOF 3
