REMARK  Name = ZINC17156013
REMARK  5 active torsions:
REMARK  status: ('A' for Active; 'I' for Inactive)
REMARK    1  A    between atoms: C_3  and  S_8
REMARK    2  A    between atoms: S_8  and  N_11
REMARK    3  A    between atoms: C_19  and  N_21
REMARK    4  A    between atoms: N_21  and  S_22
REMARK    5  A    between atoms: S_22  and  C_25
REMARK                            x       y       z     vdW  Elec       q    Type
REMARK                         _______ _______ _______ _____ _____    ______ ____
ROOT
ATOM      1  N   UNL     1      -1.252   2.050   0.019  0.00  0.00    -0.203 N 
ATOM      2  C   UNL     1      -1.283   3.487   0.329  0.00  0.00    +0.132 C 
ATOM      3  C   UNL     1      -0.152   4.160  -0.461  0.00  0.00    +0.025 C 
ATOM      4  C   UNL     1       1.187   3.604   0.022  0.00  0.00    +0.039 C 
ATOM      5  C   UNL     1       1.172   2.099   0.001  0.00  0.00    -0.023 A 
ATOM      6  C   UNL     1      -0.017   1.386   0.009  0.00  0.00    +0.055 A 
ATOM      7  C   UNL     1       0.002  -0.004   0.000  0.00  0.00    +0.027 A 
ATOM      8  C   UNL     1       1.206  -0.680  -0.020  0.00  0.00    +0.026 A 
ATOM      9  C   UNL     1       2.398   0.031  -0.031  0.00  0.00    +0.048 A 
ATOM     10  C   UNL     1       2.378   1.418  -0.021  0.00  0.00    +0.030 A 
ENDROOT
BRANCH   1  11
ATOM     11  S   UNL     1      -2.652   1.230  -0.311  0.00  0.00    +0.075 S 
ATOM     12  O   UNL     1      -3.623   2.208  -0.658  0.00  0.00    -0.150 OA
ATOM     13  O   UNL     1      -2.302   0.162  -1.181  0.00  0.00    -0.150 OA
BRANCH  11  16
ATOM     14  C   UNL     1      -4.466   0.615   3.220  0.00  0.00    +0.040 A 
ATOM     15  C   UNL     1      -4.041   1.190   2.038  0.00  0.00    +0.031 A 
ATOM     16  C   UNL     1      -3.193   0.495   1.196  0.00  0.00    +0.109 A 
ATOM     17  C   UNL     1      -2.775  -0.778   1.533  0.00  0.00    +0.031 A 
ATOM     18  C   UNL     1      -3.195  -1.354   2.717  0.00  0.00    +0.040 A 
ATOM     19  C   UNL     1      -4.043  -0.659   3.561  0.00  0.00    +0.124 A 
ATOM     20  F   UNL     1      -4.458  -1.222   4.717  0.00  0.00    -0.205 F 
ENDBRANCH  11  16
ENDBRANCH   1  11
BRANCH   9  21
ATOM     21  N   UNL     1       3.620  -0.651  -0.053  0.00  0.00    -0.216 N 
ATOM     22  H   UNL     1       4.341  -0.373   0.533  0.00  0.00    +0.174 HD
BRANCH  21  23
ATOM     23  S   UNL     1       3.834  -1.933  -1.079  0.00  0.00    +0.072 S 
ATOM     24  O   UNL     1       5.167  -2.389  -0.887  0.00  0.00    -0.150 OA
ATOM     25  O   UNL     1       2.707  -2.782  -0.910  0.00  0.00    -0.150 OA
BRANCH  23  26
ATOM     26  C   UNL     1       3.749  -1.305  -2.723  0.00  0.00    +0.109 A 
ATOM     27  C   UNL     1       2.534  -1.253  -3.380  0.00  0.00    +0.030 A 
ATOM     28  C   UNL     1       2.465  -0.754  -4.668  0.00  0.00    +0.022 A 
ATOM     29  C   UNL     1       3.614  -0.318  -5.303  0.00  0.00    +0.041 A 
ATOM     30  C   UNL     1       4.831  -0.376  -4.646  0.00  0.00    +0.022 A 
ATOM     31  C   UNL     1       4.897  -0.869  -3.357  0.00  0.00    +0.030 A 
ATOM     32 CL   UNL     1       3.530   0.301  -6.922  0.00  0.00    -0.084 Cl
ENDBRANCH  23  26
ENDBRANCH  21  23
ENDBRANCH   9  21
TORSDOF 5
