REMARK  Name = ZINC39696396
REMARK  9 active torsions:
REMARK  status: ('A' for Active; 'I' for Inactive)
REMARK    1  A    between atoms: C_1  and  C_2
REMARK    2  A    between atoms: C_2  and  C_3
REMARK    3  A    between atoms: C_2  and  C_4
REMARK    4  A    between atoms: C_2  and  S_5
REMARK    5  A    between atoms: S_5  and  C_6
REMARK    6  A    between atoms: C_6  and  C_7
REMARK    7  A    between atoms: C_7  and  N_8
REMARK    8  A    between atoms: C_9  and  C_11
REMARK    9  A    between atoms: C_22  and  C_24
REMARK                            x       y       z     vdW  Elec       q    Type
REMARK                         _______ _______ _______ _____ _____    ______ ____
ROOT
ATOM      1  C   UNL     1       6.529   0.901  -3.739  0.00  0.00    +0.100 C 
ATOM      2  C   UNL     1       6.735   2.429  -3.631  0.00  0.00    +0.121 C 
ATOM      3  N   UNL     1       7.998   2.688  -4.361  0.00  0.00    -0.296 N 
ATOM      4  C   UNL     1       7.936   1.786  -5.536  0.00  0.00    +0.115 C 
ATOM      5  C   UNL     1       7.317   0.483  -4.991  0.00  0.00    -0.004 C 
ATOM      6  C   UNL     1       6.379  -0.128  -6.027  0.00  0.00    -0.010 C 
ATOM      7  C   UNL     1       7.195  -0.589  -7.239  0.00  0.00    -0.082 C 
ATOM      8  N   UNL     1       8.195  -1.575  -6.812  0.00  0.00    +0.379 N 
ATOM      9  C   UNL     1       9.149  -0.952  -5.886  0.00  0.00    -0.082 C 
ATOM     10  C   UNL     1       8.416  -0.507  -4.618  0.00  0.00    -0.010 C 
ATOM     11  C   UNL     1       8.981   3.550  -4.032  0.00  0.00    +0.247 C 
ATOM     12  O   UNL     1       8.947   4.131  -2.965  0.00  0.00    -0.270 OA
ATOM     13  H   UNL     1       7.732  -2.343  -6.349  0.00  0.00    -0.086 HD
ATOM     14  H   UNL     1       8.689  -1.922  -7.620  0.00  0.00    -0.086 HD
ENDROOT
BRANCH  11  15
ATOM     15  C   UNL     1      10.100   3.788  -4.969  0.00  0.00    +0.040 A 
ATOM     16  C   UNL     1       9.954   3.490  -6.324  0.00  0.00    +0.033 A 
ATOM     17  C   UNL     1      11.002   3.715  -7.194  0.00  0.00    +0.043 A 
ATOM     18  C   UNL     1      12.197   4.234  -6.724  0.00  0.00    +0.040 A 
ATOM     19  C   UNL     1      12.348   4.530  -5.380  0.00  0.00    +0.043 A 
ATOM     20  C   UNL     1      11.304   4.316  -4.502  0.00  0.00    +0.033 A 
ATOM     21 CL   UNL     1      13.849   5.179  -4.800  0.00  0.00    -0.083 Cl
ATOM     22 CL   UNL     1      10.823   3.346  -8.881  0.00  0.00    -0.083 Cl
ENDBRANCH  11  15
BRANCH   1  24
ATOM     23  N   UNL     1       4.572  -0.582  -3.438  0.00  0.00    -0.314 N 
ATOM     24  C   UNL     1       5.066   0.580  -3.909  0.00  0.00    +0.218 C 
ATOM     25  O   UNL     1       4.333   1.368  -4.469  0.00  0.00    -0.275 OA
ATOM     26  H   UNL     1       5.158  -1.212  -2.990  0.00  0.00    +0.149 HD
BRANCH  23  27
ATOM     27  C   UNL     1       3.150  -0.894  -3.603  0.00  0.00    +0.115 C 
BRANCH  27  28
ATOM     28  C   UNL     1       2.853  -2.262  -2.985  0.00  0.00    +0.088 C 
BRANCH  28  29
ATOM     29  S   UNL     1       1.092  -2.648  -3.190  0.00  0.00    -0.153 S 
BRANCH  29  31
ATOM     30  C   UNL     1       1.311  -4.191  -0.942  0.00  0.00    +0.022 C 
ATOM     31  C   UNL     1       0.908  -4.278  -2.415  0.00  0.00    +0.008 C 
ATOM     32  C   UNL     1       1.807  -5.288  -3.131  0.00  0.00    +0.022 C 
ATOM     33  C   UNL     1      -0.550  -4.730  -2.519  0.00  0.00    +0.022 C 
ENDBRANCH  29  31
ENDBRANCH  28  29
ENDBRANCH  27  28
ENDBRANCH  23  27
ENDBRANCH   1  24
TORSDOF 6
