REMARK  Name = ZINC13764137
REMARK  3 active torsions:
REMARK  status: ('A' for Active; 'I' for Inactive)
REMARK    1  A    between atoms: C_4  and  C_7
REMARK    2  A    between atoms: N_15  and  C_18
REMARK    3  A    between atoms: C_21  and  N_24
REMARK                            x       y       z     vdW  Elec       q    Type
REMARK                         _______ _______ _______ _____ _____    ______ ____
ROOT
ATOM      1  C   UNL     1       3.713  -0.759  -0.086  0.00  0.00    +0.163 C 
ATOM      2  C   UNL     1       4.039  -1.229   1.349  0.00  0.00    +0.125 C 
ATOM      3  C   UNL     1       4.727  -2.609   1.143  0.00  0.00    +0.138 C 
ATOM      4  C   UNL     1       3.753  -3.579   1.773  0.00  0.00    +0.234 C 
ATOM      5  O   UNL     1       3.905  -4.780   1.839  0.00  0.00    -0.274 OA
ATOM      6  N   UNL     1       2.699  -2.906   2.248  0.00  0.00    -0.210 N 
ATOM      7  C   UNL     1       2.753  -1.565   2.068  0.00  0.00    +0.233 C 
ATOM      8  O   UNL     1       1.916  -0.761   2.418  0.00  0.00    -0.274 OA
ATOM      9  C   UNL     1       4.736  -2.785  -0.384  0.00  0.00    +0.206 C 
ATOM     10  O   UNL     1       3.652  -1.969  -0.875  0.00  0.00    -0.348 OA
ATOM     11  C   UNL     1       4.528  -4.225  -0.763  0.00  0.00    +0.204 C 
ATOM     12  O   UNL     1       3.571  -4.914  -0.480  0.00  0.00    -0.288 OA
ATOM     13  C   UNL     1       5.709  -4.639  -1.544  0.00  0.00    +0.031 A 
ATOM     14  C   UNL     1       6.027  -5.864  -2.135  0.00  0.00    +0.012 A 
ATOM     15  C   UNL     1       7.214  -6.012  -2.827  0.00  0.00    +0.001 A 
ATOM     16  C   UNL     1       8.096  -4.952  -2.941  0.00  0.00    +0.001 A 
ATOM     17  C   UNL     1       7.800  -3.731  -2.365  0.00  0.00    +0.012 A 
ATOM     18  C   UNL     1       6.606  -3.560  -1.661  0.00  0.00    +0.031 A 
ATOM     19  C   UNL     1       6.061  -2.378  -0.965  0.00  0.00    +0.204 C 
ATOM     20  O   UNL     1       6.582  -1.287  -0.879  0.00  0.00    -0.288 OA
ENDROOT
BRANCH   1  24
ATOM     21  C   UNL     1      -0.052   1.257  -0.169  0.00  0.00    +0.000 A 
ATOM     22  C   UNL     1       1.123   1.986  -0.177  0.00  0.00    +0.000 A 
ATOM     23  C   UNL     1       2.341   1.333  -0.150  0.00  0.00    +0.006 A 
ATOM     24  C   UNL     1       2.385  -0.048  -0.115  0.00  0.00    -0.018 A 
ATOM     25  C   UNL     1       1.210  -0.777  -0.105  0.00  0.00    +0.006 A 
ATOM     26  C   UNL     1      -0.008  -0.124  -0.134  0.00  0.00    +0.000 A 
ENDBRANCH   1  24
BRANCH   6  27
ATOM     27  C   UNL     1       1.623  -3.537   2.889  0.00  0.00    +0.044 A 
ATOM     28  C   UNL     1       1.393  -3.318   4.240  0.00  0.00    +0.026 A 
ATOM     29  C   UNL     1       0.333  -3.941   4.869  0.00  0.00    +0.034 A 
ATOM     30  C   UNL     1      -0.500  -4.781   4.153  0.00  0.00    +0.126 A 
ATOM     31  C   UNL     1      -0.273  -5.002   2.807  0.00  0.00    +0.034 A 
ATOM     32  C   UNL     1       0.782  -4.378   2.172  0.00  0.00    +0.026 A 
BRANCH  30  33
ATOM     33  N   UNL     1      -1.636  -5.447   4.829  0.00  0.00    +0.056 N 
ATOM     34  O   UNL     1      -1.835  -5.255   6.006  0.00  0.00    -0.126 OA
ATOM     35  O   UNL     1      -2.365  -6.182   4.205  0.00  0.00    -0.126 OA
ENDBRANCH  30  33
ENDBRANCH   6  27
TORSDOF 3
