REMARK  Name = ZINC13548749
REMARK  11 active torsions:
REMARK  status: ('A' for Active; 'I' for Inactive)
REMARK    1  A    between atoms: N_19  and  N_20
REMARK    2  A    between atoms: C_21  and  C_22
REMARK    3  A    between atoms: C_22  and  C_24
REMARK    4  A    between atoms: C_22  and  O_35
REMARK    5  A    between atoms: C_24  and  C_26
REMARK    6  A    between atoms: C_24  and  O_34
REMARK    7  A    between atoms: C_26  and  C_28
REMARK    8  A    between atoms: C_26  and  O_33
REMARK    9  A    between atoms: C_28  and  C_30
REMARK   10  A    between atoms: C_28  and  O_32
REMARK   11  A    between atoms: C_30  and  O_31
REMARK                            x       y       z     vdW  Elec       q    Type
REMARK                         _______ _______ _______ _____ _____    ______ ____
ROOT
ATOM      1  C   UNL     1       3.849  -2.246   9.684  0.00  0.00    +0.003 C 
ATOM      2  C   UNL     1       4.584  -2.543   8.374  0.00  0.00    +0.019 C 
ATOM      3  C   UNL     1       3.787  -1.962   7.204  0.00  0.00    +0.108 C 
ATOM      4  N   UNL     1       2.446  -2.560   7.179  0.00  0.00    -0.299 N 
ATOM      5  C   UNL     1       1.703  -2.248   8.407  0.00  0.00    +0.108 C 
ATOM      6  C   UNL     1       2.438  -2.837   9.613  0.00  0.00    +0.019 C 
ATOM      7  C   UNL     1       1.745  -2.156   6.061  0.00  0.00    +0.224 A 
ATOM      8  N   UNL     1       2.309  -1.331   5.185  0.00  0.00    -0.180 NA
ATOM      9  C   UNL     1       1.634  -0.942   4.108  0.00  0.00    +0.241 A 
ATOM     10  N   UNL     1       0.392  -1.374   3.910  0.00  0.00    -0.180 NA
ATOM     11  C   UNL     1      -0.170  -2.204   4.783  0.00  0.00    +0.224 A 
ATOM     12  N   UNL     1       0.505  -2.593   5.860  0.00  0.00    -0.181 NA
ATOM     13  N   UNL     1      -1.457  -2.657   4.574  0.00  0.00    -0.299 N 
ATOM     14  C   UNL     1      -1.504  -4.125   4.573  0.00  0.00    +0.108 C 
ATOM     15  C   UNL     1      -2.960  -4.589   4.486  0.00  0.00    +0.019 C 
ATOM     16  C   UNL     1      -3.590  -4.039   3.204  0.00  0.00    +0.003 C 
ATOM     17  C   UNL     1      -3.484  -2.511   3.208  0.00  0.00    +0.019 C 
ATOM     18  C   UNL     1      -2.014  -2.107   3.332  0.00  0.00    +0.108 C 
ATOM     19  N   UNL     1       2.220  -0.084   3.198  0.00  0.00    -0.205 N 
ATOM     20  H   UNL     1       3.125   0.234   3.344  0.00  0.00    +0.177 HD
ENDROOT
BRANCH  19  21
ATOM     21  N   UNL     1       1.509   0.326   2.063  0.00  0.00    -0.190 NA
ATOM     22  C   UNL     1       2.052   1.121   1.219  0.00  0.00    +0.137 C 
BRANCH  22  23
ATOM     23  C   UNL     1       1.286   1.562  -0.002  0.00  0.00    +0.188 C 
BRANCH  23  24
ATOM     24  O   UNL     1      -0.011   0.963   0.007  0.00  0.00    -0.384 OA
ATOM     25  H   UNL     1       0.002  -0.004   0.002  0.00  0.00    +0.210 HD
ENDBRANCH  23  24
BRANCH  23  26
ATOM     26  C   UNL     1       2.040   1.127  -1.261  0.00  0.00    +0.179 C 
BRANCH  26  27
ATOM     27  O   UNL     1       3.337   1.726  -1.270  0.00  0.00    -0.386 OA
ATOM     28  H   UNL     1       3.324   2.693  -1.264  0.00  0.00    +0.210 HD
ENDBRANCH  26  27
BRANCH  26  29
ATOM     29  C   UNL     1       1.262   1.575  -2.500  0.00  0.00    +0.176 C 
BRANCH  29  30
ATOM     30  O   UNL     1       1.029   2.983  -2.433  0.00  0.00    -0.386 OA
ATOM     31  H   UNL     1       1.837   3.514  -2.395  0.00  0.00    +0.210 HD
ENDBRANCH  29  30
BRANCH  29  32
ATOM     32  C   UNL     1       2.075   1.252  -3.756  0.00  0.00    +0.171 C 
BRANCH  32  33
ATOM     33  O   UNL     1       2.308  -0.156  -3.823  0.00  0.00    -0.387 OA
ATOM     34  H   UNL     1       1.501  -0.687  -3.861  0.00  0.00    +0.210 HD
ENDBRANCH  32  33
BRANCH  32  35
ATOM     35  C   UNL     1       1.298   1.700  -4.995  0.00  0.00    +0.189 C 
BRANCH  35  36
ATOM     36  O   UNL     1       2.104   1.505  -6.159  0.00  0.00    -0.392 OA
ATOM     37  H   UNL     1       1.673   1.768  -6.984  0.00  0.00    +0.210 HD
ENDBRANCH  35  36
ENDBRANCH  32  35
ENDBRANCH  29  32
ENDBRANCH  26  29
ENDBRANCH  23  26
ENDBRANCH  22  23
ENDBRANCH  19  21
TORSDOF 11
