REMARK  Name = ZINC59472731
REMARK  9 active torsions:
REMARK  status: ('A' for Active; 'I' for Inactive)
REMARK    1  A    between atoms: C_1  and  C_2
REMARK    2  A    between atoms: C_3  and  C_24
REMARK    3  A    between atoms: C_5  and  N_10
REMARK    4  A    between atoms: C_6  and  C_7
REMARK    5  A    between atoms: N_10  and  S_11
REMARK    6  A    between atoms: S_11  and  C_14
REMARK    7  A    between atoms: C_17  and  N_20
REMARK    8  A    between atoms: C_21  and  C_23
REMARK    9  A    between atoms: C_24  and  C_25
REMARK                            x       y       z     vdW  Elec       q    Type
REMARK                         _______ _______ _______ _____ _____    ______ ____
ROOT
ATOM      1  C   UNL     1       0.656   1.445  -0.051  0.00  0.00    +0.045 C 
ATOM      2  C   UNL     1       0.485  -0.053  -0.046  0.00  0.00    -0.026 A 
ATOM      3  C   UNL     1       0.315  -0.756  -1.180  0.00  0.00    -0.000 A 
ATOM      4  S   UNL     1       0.170  -2.433  -0.605  0.00  0.00    -0.074 S 
ATOM      5  C   UNL     1       0.328  -2.195   1.048  0.00  0.00    +0.124 A 
ATOM      6  C   UNL     1       0.500  -0.823   1.178  0.00  0.00    +0.071 A 
ENDROOT
BRANCH   6   7
ATOM      7  C   UNL     1       0.682  -0.189   2.485  0.00  0.00    +0.244 C 
ATOM      8  O   UNL     1      -0.286   0.194   3.116  0.00  0.00    -0.270 OA
ATOM      9  N   UNL     1       1.922  -0.029   2.990  0.00  0.00    -0.325 N 
ATOM     10  H   UNL     1       2.693  -0.334   2.487  0.00  0.00    +0.145 HD
ATOM     11  H   UNL     1       2.043   0.391   3.856  0.00  0.00    +0.145 HD
ENDBRANCH   6   7
BRANCH   5  12
ATOM     12  N   UNL     1       0.299  -3.146   2.051  0.00  0.00    -0.090 NA
BRANCH  12  13
ATOM     13  S   UNL     1       0.086  -4.743   1.670  0.00  0.00    +0.092 S 
ATOM     14  O   UNL     1      -1.227  -4.864   1.140  0.00  0.00    -0.148 OA
ATOM     15  O   UNL     1       1.240  -5.145   0.945  0.00  0.00    -0.148 OA
BRANCH  13  16
ATOM     16  C   UNL     1       0.103  -5.646   3.184  0.00  0.00    +0.110 A 
ATOM     17  C   UNL     1       1.297  -6.130   3.685  0.00  0.00    +0.031 A 
ATOM     18  C   UNL     1       1.314  -6.838   4.871  0.00  0.00    +0.025 A 
ATOM     19  C   UNL     1       0.129  -7.062   5.560  0.00  0.00    +0.033 A 
ATOM     20  C   UNL     1      -1.069  -6.575   5.054  0.00  0.00    +0.025 A 
ATOM     21  C   UNL     1      -1.078  -5.864   3.870  0.00  0.00    +0.031 A 
BRANCH  19  22
ATOM     22  N   UNL     1       0.142  -7.780   6.762  0.00  0.00    -0.286 N 
ATOM     23  C   UNL     1       1.201  -7.686   7.591  0.00  0.00    +0.214 C 
ATOM     24  O   UNL     1       2.098  -6.909   7.343  0.00  0.00    -0.276 OA
ATOM     25  C   UNL     1       1.269  -8.547   8.825  0.00  0.00    +0.109 C 
ATOM     26  H   UNL     1      -0.610  -8.344   6.998  0.00  0.00    +0.155 HD
ENDBRANCH  19  22
ENDBRANCH  13  16
ENDBRANCH  12  13
ENDBRANCH   5  12
BRANCH   3  27
ATOM     27  C   UNL     1       0.260  -0.245  -2.597  0.00  0.00    +0.077 C 
BRANCH  27  28
ATOM     28  C   UNL     1       1.649  -0.235  -3.181  0.00  0.00    -0.043 A 
ATOM     29  C   UNL     1       2.447   0.885  -3.047  0.00  0.00    +0.004 A 
ATOM     30  C   UNL     1       3.721   0.895  -3.583  0.00  0.00    +0.000 A 
ATOM     31  C   UNL     1       4.198  -0.217  -4.253  0.00  0.00    +0.000 A 
ATOM     32  C   UNL     1       3.400  -1.338  -4.385  0.00  0.00    +0.000 A 
ATOM     33  C   UNL     1       2.128  -1.349  -3.846  0.00  0.00    +0.004 A 
ENDBRANCH  27  28
ENDBRANCH   3  27
TORSDOF 7
