REMARK  Name = ZINC21724612
REMARK  6 active torsions:
REMARK  status: ('A' for Active; 'I' for Inactive)
REMARK    1  A    between atoms: C_1  and  C_2
REMARK    2  A    between atoms: C_5  and  C_8
REMARK    3  A    between atoms: C_10  and  C_13
REMARK    4  A    between atoms: C_13  and  N_14
REMARK    5  A    between atoms: C_18  and  C_21
REMARK    6  A    between atoms: N_23  and  C_24
REMARK                            x       y       z     vdW  Elec       q    Type
REMARK                         _______ _______ _______ _____ _____    ______ ____
ROOT
ATOM      1  N   UNL     1       8.507  -0.413  -0.481  0.00  0.00    +0.385 N 
ATOM      2  C   UNL     1       8.755  -1.233   0.712  0.00  0.00    -0.078 C 
ATOM      3  C   UNL     1       7.653  -2.286   0.847  0.00  0.00    -0.018 C 
ATOM      4  C   UNL     1       6.295  -1.586   0.958  0.00  0.00    +0.009 C 
ATOM      5  C   UNL     1       6.083  -0.702  -0.274  0.00  0.00    +0.059 C 
ATOM      6  C   UNL     1       7.231   0.306  -0.376  0.00  0.00    -0.066 C 
ATOM      7  H   UNL     1       8.440  -1.091  -1.345  0.00  0.00    -0.081 HD
ENDROOT
BRANCH   5   8
ATOM      8  C   UNL     1       4.776   0.037  -0.144  0.00  0.00    +0.218 C 
ATOM      9  O   UNL     1       4.762   1.249  -0.139  0.00  0.00    -0.275 OA
ATOM     10  N   UNL     1       3.622  -0.651  -0.035  0.00  0.00    -0.285 N 
ATOM     11  H   UNL     1       3.641  -1.748   0.046  0.00  0.00    +0.155 HD
BRANCH  10  12
ATOM     12  C   UNL     1       2.399   0.031  -0.026  0.00  0.00    +0.033 A 
ATOM     13  C   UNL     1       2.246   1.194  -0.769  0.00  0.00    +0.025 A 
ATOM     14  C   UNL     1       1.039   1.865  -0.758  0.00  0.00    +0.022 A 
ATOM     15  C   UNL     1      -0.018   1.378  -0.009  0.00  0.00    +0.041 A 
ATOM     16  C   UNL     1       0.132   0.219   0.732  0.00  0.00    +0.022 A 
ATOM     17  C   UNL     1       1.338  -0.456   0.725  0.00  0.00    +0.025 A 
ATOM     18 CL   UNL     1      -1.532   2.227   0.008  0.00  0.00    -0.084 Cl
ENDBRANCH  10  12
ENDBRANCH   5   8
BRANCH   1  19
ATOM     19  C   UNL     1       9.618   0.518  -0.720  0.00  0.00    +0.002 C 
BRANCH  19  22
ATOM     20  C   UNL     1      12.683  -1.335  -0.946  0.00  0.00    +0.258 A 
ATOM     21  N   UNL     1      11.781  -0.714  -0.207  0.00  0.00    -0.194 NA
ATOM     22  C   UNL     1      10.860  -0.260  -1.071  0.00  0.00    +0.156 A 
ATOM     23  N   UNL     1      11.235  -0.610  -2.266  0.00  0.00    -0.063 NA
ATOM     24  O   UNL     1      12.277  -1.227  -2.220  0.00  0.00    -0.333 OA
BRANCH  20  29
ATOM     25  C   UNL     1      17.437  -3.976   0.935  0.00  0.00    +0.044 C 
ATOM     26  C   UNL     1      16.192  -3.284   0.442  0.00  0.00    -0.050 A 
ATOM     27  C   UNL     1      15.909  -3.258  -0.912  0.00  0.00    +0.004 A 
ATOM     28  C   UNL     1      14.771  -2.626  -1.369  0.00  0.00    +0.013 A 
ATOM     29  C   UNL     1      13.904  -2.014  -0.463  0.00  0.00    +0.039 A 
ATOM     30  C   UNL     1      14.199  -2.040   0.901  0.00  0.00    +0.013 A 
ATOM     31  C   UNL     1      15.338  -2.679   1.346  0.00  0.00    +0.004 A 
ENDBRANCH  20  29
ENDBRANCH  19  22
ENDBRANCH   1  19
TORSDOF 5
