REMARK  Name = ZINC00719742
REMARK  8 active torsions:
REMARK  status: ('A' for Active; 'I' for Inactive)
REMARK    1  A    between atoms: C_1  and  N_2
REMARK    2  A    between atoms: N_7  and  C_10
REMARK    3  A    between atoms: N_11  and  C_30
REMARK    4  A    between atoms: C_12  and  O_14
REMARK    5  A    between atoms: O_14  and  C_15
REMARK    6  A    between atoms: C_18  and  O_21
REMARK    7  A    between atoms: O_21  and  C_22
REMARK    8  A    between atoms: C_30  and  C_31
REMARK                            x       y       z     vdW  Elec       q    Type
REMARK                         _______ _______ _______ _____ _____    ______ ____
ROOT
ATOM      1  C   UNL     1      -0.009   1.442   0.338  0.00  0.00    +0.155 C 
ATOM      2  N   UNL     1       0.007  -0.022   0.283  0.00  0.00    -0.279 N 
ATOM      3  C   UNL     1      -1.185  -0.724   0.198  0.00  0.00    +0.172 A 
ATOM      4  C   UNL     1      -1.142  -2.113   0.147  0.00  0.00    +0.155 A 
ATOM      5  C   UNL     1       0.105  -2.764   0.184  0.00  0.00    +0.282 A 
ATOM      6  O   UNL     1       0.167  -3.980   0.140  0.00  0.00    -0.265 OA
ATOM      7  N   UNL     1       1.232  -2.026   0.267  0.00  0.00    -0.262 N 
ATOM      8  C   UNL     1       1.179  -0.683   0.310  0.00  0.00    +0.333 A 
ATOM      9  O   UNL     1       2.215  -0.051   0.380  0.00  0.00    -0.246 OA
ATOM     10  C   UNL     1       2.533  -2.698   0.305  0.00  0.00    +0.157 C 
ATOM     11  N   UNL     1      -2.459  -2.540   0.067  0.00  0.00    -0.283 N 
ATOM     12  C   UNL     1      -3.232  -1.431   0.071  0.00  0.00    +0.306 A 
ATOM     13  N   UNL     1      -2.468  -0.362   0.149  0.00  0.00    -0.176 NA
ENDROOT
BRANCH  12  14
ATOM     14  O   UNL     1      -4.582  -1.421   0.006  0.00  0.00    -0.425 OA
BRANCH  14  15
ATOM     15  C   UNL     1      -5.218  -0.225   0.123  0.00  0.00    +0.132 A 
ATOM     16  C   UNL     1      -5.243   0.655  -0.949  0.00  0.00    +0.050 A 
ATOM     17  C   UNL     1      -5.889   1.870  -0.830  0.00  0.00    +0.050 A 
ATOM     18  C   UNL     1      -6.514   2.210   0.361  0.00  0.00    +0.131 A 
ATOM     19  C   UNL     1      -6.489   1.329   1.433  0.00  0.00    +0.050 A 
ATOM     20  C   UNL     1      -5.847   0.112   1.312  0.00  0.00    +0.050 A 
BRANCH  18  21
ATOM     21  O   UNL     1      -7.150   3.405   0.479  0.00  0.00    -0.437 OA
BRANCH  21  22
ATOM     22  C   UNL     1      -8.370   3.538  -0.100  0.00  0.00    +0.239 A 
ATOM     23  C   UNL     1      -9.093   4.712   0.078  0.00  0.00    +0.104 A 
ATOM     24  C   UNL     1     -10.337   4.833  -0.518  0.00  0.00    +0.047 A 
ATOM     25  C   UNL     1     -10.816   3.771  -1.275  0.00  0.00    +0.061 A 
ATOM     26  C   UNL     1     -10.042   2.635  -1.409  0.00  0.00    +0.134 A 
ATOM     27  N   UNL     1      -8.858   2.550  -0.833  0.00  0.00    -0.218 NA
ATOM     28 CL   UNL     1     -12.369   3.871  -2.043  0.00  0.00    -0.082 Cl
ATOM     29 CL   UNL     1      -8.446   6.007   1.035  0.00  0.00    -0.078 Cl
ENDBRANCH  21  22
ENDBRANCH  18  21
ENDBRANCH  14  15
ENDBRANCH  12  14
BRANCH  11  30
ATOM     30  C   UNL     1      -2.923  -3.928  -0.009  0.00  0.00    +0.162 C 
BRANCH  30  31
ATOM     31  C   UNL     1      -3.151  -4.458   1.383  0.00  0.00    -0.025 A 
ATOM     32  C   UNL     1      -2.120  -5.078   2.064  0.00  0.00    +0.005 A 
ATOM     33  C   UNL     1      -2.328  -5.565   3.341  0.00  0.00    +0.003 A 
ATOM     34  C   UNL     1      -3.567  -5.432   3.938  0.00  0.00    +0.038 A 
ATOM     35  C   UNL     1      -4.601  -4.812   3.257  0.00  0.00    +0.124 A 
ATOM     36  C   UNL     1      -4.390  -4.319   1.980  0.00  0.00    +0.043 A 
ATOM     37  F   UNL     1      -5.813  -4.682   3.840  0.00  0.00    -0.205 F 
ENDBRANCH  30  31
ENDBRANCH  11  30
TORSDOF 6
