REMARK  Name = ZINC23038459
REMARK  10 active torsions:
REMARK  status: ('A' for Active; 'I' for Inactive)
REMARK    1  A    between atoms: C_1  and  N_2
REMARK    2  A    between atoms: N_2  and  C_3
REMARK    3  A    between atoms: N_2  and  C_19
REMARK    4  A    between atoms: C_3  and  C_4
REMARK    5  A    between atoms: N_6  and  C_7
REMARK    6  A    between atoms: C_7  and  C_8
REMARK    7  A    between atoms: N_10  and  C_11
REMARK    8  A    between atoms: C_19  and  C_20
REMARK    9  A    between atoms: N_22  and  C_23
REMARK   10  A    between atoms: C_27  and  C_29
REMARK                            x       y       z     vdW  Elec       q    Type
REMARK                         _______ _______ _______ _____ _____    ______ ____
ROOT
ATOM      1  C   UNL     1       2.431   1.787  -1.131  0.00  0.00    -0.095 C 
ATOM      2  N   UNL     1       2.572   2.513   0.138  0.00  0.00    +0.389 N 
ATOM      3  H   UNL     1       2.292   1.829   0.952  0.00  0.00    -0.081 HD
ENDROOT
BRANCH   2   4
ATOM      4  C   UNL     1       3.965   2.928   0.356  0.00  0.00    +0.019 C 
BRANCH   4   5
ATOM      5  C   UNL     1       4.829   1.708   0.543  0.00  0.00    +0.197 C 
ATOM      6  O   UNL     1       4.333   0.602   0.499  0.00  0.00    -0.278 OA
ATOM      7  N   UNL     1       6.152   1.846   0.759  0.00  0.00    -0.308 N 
ATOM      8  H   UNL     1       6.601   2.849   0.798  0.00  0.00    +0.149 HD
BRANCH   7   9
ATOM      9  C   UNL     1       6.992   0.659   0.941  0.00  0.00    +0.200 C 
BRANCH   9  10
ATOM     10  C   UNL     1       8.421   1.085   1.164  0.00  0.00    +0.234 C 
ATOM     11  O   UNL     1       8.708   2.263   1.170  0.00  0.00    -0.274 OA
ATOM     12  N   UNL     1       9.378   0.156   1.356  0.00  0.00    -0.284 N 
ATOM     13  H   UNL     1       9.134  -0.912   1.264  0.00  0.00    +0.155 HD
BRANCH  12  14
ATOM     14  C   UNL     1      10.683   0.552   1.674  0.00  0.00    +0.036 A 
ATOM     15  C   UNL     1      11.765  -0.180   1.203  0.00  0.00    +0.026 A 
ATOM     16  C   UNL     1      13.053   0.214   1.512  0.00  0.00    +0.043 A 
ATOM     17  C   UNL     1      13.265   1.331   2.302  0.00  0.00    +0.159 A 
ATOM     18  C   UNL     1      12.186   2.061   2.779  0.00  0.00    +0.160 A 
ATOM     19  C   UNL     1      10.896   1.672   2.466  0.00  0.00    +0.064 A 
ATOM     20  F   UNL     1      12.395   3.151   3.549  0.00  0.00    -0.202 F 
ATOM     21  F   UNL     1      14.525   1.712   2.607  0.00  0.00    -0.202 F 
ENDBRANCH  12  14
ENDBRANCH   9  10
ENDBRANCH   7   9
ENDBRANCH   4   5
ENDBRANCH   2   4
BRANCH   2  22
ATOM     22  C   UNL     1       1.665   3.668   0.188  0.00  0.00    +0.019 C 
BRANCH  22  23
ATOM     23  C   UNL     1       0.238   3.185   0.207  0.00  0.00    +0.201 C 
ATOM     24  O   UNL     1      -0.000   1.996   0.183  0.00  0.00    -0.278 OA
ATOM     25  N   UNL     1      -0.774   4.074   0.247  0.00  0.00    -0.287 N 
ATOM     26  H   UNL     1      -0.559   5.147   0.358  0.00  0.00    +0.155 HD
BRANCH  25  27
ATOM     27  C   UNL     1      -2.099   3.632   0.147  0.00  0.00    +0.034 A 
ATOM     28  C   UNL     1      -2.411   2.548  -0.663  0.00  0.00    +0.025 A 
ATOM     29  C   UNL     1      -3.717   2.111  -0.756  0.00  0.00    +0.022 A 
ATOM     30  C   UNL     1      -4.717   2.759  -0.051  0.00  0.00    +0.053 A 
ATOM     31  C   UNL     1      -4.409   3.843   0.752  0.00  0.00    +0.075 A 
ATOM     32  C   UNL     1      -3.103   4.280   0.853  0.00  0.00    +0.037 A 
ATOM     33 CL   UNL     1      -6.360   2.212  -0.176  0.00  0.00    -0.083 Cl
BRANCH  31  34
ATOM     34  C   UNL     1      -5.500   4.546   1.519  0.00  0.00    +0.419 C 
ATOM     35  F   UNL     1      -4.948   5.600   2.254  0.00  0.00    -0.166 F 
ATOM     36  F   UNL     1      -6.450   5.048   0.623  0.00  0.00    -0.166 F 
ATOM     37  F   UNL     1      -6.114   3.641   2.391  0.00  0.00    -0.166 F 
ENDBRANCH  31  34
ENDBRANCH  25  27
ENDBRANCH  22  23
ENDBRANCH   2  22
TORSDOF 9
