REMARK  Name = ZINC39955147
REMARK  5 active torsions:
REMARK  status: ('A' for Active; 'I' for Inactive)
REMARK    1  A    between atoms: C_1  and  C_2
REMARK    2  A    between atoms: C_5  and  C_9
REMARK    3  A    between atoms: C_10  and  C_22
REMARK    4  A    between atoms: C_11  and  N_21
REMARK    5  A    between atoms: N_12  and  C_14
REMARK                            x       y       z     vdW  Elec       q    Type
REMARK                         _______ _______ _______ _____ _____    ______ ____
ROOT
ATOM      1  C   UNL     1       0.085  -4.255  -0.016  0.00  0.00    +0.114 A 
ATOM      2  C   UNL     1       0.174  -5.140   1.150  0.00  0.00    +0.119 A 
ATOM      3  C   UNL     1       0.126  -6.441   0.658  0.00  0.00    +0.138 A 
ATOM      4  N   UNL     1       0.016  -6.361  -0.692  0.00  0.00    -0.216 N 
ATOM      5  N   UNL     1      -0.012  -5.019  -1.080  0.00  0.00    -0.163 NA
ENDROOT
BRANCH   1  10
ATOM      6  C   UNL     1       0.129   1.503   0.056  0.00  0.00    +0.044 C 
ATOM      7  C   UNL     1       0.117  -0.004   0.036  0.00  0.00    -0.049 A 
ATOM      8  C   UNL     1       1.059  -0.710   0.763  0.00  0.00    +0.004 A 
ATOM      9  C   UNL     1       1.054  -2.089   0.750  0.00  0.00    +0.012 A 
ATOM     10  C   UNL     1       0.096  -2.773   0.002  0.00  0.00    +0.022 A 
ATOM     11  C   UNL     1      -0.852  -2.056  -0.728  0.00  0.00    +0.050 A 
ATOM     12  C   UNL     1      -0.839  -0.675  -0.703  0.00  0.00    +0.024 A 
ATOM     13 CL   UNL     1      -2.049  -2.898  -1.663  0.00  0.00    -0.083 Cl
ENDBRANCH   1  10
BRANCH   4  14
ATOM     14  C   UNL     1      -0.062  -7.456  -1.562  0.00  0.00    +0.081 A 
ATOM     15  C   UNL     1      -0.958  -8.486  -1.307  0.00  0.00    +0.029 A 
ATOM     16  C   UNL     1      -1.032  -9.564  -2.167  0.00  0.00    +0.002 A 
ATOM     17  C   UNL     1      -0.215  -9.619  -3.282  0.00  0.00    +0.001 A 
ATOM     18  C   UNL     1       0.678  -8.596  -3.539  0.00  0.00    +0.017 A 
ATOM     19  C   UNL     1       0.753  -7.511  -2.686  0.00  0.00    +0.043 A 
ATOM     20 BR   UNL     1       1.970  -6.108  -3.043  0.00  0.00    -0.048 Br
ENDBRANCH   4  14
BRANCH   3  21
ATOM     21  N   UNL     1       0.179  -7.600   1.407  0.00  0.00    -0.342 N 
ATOM     22  H   UNL     1       0.175  -7.553   2.376  0.00  0.00    +0.144 HD
ATOM     23  H   UNL     1       0.222  -8.462   0.964  0.00  0.00    +0.144 HD
ENDBRANCH   3  21
BRANCH   2  24
ATOM     24  C   UNL     1       0.289  -4.744   2.522  0.00  0.00    +0.105 C 
ATOM     25  N   UNL     1       0.381  -4.431   3.610  0.00  0.00    -0.191 NA
ENDBRANCH   2  24
TORSDOF 4
