REMARK  Name = ZINC67421883
REMARK  14 active torsions:
REMARK  status: ('A' for Active; 'I' for Inactive)
REMARK    1  A    between atoms: C_1  and  C_2
REMARK    2  A    between atoms: C_2  and  C_3
REMARK    3  A    between atoms: C_3  and  C_5
REMARK    4  A    between atoms: C_3  and  N_6
REMARK    5  A    between atoms: N_6  and  C_7
REMARK    6  A    between atoms: N_6  and  C_8
REMARK    7  A    between atoms: C_8  and  C_9
REMARK    8  A    between atoms: C_9  and  N_10
REMARK    9  A    between atoms: N_13  and  C_14
REMARK   10  A    between atoms: C_14  and  C_16
REMARK   11  A    between atoms: C_14  and  C_17
REMARK   12  A    between atoms: C_21  and  S_23
REMARK   13  A    between atoms: S_23  and  N_26
REMARK   14  A    between atoms: N_26  and  C_27
REMARK                            x       y       z     vdW  Elec       q    Type
REMARK                         _______ _______ _______ _____ _____    ______ ____
ROOT
ATOM      1  N   UNL     1       4.190   2.995   1.250  0.00  0.00    -0.301 N 
ATOM      2  C   UNL     1       5.433   3.508   1.159  0.00  0.00    +0.300 C 
ATOM      3  O   UNL     1       6.383   2.771   0.982  0.00  0.00    -0.253 OA
ATOM      4  N   UNL     1       5.621   4.839   1.263  0.00  0.00    -0.293 N 
ATOM      5  H   UNL     1       3.431   3.583   1.391  0.00  0.00    +0.150 HD
ATOM      6  H   UNL     1       4.863   5.426   1.404  0.00  0.00    +0.151 HD
ENDROOT
BRANCH   4   7
ATOM      7  C   UNL     1       6.972   5.397   1.164  0.00  0.00    +0.102 C 
ATOM      8  C   UNL     1       7.329   5.610  -0.308  0.00  0.00    +0.033 C 
BRANCH   7   9
ATOM      9  C   UNL     1       7.025   6.716   1.890  0.00  0.00    -0.026 A 
ATOM     10  C   UNL     1       5.963   7.597   1.801  0.00  0.00    +0.005 A 
ATOM     11  C   UNL     1       6.011   8.807   2.466  0.00  0.00    +0.002 A 
ATOM     12  C   UNL     1       7.121   9.137   3.222  0.00  0.00    +0.028 A 
ATOM     13  C   UNL     1       8.183   8.257   3.311  0.00  0.00    +0.106 A 
ATOM     14  C   UNL     1       8.133   7.044   2.649  0.00  0.00    +0.034 A 
BRANCH  13  15
ATOM     15  S   UNL     1       9.598   8.677   4.273  0.00  0.00    +0.058 S 
ATOM     16  O   UNL     1      10.682   7.920   3.753  0.00  0.00    -0.153 OA
ATOM     17  O   UNL     1       9.628  10.096   4.352  0.00  0.00    -0.153 OA
BRANCH  15  18
ATOM     18  N   UNL     1       9.327   8.124   5.810  0.00  0.00    -0.193 NA
ATOM     19  C   UNL     1       9.216   6.685   6.061  0.00  0.00    +0.127 C 
ATOM     20  H   UNL     1       9.242   8.752   6.544  0.00  0.00    +0.148 HD
ENDBRANCH  15  18
ENDBRANCH  13  15
ENDBRANCH   7   9
ENDBRANCH   4   7
BRANCH   1  21
ATOM     21  C   UNL     1       3.985   1.549   1.136  0.00  0.00    +0.087 C 
BRANCH  21  22
ATOM     22  C   UNL     1       2.494   1.233   1.274  0.00  0.00    -0.060 C 
BRANCH  22  23
ATOM     23  N   UNL     1       2.288  -0.217   1.160  0.00  0.00    +0.381 N 
ATOM     24  C   UNL     1       2.948  -0.895   2.284  0.00  0.00    -0.096 C 
ATOM     25  H   UNL     1       2.682  -0.546   0.291  0.00  0.00    -0.082 HD
BRANCH  23  26
ATOM     26  C   UNL     1       0.849  -0.511   1.188  0.00  0.00    -0.072 C 
ATOM     27  C   UNL     1       0.279  -0.142   2.559  0.00  0.00    -0.013 C 
BRANCH  26  29
ATOM     28  C   UNL     1       1.126  -2.356  -0.474  0.00  0.00    +0.002 C 
ATOM     29  C   UNL     1       0.628  -2.003   0.928  0.00  0.00    -0.019 C 
ENDBRANCH  26  29
ENDBRANCH  23  26
ENDBRANCH  22  23
ENDBRANCH  21  22
ENDBRANCH   1  21
TORSDOF 9
