REMARK  Name = ZINC08453883
REMARK  7 active torsions:
REMARK  status: ('A' for Active; 'I' for Inactive)
REMARK    1  A    between atoms: C_4  and  O_20
REMARK    2  A    between atoms: O_20  and  C_21
REMARK    3  A    between atoms: C_21  and  C_22
REMARK    4  A    between atoms: C_22  and  C_24
REMARK    5  A    between atoms: C_22  and  O_31
REMARK    6  A    between atoms: C_24  and  N_61
REMARK    7  A    between atoms: C_25  and  N_61
REMARK                            x       y       z     vdW  Elec       q    Type
REMARK                         _______ _______ _______ _____ _____    ______ ____
ROOT
ATOM      1  C   UNL     1      -2.944   4.172  -5.236  0.00  0.00    +0.011 A 
ATOM      2  C   UNL     1      -3.702   4.343  -6.366  0.00  0.00    +0.019 A 
ATOM      3  C   UNL     1      -4.378   3.281  -6.947  0.00  0.00    +0.061 A 
ATOM      4  C   UNL     1      -4.287   2.021  -6.374  0.00  0.00    +0.149 A 
ATOM      5  C   UNL     1      -3.525   1.843  -5.233  0.00  0.00    +0.065 A 
ATOM      6  C   UNL     1      -2.831   2.901  -4.627  0.00  0.00    +0.007 A 
ATOM      7  C   UNL     1      -2.061   2.553  -3.417  0.00  0.00    +0.080 A 
ATOM      8  C   UNL     1      -2.114   1.215  -3.016  0.00  0.00    +0.117 A 
ATOM      9  S   UNL     1      -3.160   0.434  -4.218  0.00  0.00    -0.065 S 
ATOM     10  N   UNL     1      -1.463   0.777  -1.939  0.00  0.00    -0.226 NA
ATOM     11  C   UNL     1      -0.747   1.588  -1.212  0.00  0.00    +0.114 A 
ATOM     12  N   UNL     1      -0.640   2.910  -1.530  0.00  0.00    -0.296 N 
ATOM     13  C   UNL     1      -1.267   3.419  -2.603  0.00  0.00    +0.263 A 
ATOM     14  O   UNL     1      -1.161   4.602  -2.878  0.00  0.00    -0.267 OA
ATOM     15  C   UNL     1       0.183   3.767  -0.666  0.00  0.00    +0.126 C 
ATOM     16  C   UNL     1      -0.559   4.019   0.644  0.00  0.00    +0.022 C 
ATOM     17  C   UNL     1      -0.232   2.953   1.674  0.00  0.00    +0.002 C 
ATOM     18  C   UNL     1      -0.732   1.581   1.262  0.00  0.00    +0.008 C 
ATOM     19  C   UNL     1      -0.013   1.086   0.008  0.00  0.00    +0.074 C 
ATOM     20 BR   UNL     1      -5.415   3.547  -8.505  0.00  0.00    -0.046 Br
ENDROOT
BRANCH   4  21
ATOM     21  O   UNL     1      -4.943   0.968  -6.930  0.00  0.00    -0.487 OA
BRANCH  21  22
ATOM     22  C   UNL     1      -4.237   0.211  -7.915  0.00  0.00    +0.258 C 
BRANCH  22  23
ATOM     23  C   UNL     1      -5.128  -0.924  -8.422  0.00  0.00    +0.135 C 
BRANCH  23  24
ATOM     24  O   UNL     1      -5.386  -1.840  -7.355  0.00  0.00    -0.390 OA
ATOM     25  H   UNL     1      -4.591  -2.246  -6.984  0.00  0.00    +0.210 HD
ENDBRANCH  23  24
BRANCH  23  26
ATOM     26  C   UNL     1      -4.421  -1.657  -9.563  0.00  0.00    -0.047 C 
BRANCH  26  27
ATOM     27  N   UNL     1      -5.334  -2.671 -10.126  0.00  0.00    +0.383 N 
ATOM     28  H   UNL     1      -6.178  -2.207 -10.480  0.00  0.00    -0.085 HD
ATOM     29  H   UNL     1      -5.593  -3.338  -9.390  0.00  0.00    -0.085 HD
BRANCH  27  30
ATOM     30  C   UNL     1      -4.677  -3.394 -11.231  0.00  0.00    -0.072 C 
ATOM     31  C   UNL     1      -4.850  -2.607 -12.531  0.00  0.00    -0.016 C 
ATOM     32  C   UNL     1      -4.176  -3.363 -13.678  0.00  0.00    -0.002 C 
ATOM     33  C   UNL     1      -4.820  -4.743 -13.828  0.00  0.00    -0.000 C 
ATOM     34  C   UNL     1      -4.647  -5.530 -12.527  0.00  0.00    -0.002 C 
ATOM     35  C   UNL     1      -5.321  -4.774 -11.380  0.00  0.00    -0.016 C 
ENDBRANCH  27  30
ENDBRANCH  26  27
ENDBRANCH  23  26
ENDBRANCH  22  23
ENDBRANCH  21  22
ENDBRANCH   4  21
TORSDOF 7
