REMARK  Name = ZINC25585479
REMARK  5 active torsions:
REMARK  status: ('A' for Active; 'I' for Inactive)
REMARK    1  A    between atoms: C_1  and  C_2
REMARK    2  A    between atoms: C_4  and  C_29
REMARK    3  A    between atoms: C_6  and  C_24
REMARK    4  A    between atoms: C_10  and  C_11
REMARK    5  A    between atoms: N_13  and  C_14
REMARK                            x       y       z     vdW  Elec       q    Type
REMARK                         _______ _______ _______ _____ _____    ______ ____
ROOT
ATOM      1  C   UNL     1      -3.801   7.577   0.320  0.00  0.00    +0.046 C 
ATOM      2  C   UNL     1      -2.417   8.171   0.283  0.00  0.00    -0.020 A 
ATOM      3  C   UNL     1      -2.250   9.558   0.161  0.00  0.00    +0.032 A 
ATOM      4  C   UNL     1      -3.236  10.574   0.058  0.00  0.00    +0.051 A 
ATOM      5  N   UNL     1      -2.864  11.827  -0.056  0.00  0.00    -0.229 NA
ATOM      6  C   UNL     1      -1.582  12.190  -0.080  0.00  0.00    +0.197 A 
ATOM      7  N   UNL     1      -0.610  11.286   0.013  0.00  0.00    -0.217 NA
ATOM      8  C   UNL     1      -0.903  10.012   0.129  0.00  0.00    +0.113 A 
ATOM      9  S   UNL     1       0.035   8.513   0.276  0.00  0.00    -0.064 S 
ATOM     10  C   UNL     1      -1.325   7.363   0.373  0.00  0.00    +0.080 A 
ATOM     11  C   UNL     1      -4.700  10.216   0.080  0.00  0.00    +0.066 C 
ENDROOT
BRANCH   6  12
ATOM     12  C   UNL     1      -1.235  13.616  -0.210  0.00  0.00    +0.172 A 
ATOM     13  C   UNL     1       0.025  14.133  -0.249  0.00  0.00    +0.053 A 
ATOM     14  C   UNL     1      -0.112  15.527  -0.380  0.00  0.00    +0.042 A 
ATOM     15  C   UNL     1      -1.434  15.793  -0.415  0.00  0.00    +0.196 A 
ATOM     16  O   UNL     1      -2.108  14.637  -0.319  0.00  0.00    -0.460 OA
ENDBRANCH   6  12
BRANCH  10  17
ATOM     17  C   UNL     1      -1.279   5.901   0.510  0.00  0.00    +0.255 C 
ATOM     18  O   UNL     1      -2.313   5.262   0.562  0.00  0.00    -0.269 OA
ATOM     19  N   UNL     1      -0.091   5.268   0.579  0.00  0.00    -0.279 N 
ATOM     20  H   UNL     1       0.842   5.850   0.601  0.00  0.00    +0.155 HD
BRANCH  19  21
ATOM     21  C   UNL     1      -0.045   3.871   0.623  0.00  0.00    +0.059 A 
ATOM     22  C   UNL     1      -1.038   3.162   1.274  0.00  0.00    +0.025 A 
ATOM     23  C   UNL     1      -1.002   1.775   1.315  0.00  0.00    +0.003 A 
ATOM     24  C   UNL     1       0.018   1.085   0.727  0.00  0.00    +0.011 A 
ATOM     25  C   UNL     1       1.038   1.778   0.061  0.00  0.00    +0.021 A 
ATOM     26  C   UNL     1       1.006   3.183   0.009  0.00  0.00    +0.087 A 
ATOM     27  N   UNL     1       2.115   3.575  -0.697  0.00  0.00    -0.275 N 
ATOM     28  H   UNL     1       2.306   4.645  -0.870  0.00  0.00    +0.189 HD
ATOM     29  N   UNL     1       2.820   2.426  -1.073  0.00  0.00    -0.181 NA
ATOM     30  C   UNL     1       2.201   1.368  -0.636  0.00  0.00    +0.142 A 
ENDBRANCH  19  21
ENDBRANCH  10  17
TORSDOF 3
