REMARK  Name = ZINC21704272
REMARK  7 active torsions:
REMARK  status: ('A' for Active; 'I' for Inactive)
REMARK    1  A    between atoms: C_1  and  C_2
REMARK    2  A    between atoms: C_4  and  C_32
REMARK    3  A    between atoms: C_6  and  N_8
REMARK    4  A    between atoms: C_9  and  C_11
REMARK    5  A    between atoms: C_19  and  C_31
REMARK    6  A    between atoms: C_22  and  N_27
REMARK    7  A    between atoms: C_28  and  C_30
REMARK                            x       y       z     vdW  Elec       q    Type
REMARK                         _______ _______ _______ _____ _____    ______ ____
ROOT
ATOM      1  C   UNL     1      -1.280   7.403  -0.321  0.00  0.00    +0.078 C 
ATOM      2  C   UNL     1      -0.437   8.028   0.795  0.00  0.00    +0.032 C 
ATOM      3  C   UNL     1      -0.526   9.553   0.701  0.00  0.00    +0.107 C 
ATOM      4  N   UNL     1      -1.927   9.972   0.828  0.00  0.00    -0.317 N 
ATOM      5  C   UNL     1      -2.747   9.423  -0.260  0.00  0.00    +0.107 C 
ATOM      6  C   UNL     1      -2.725   7.894  -0.194  0.00  0.00    +0.032 C 
ATOM      7  C   UNL     1      -2.030  11.355   0.877  0.00  0.00    +0.099 A 
ATOM      8  C   UNL     1      -1.319  12.060   1.860  0.00  0.00    +0.045 A 
ATOM      9  C   UNL     1      -1.405  13.418   1.917  0.00  0.00    -0.038 A 
ATOM     10  C   UNL     1      -2.229  14.075   0.980  0.00  0.00    +0.003 A 
ATOM     11  C   UNL     1      -2.368  15.471   0.988  0.00  0.00    +0.033 A 
ATOM     12  C   UNL     1      -3.182  16.078   0.056  0.00  0.00    +0.034 A 
ATOM     13  C   UNL     1      -3.869  15.313  -0.893  0.00  0.00    +0.025 A 
ATOM     14  C   UNL     1      -3.748  13.959  -0.920  0.00  0.00    +0.028 A 
ATOM     15  C   UNL     1      -2.926  13.307   0.016  0.00  0.00    +0.048 A 
ATOM     16  N   UNL     1      -2.797  11.975   0.005  0.00  0.00    -0.343 N 
ATOM     17  C   UNL     1      -0.646  14.198   2.959  0.00  0.00    +0.044 C 
ATOM     18  H   UNL     1      -3.347  11.396  -0.752  0.00  0.00    +0.167 HD
ENDROOT
BRANCH  12  19
ATOM     19  N   UNL     1      -3.325  17.470   0.060  0.00  0.00    -0.286 N 
ATOM     20  C   UNL     1      -3.290  18.148   1.225  0.00  0.00    +0.214 C 
ATOM     21  O   UNL     1      -3.229  17.545   2.276  0.00  0.00    -0.276 OA
ATOM     22  C   UNL     1      -3.327  19.654   1.221  0.00  0.00    +0.109 C 
ATOM     23  H   UNL     1      -3.464  18.011  -0.887  0.00  0.00    +0.155 HD
ENDBRANCH  12  19
BRANCH   1  25
ATOM     24  N   UNL     1      -0.071   5.246  -0.277  0.00  0.00    -0.285 N 
ATOM     25  C   UNL     1      -1.245   5.902  -0.197  0.00  0.00    +0.220 C 
ATOM     26  O   UNL     1      -2.275   5.284  -0.024  0.00  0.00    -0.275 OA
ATOM     27  H   UNL     1       0.871   5.810  -0.349  0.00  0.00    +0.155 HD
BRANCH  24  33
ATOM     28  C   UNL     1      -2.199   0.974  -1.456  0.00  0.00    +0.044 C 
ATOM     29  C   UNL     1      -1.067   1.750  -0.835  0.00  0.00    -0.048 A 
ATOM     30  C   UNL     1      -0.005   1.080  -0.257  0.00  0.00    +0.006 A 
ATOM     31  C   UNL     1       1.033   1.789   0.319  0.00  0.00    -0.048 A 
ATOM     32  C   UNL     1       1.017   3.170   0.310  0.00  0.00    +0.026 A 
ATOM     33  C   UNL     1      -0.049   3.847  -0.270  0.00  0.00    +0.034 A 
ATOM     34  C   UNL     1      -1.092   3.131  -0.843  0.00  0.00    +0.026 A 
ATOM     35  C   UNL     1       2.186   1.055   0.953  0.00  0.00    +0.044 C 
ENDBRANCH  24  33
ENDBRANCH   1  25
TORSDOF 3
