REMARK  Name = ZINC35431529
REMARK  7 active torsions:
REMARK  status: ('A' for Active; 'I' for Inactive)
REMARK    1  A    between atoms: C_1  and  C_2
REMARK    2  A    between atoms: C_7  and  N_8
REMARK    3  A    between atoms: C_9  and  C_11
REMARK    4  A    between atoms: C_11  and  N_12
REMARK    5  A    between atoms: C_15  and  S_26
REMARK    6  A    between atoms: C_21  and  C_25
REMARK    7  A    between atoms: S_26  and  N_29
REMARK                            x       y       z     vdW  Elec       q    Type
REMARK                         _______ _______ _______ _____ _____    ______ ____
ROOT
ATOM      1  N   UNL     1      -0.197  -0.933   5.930  0.00  0.00    -0.261 N 
ATOM      2  C   UNL     1      -1.457  -1.389   6.345  0.00  0.00    +0.052 A 
ATOM      3  C   UNL     1      -2.353  -1.919   5.431  0.00  0.00    +0.053 A 
ATOM      4  C   UNL     1      -3.589  -2.366   5.862  0.00  0.00    +0.107 A 
ATOM      5  C   UNL     1      -3.933  -2.287   7.199  0.00  0.00    +0.030 A 
ATOM      6  C   UNL     1      -3.044  -1.758   8.118  0.00  0.00    +0.018 A 
ATOM      7  C   UNL     1      -1.806  -1.307   7.691  0.00  0.00    +0.029 A 
ATOM      8  S   UNL     1      -0.654  -0.622   8.838  0.00  0.00    -0.123 S 
ATOM      9  C   UNL     1       0.623  -1.918   8.971  0.00  0.00    +0.087 C 
ATOM     10  C   UNL     1       0.872  -2.464   7.554  0.00  0.00    +0.083 C 
ATOM     11  C   UNL     1       0.912  -1.347   6.556  0.00  0.00    +0.224 C 
ATOM     12  O   UNL     1       1.969  -0.805   6.314  0.00  0.00    -0.275 OA
ATOM     13  C   UNL     1      -0.255  -3.429   7.179  0.00  0.00    +0.018 C 
ENDROOT
BRANCH   4  14
ATOM     14  S   UNL     1      -4.731  -3.040   4.701  0.00  0.00    +0.061 S 
ATOM     15  O   UNL     1      -6.025  -2.884   5.268  0.00  0.00    -0.153 OA
ATOM     16  O   UNL     1      -4.385  -2.502   3.432  0.00  0.00    -0.153 OA
BRANCH  14  17
ATOM     17  N   UNL     1      -4.442  -4.668   4.620  0.00  0.00    -0.177 NA
ATOM     18  C   UNL     1      -3.502  -5.327   3.701  0.00  0.00    +0.109 C 
ATOM     19  C   UNL     1      -3.588  -6.845   3.968  0.00  0.00    +0.018 C 
ATOM     20  C   UNL     1      -4.984  -7.003   4.628  0.00  0.00    +0.018 C 
ATOM     21  C   UNL     1      -5.082  -5.697   5.460  0.00  0.00    +0.109 C 
ENDBRANCH  14  17
ENDBRANCH   4  14
BRANCH   1  22
ATOM     22  C   UNL     1      -0.093  -0.003   4.803  0.00  0.00    +0.209 C 
BRANCH  22  24
ATOM     23  N   UNL     1       0.149  -0.131   2.344  0.00  0.00    -0.284 N 
ATOM     24  C   UNL     1       0.039  -0.782   3.519  0.00  0.00    +0.235 C 
ATOM     25  O   UNL     1       0.045  -1.994   3.544  0.00  0.00    -0.274 OA
ATOM     26  H   UNL     1       0.202   0.838   2.329  0.00  0.00    +0.155 HD
BRANCH  23  33
ATOM     27  C   UNL     1      -1.073   1.017   0.045  0.00  0.00    +0.045 C 
ATOM     28  C   UNL     1      -0.396  -0.329  -0.000  0.00  0.00    -0.029 A 
ATOM     29  C   UNL     1      -0.351  -1.040  -1.183  0.00  0.00    +0.006 A 
ATOM     30  C   UNL     1       0.269  -2.275  -1.227  0.00  0.00    +0.020 A 
ATOM     31  C   UNL     1       0.848  -2.802  -0.085  0.00  0.00    +0.043 A 
ATOM     32  C   UNL     1       0.806  -2.095   1.102  0.00  0.00    +0.043 A 
ATOM     33  C   UNL     1       0.188  -0.852   1.146  0.00  0.00    +0.038 A 
ATOM     34 CL   UNL     1       1.626  -4.353  -0.144  0.00  0.00    -0.083 Cl
ENDBRANCH  23  33
ENDBRANCH  22  24
ENDBRANCH   1  22
TORSDOF 5
