REMARK  Name = ZINC01308729
REMARK  6 active torsions:
REMARK  status: ('A' for Active; 'I' for Inactive)
REMARK    1  A    between atoms: C_1  and  C_2
REMARK    2  A    between atoms: C_2  and  C_31
REMARK    3  A    between atoms: C_6  and  N_24
REMARK    4  A    between atoms: C_12  and  N_16
REMARK    5  A    between atoms: N_16  and  C_17
REMARK    6  A    between atoms: C_17  and  C_18
REMARK                            x       y       z     vdW  Elec       q    Type
REMARK                         _______ _______ _______ _____ _____    ______ ____
ROOT
ATOM      1  C   UNL     1      -3.412   3.023   1.942  0.00  0.00    +0.041 C 
ATOM      2  C   UNL     1      -3.564   2.724   0.450  0.00  0.00    +0.068 C 
ATOM      3  C   UNL     1      -2.519   1.690   0.022  0.00  0.00    +0.070 C 
ATOM      4  C   UNL     1      -1.152   2.319   0.020  0.00  0.00    -0.024 A 
ATOM      5  C   UNL     1      -0.980   3.668   0.034  0.00  0.00    +0.020 A 
ATOM      6  C   UNL     1       0.311   4.207   0.023  0.00  0.00    +0.105 A 
ATOM      7  C   UNL     1       1.238   2.102   0.002  0.00  0.00    +0.089 A 
ATOM      8  C   UNL     1      -0.018   1.470   0.010  0.00  0.00    +0.035 A 
ATOM      9  C   UNL     1       0.002  -0.004   0.002  0.00  0.00    +0.093 A 
ATOM     10  C   UNL     1       1.270  -0.599  -0.011  0.00  0.00    +0.080 A 
ATOM     11  S   UNL     1       2.404   0.762  -0.015  0.00  0.00    -0.066 S 
ATOM     12  C   UNL     1       1.411  -1.979  -0.019  0.00  0.00    +0.136 A 
ATOM     13  N   UNL     1       0.307  -2.727  -0.015  0.00  0.00    -0.220 NA
ATOM     14  C   UNL     1      -0.881  -2.151  -0.003  0.00  0.00    +0.224 A 
ATOM     15  N   UNL     1      -1.051  -0.852   0.005  0.00  0.00    -0.234 NA
ATOM     16  C   UNL     1      -2.155   4.612   0.060  0.00  0.00    +0.199 C 
ATOM     17  O   UNL     1      -3.350   3.922  -0.306  0.00  0.00    -0.369 OA
ATOM     18  C   UNL     1      -4.968   2.183   0.172  0.00  0.00    +0.041 C 
ATOM     19  N   UNL     1       1.439   3.442   0.006  0.00  0.00    -0.337 N 
ATOM     20  H   UNL     1       2.379   3.854  -0.004  0.00  0.00    +0.168 HD
ENDROOT
BRANCH   6  21
ATOM     21  N   UNL     1       0.483   5.584   0.030  0.00  0.00    -0.316 N 
ATOM     22  C   UNL     1      -0.070   6.184   1.271  0.00  0.00    +0.106 C 
ATOM     23  C   UNL     1       0.651   7.552   1.356  0.00  0.00    +0.020 C 
ATOM     24  C   UNL     1       2.075   7.224   0.850  0.00  0.00    +0.020 C 
ATOM     25  C   UNL     1       1.919   5.939   0.017  0.00  0.00    +0.106 C 
ENDBRANCH   6  21
BRANCH  12  26
ATOM     26  N   UNL     1       2.667  -2.566  -0.032  0.00  0.00    -0.326 N 
ATOM     27  H   UNL     1       3.462  -2.010  -0.035  0.00  0.00    +0.148 HD
BRANCH  26  28
ATOM     28  C   UNL     1       2.794  -4.025  -0.041  0.00  0.00    +0.134 C 
BRANCH  28  29
ATOM     29  C   UNL     1       4.275  -4.409  -0.055  0.00  0.00    +0.135 C 
ATOM     30  C   UNL     1       4.419  -5.943  -0.064  0.00  0.00    +0.035 C 
ATOM     31  C   UNL     1       5.225  -6.240  -1.353  0.00  0.00    +0.031 C 
ATOM     32  C   UNL     1       5.904  -4.875  -1.633  0.00  0.00    +0.160 C 
ATOM     33  O   UNL     1       4.897  -3.913  -1.252  0.00  0.00    -0.375 OA
ENDBRANCH  28  29
ENDBRANCH  26  28
ENDBRANCH  12  26
TORSDOF 4
