REMARK  Name = ZINC34775092
REMARK  3 active torsions:
REMARK  status: ('A' for Active; 'I' for Inactive)
REMARK    1  A    between atoms: C_1  and  C_2
REMARK    2  A    between atoms: N_17  and  C_21
REMARK    3  A    between atoms: C_21  and  C_22
REMARK                            x       y       z     vdW  Elec       q    Type
REMARK                         _______ _______ _______ _____ _____    ______ ____
ROOT
ATOM      1  C   UNL     1      -0.018   1.503   0.010  0.00  0.00    +0.073 C 
ATOM      2  C   UNL     1       0.002  -0.004   0.002  0.00  0.00    +0.125 A 
ATOM      3  C   UNL     1      -1.205  -0.733   0.004  0.00  0.00    +0.282 A 
ATOM      4  O   UNL     1      -2.282  -0.162   0.011  0.00  0.00    -0.265 OA
ATOM      5  N   UNL     1      -1.135  -2.084  -0.004  0.00  0.00    -0.237 N 
ATOM      6  C   UNL     1      -2.282  -2.839  -0.001  0.00  0.00    +0.103 A 
ATOM      7  C   UNL     1      -2.234  -4.231  -0.008  0.00  0.00    +0.074 A 
ATOM      8  C   UNL     1      -3.530  -4.906  -0.003  0.00  0.00    -0.023 A 
ATOM      9  C   UNL     1      -4.599  -4.082   0.007  0.00  0.00    -0.004 A 
ATOM     10  S   UNL     1      -3.909  -2.454   0.010  0.00  0.00    -0.074 S 
ATOM     11  C   UNL     1      -6.043  -4.480   0.014  0.00  0.00    +0.043 C 
ATOM     12  C   UNL     1      -6.135  -5.964  -0.371  0.00  0.00    +0.005 C 
ATOM     13  C   UNL     1      -5.117  -6.755   0.455  0.00  0.00    +0.005 C 
ATOM     14  C   UNL     1      -3.697  -6.419  -0.006  0.00  0.00    +0.037 C 
ATOM     15  C   UNL     1      -0.883  -4.837  -0.020  0.00  0.00    +0.264 A 
ATOM     16  O   UNL     1      -0.756  -6.048  -0.028  0.00  0.00    -0.267 OA
ATOM     17  N   UNL     1       0.200  -4.043  -0.022  0.00  0.00    -0.272 N 
ATOM     18  C   UNL     1       0.091  -2.679  -0.014  0.00  0.00    +0.242 A 
ATOM     19  N   UNL     1       1.187  -1.935  -0.015  0.00  0.00    -0.111 NA
ATOM     20  N   UNL     1       1.144  -0.652  -0.012  0.00  0.00    -0.146 NA
ENDROOT
BRANCH  17  21
ATOM     21  C   UNL     1       1.532  -4.653  -0.034  0.00  0.00    +0.163 C 
BRANCH  21  22
ATOM     22  C   UNL     1       1.980  -4.854  -1.459  0.00  0.00    -0.027 A 
ATOM     23  C   UNL     1       1.682  -6.032  -2.117  0.00  0.00    +0.007 A 
ATOM     24  C   UNL     1       2.093  -6.217  -3.424  0.00  0.00    +0.020 A 
ATOM     25  C   UNL     1       2.802  -5.223  -4.073  0.00  0.00    +0.041 A 
ATOM     26  C   UNL     1       3.100  -4.043  -3.414  0.00  0.00    +0.020 A 
ATOM     27  C   UNL     1       2.684  -3.857  -2.109  0.00  0.00    +0.007 A 
ATOM     28 CL   UNL     1       3.318  -5.454  -5.714  0.00  0.00    -0.084 Cl
ENDBRANCH  21  22
ENDBRANCH  17  21
TORSDOF 2
