REMARK  Name = ZINC02151568
REMARK  7 active torsions:
REMARK  status: ('A' for Active; 'I' for Inactive)
REMARK    1  A    between atoms: C_4  and  C_7
REMARK    2  A    between atoms: C_16  and  O_18
REMARK    3  A    between atoms: O_18  and  C_19
REMARK    4  A    between atoms: C_19  and  C_20
REMARK    5  A    between atoms: N_22  and  C_23
REMARK    6  A    between atoms: C_26  and  S_29
REMARK    7  A    between atoms: S_29  and  N_32
REMARK                            x       y       z     vdW  Elec       q    Type
REMARK                         _______ _______ _______ _____ _____    ______ ____
ROOT
ATOM      1  O   UNL     1       4.703   4.477  -0.017  0.00  0.00    -0.483 OA
ENDROOT
BRANCH   1  11
ATOM      2  C   UNL     1      -0.017   1.474   0.041  0.00  0.00    -0.000 A 
ATOM      3  C   UNL     1      -1.211   2.171   0.047  0.00  0.00    +0.101 A 
ATOM      4  C   UNL     1      -1.192   3.576   0.048  0.00  0.00    +0.338 A 
ATOM      5  O   UNL     1      -2.249   4.183   0.058  0.00  0.00    -0.245 OA
ATOM      6  O   UNL     1      -0.043   4.269   0.035  0.00  0.00    -0.422 OA
ATOM      7  C   UNL     1       1.160   3.655   0.024  0.00  0.00    +0.143 A 
ATOM      8  C   UNL     1       1.233   2.251   0.026  0.00  0.00    +0.026 A 
ATOM      9  C   UNL     1       2.476   1.614   0.013  0.00  0.00    +0.016 A 
ATOM     10  C   UNL     1       3.621   2.358  -0.001  0.00  0.00    +0.046 A 
ATOM     11  C   UNL     1       3.557   3.749  -0.003  0.00  0.00    +0.125 A 
ATOM     12  C   UNL     1       2.332   4.397   0.009  0.00  0.00    +0.092 A 
BRANCH   2  16
ATOM     13  C   UNL     1       0.042  -2.774   0.049  0.00  0.00    +0.000 A 
ATOM     14  C   UNL     1      -0.730  -2.094   0.975  0.00  0.00    +0.001 A 
ATOM     15  C   UNL     1      -0.753  -0.715   0.978  0.00  0.00    +0.008 A 
ATOM     16  C   UNL     1       0.003  -0.005   0.044  0.00  0.00    -0.017 A 
ATOM     17  C   UNL     1       0.774  -0.697  -0.891  0.00  0.00    +0.008 A 
ATOM     18  C   UNL     1       0.793  -2.076  -0.879  0.00  0.00    +0.001 A 
ENDBRANCH   2  16
ENDBRANCH   1  11
BRANCH   1  19
ATOM     19  C   UNL     1       5.933   3.749  -0.029  0.00  0.00    +0.324 C 
BRANCH  19  20
ATOM     20  C   UNL     1       7.088   4.716  -0.044  0.00  0.00    +0.255 C 
ATOM     21  O   UNL     1       6.880   5.911  -0.044  0.00  0.00    -0.272 OA
ATOM     22  N   UNL     1       8.354   4.253  -0.058  0.00  0.00    -0.283 N 
ATOM     23  H   UNL     1       8.523   3.300   0.010  0.00  0.00    +0.155 HD
BRANCH  22  24
ATOM     24  C   UNL     1       9.425   5.147  -0.169  0.00  0.00    +0.034 A 
ATOM     25  C   UNL     1      10.565   4.783  -0.874  0.00  0.00    +0.025 A 
ATOM     26  C   UNL     1      11.617   5.670  -0.988  0.00  0.00    +0.030 A 
ATOM     27  C   UNL     1      11.542   6.915  -0.390  0.00  0.00    +0.105 A 
ATOM     28  C   UNL     1      10.411   7.278   0.318  0.00  0.00    +0.030 A 
ATOM     29  C   UNL     1       9.352   6.398   0.430  0.00  0.00    +0.025 A 
BRANCH  27  30
ATOM     30  S   UNL     1      12.890   8.041  -0.530  0.00  0.00    +0.056 S 
ATOM     31  O   UNL     1      13.606   7.673  -1.701  0.00  0.00    -0.153 OA
ATOM     32  O   UNL     1      12.352   9.343  -0.345  0.00  0.00    -0.153 OA
BRANCH  30  33
ATOM     33  N   UNL     1      13.900   7.758   0.751  0.00  0.00    -0.204 NA
ATOM     34  H   UNL     1      13.681   7.069   1.398  0.00  0.00    +0.144 HD
ATOM     35  H   UNL     1      14.710   8.282   0.855  0.00  0.00    +0.144 HD
ENDBRANCH  30  33
ENDBRANCH  27  30
ENDBRANCH  22  24
ENDBRANCH  19  20
ENDBRANCH   1  19
TORSDOF 7
