REMARK  Name = ZINC21922885
REMARK  10 active torsions:
REMARK  status: ('A' for Active; 'I' for Inactive)
REMARK    1  A    between atoms: C_1  and  C_2
REMARK    2  A    between atoms: C_2  and  C_4
REMARK    3  A    between atoms: C_2  and  N_17
REMARK    4  A    between atoms: N_6  and  C_7
REMARK    5  A    between atoms: C_10  and  S_13
REMARK    6  A    between atoms: S_13  and  N_16
REMARK    7  A    between atoms: N_17  and  C_18
REMARK    8  A    between atoms: N_17  and  C_19
REMARK    9  A    between atoms: C_19  and  C_20
REMARK   10  A    between atoms: N_22  and  C_23
REMARK                            x       y       z     vdW  Elec       q    Type
REMARK                         _______ _______ _______ _____ _____    ______ ____
ROOT
ATOM      1  C   UNL     1      -1.794   3.514   2.771  0.00  0.00    -0.004 C 
ATOM      2  C   UNL     1      -1.249   2.912   1.474  0.00  0.00    +0.017 C 
ENDROOT
BRANCH   2   3
ATOM      3  C   UNL     1      -2.226   3.164   0.354  0.00  0.00    +0.203 C 
ATOM      4  O   UNL     1      -2.780   2.232  -0.188  0.00  0.00    -0.277 OA
ATOM      5  N   UNL     1      -2.483   4.426  -0.044  0.00  0.00    -0.287 N 
ATOM      6  H   UNL     1      -1.924   5.266   0.394  0.00  0.00    +0.155 HD
BRANCH   5   7
ATOM      7  C   UNL     1      -3.461   4.667  -1.016  0.00  0.00    +0.033 A 
ATOM      8  C   UNL     1      -3.633   3.776  -2.067  0.00  0.00    +0.025 A 
ATOM      9  C   UNL     1      -4.604   4.014  -3.020  0.00  0.00    +0.030 A 
ATOM     10  C   UNL     1      -5.395   5.144  -2.935  0.00  0.00    +0.105 A 
ATOM     11  C   UNL     1      -5.223   6.037  -1.893  0.00  0.00    +0.030 A 
ATOM     12  C   UNL     1      -4.258   5.801  -0.933  0.00  0.00    +0.025 A 
BRANCH  10  13
ATOM     13  S   UNL     1      -6.628   5.448  -4.158  0.00  0.00    +0.056 S 
ATOM     14  O   UNL     1      -6.957   4.187  -4.724  0.00  0.00    -0.153 OA
ATOM     15  O   UNL     1      -7.600   6.289  -3.554  0.00  0.00    -0.153 OA
BRANCH  13  16
ATOM     16  N   UNL     1      -5.915   6.336  -5.361  0.00  0.00    -0.204 NA
ATOM     17  H   UNL     1      -6.655   6.547  -6.147  0.00  0.00    +0.144 HD
ATOM     18  H   UNL     1      -5.077   5.767  -5.789  0.00  0.00    +0.144 HD
ENDBRANCH  13  16
ENDBRANCH  10  13
ENDBRANCH   5   7
ENDBRANCH   2   3
BRANCH   2  19
ATOM     19  N   UNL     1      -1.064   1.465   1.645  0.00  0.00    +0.391 N 
ATOM     20  C   UNL     1       0.097   1.181   2.500  0.00  0.00    -0.094 C 
ATOM     21  H   UNL     1      -0.868   1.030   0.654  0.00  0.00    -0.080 HD
BRANCH  19  22
ATOM     22  C   UNL     1      -2.279   0.838   2.182  0.00  0.00    +0.020 C 
BRANCH  22  23
ATOM     23  C   UNL     1      -2.143  -0.661   2.114  0.00  0.00    +0.201 C 
ATOM     24  O   UNL     1      -1.133  -1.159   1.663  0.00  0.00    -0.278 OA
ATOM     25  N   UNL     1      -3.144  -1.449   2.555  0.00  0.00    -0.287 N 
ATOM     26  H   UNL     1      -4.088  -1.000   2.897  0.00  0.00    +0.155 HD
BRANCH  25  27
ATOM     27  C   UNL     1      -2.982  -2.839   2.577  0.00  0.00    +0.035 A 
ATOM     28  C   UNL     1      -2.254  -3.471   1.577  0.00  0.00    +0.025 A 
ATOM     29  C   UNL     1      -2.090  -4.842   1.604  0.00  0.00    +0.023 A 
ATOM     30  C   UNL     1      -2.660  -5.588   2.620  0.00  0.00    +0.059 A 
ATOM     31  C   UNL     1      -3.393  -4.962   3.615  0.00  0.00    +0.061 A 
ATOM     32  C   UNL     1      -3.554  -3.590   3.595  0.00  0.00    +0.044 A 
ATOM     33 CL   UNL     1      -4.107  -5.902   4.888  0.00  0.00    -0.082 Cl
ATOM     34 CL   UNL     1      -2.459  -7.312   2.647  0.00  0.00    -0.082 Cl
ENDBRANCH  25  27
ENDBRANCH  22  23
ENDBRANCH  19  22
ENDBRANCH   2  19
TORSDOF 8
