REMARK  Name = ZINC09970426
REMARK  22 active torsions:
REMARK  status: ('A' for Active; 'I' for Inactive)
REMARK    1  A    between atoms: C_1  and  C_2
REMARK    2  A    between atoms: C_2  and  C_32
REMARK    3  A    between atoms: C_3  and  C_30
REMARK    4  A    between atoms: C_3  and  O_31
REMARK    5  A    between atoms: C_4  and  C_28
REMARK    6  A    between atoms: C_4  and  O_29
REMARK    7  A    between atoms: C_5  and  C_26
REMARK    8  A    between atoms: C_5  and  O_27
REMARK    9  A    between atoms: C_6  and  C_8
REMARK   10  A    between atoms: C_6  and  O_9
REMARK   11  A    between atoms: O_9  and  C_10
REMARK   12  A    between atoms: C_10  and  C_25
REMARK   13  A    between atoms: C_11  and  C_23
REMARK   14  A    between atoms: C_11  and  O_24
REMARK   15  A    between atoms: C_12  and  C_21
REMARK   16  A    between atoms: C_12  and  O_22
REMARK   17  A    between atoms: C_13  and  C_19
REMARK   18  A    between atoms: C_13  and  O_20
REMARK   19  A    between atoms: C_14  and  C_16
REMARK   20  A    between atoms: C_14  and  C_17
REMARK   21  A    between atoms: C_17  and  O_18
REMARK   22  A    between atoms: C_32  and  O_33
REMARK                            x       y       z     vdW  Elec       q    Type
REMARK                         _______ _______ _______ _____ _____    ______ ____
ROOT
ATOM      1  O   UNL     1       1.751  -2.762  -1.017  0.00  0.00    -0.312 OA
ENDROOT
BRANCH   1   7
ATOM      2  C   UNL     1       5.526  -1.395  -3.164  0.00  0.00    +0.047 C 
ATOM      3  C   UNL     1       5.199  -1.958  -1.775  0.00  0.00    +0.124 C 
ATOM      4  C   UNL     1       5.782  -3.355  -1.619  0.00  0.00    +0.125 C 
ATOM      5  C   UNL     1       4.886  -4.464  -2.146  0.00  0.00    +0.128 C 
ATOM      6  C   UNL     1       3.432  -4.299  -1.736  0.00  0.00    +0.147 C 
ATOM      7  C   UNL     1       2.903  -2.881  -1.890  0.00  0.00    +0.202 C 
ATOM      8  O   UNL     1       3.821  -1.888  -1.510  0.00  0.00    -0.335 OA
ATOM      9  C   UNL     1       2.390  -2.651  -3.316  0.00  0.00    +0.077 C 
ATOM     10  C   UNL     1       2.565  -5.244  -2.586  0.00  0.00    +0.050 C 
ATOM     11  C   UNL     1       5.020  -4.610  -3.664  0.00  0.00    +0.047 C 
ATOM     12  C   UNL     1       7.130  -3.412  -2.359  0.00  0.00    +0.047 C 
BRANCH   6  13
ATOM     13  O   UNL     1       3.289  -4.696  -0.360  0.00  0.00    -0.381 OA
ATOM     14  H   UNL     1       2.377  -4.687  -0.041  0.00  0.00    +0.211 HD
ENDBRANCH   6  13
BRANCH   5  15
ATOM     15  O   UNL     1       5.356  -5.707  -1.568  0.00  0.00    -0.383 OA
ATOM     16  H   UNL     1       4.850  -6.484  -1.841  0.00  0.00    +0.210 HD
ENDBRANCH   5  15
BRANCH   4  17
ATOM     17  O   UNL     1       6.041  -3.591  -0.223  0.00  0.00    -0.383 OA
ATOM     18  H   UNL     1       6.665  -2.967   0.172  0.00  0.00    +0.210 HD
ENDBRANCH   4  17
BRANCH   3  19
ATOM     19  C   UNL     1       5.918  -1.046  -0.749  0.00  0.00    +0.193 C 
BRANCH  19  20
ATOM     20  O   UNL     1       5.548   0.315  -0.979  0.00  0.00    -0.392 OA
ATOM     21  H   UNL     1       6.020   0.950  -0.424  0.00  0.00    +0.210 HD
ENDBRANCH  19  20
ENDBRANCH   3  19
ENDBRANCH   1   7
BRANCH   1  22
ATOM     22  C   UNL     1       0.993  -1.539  -1.204  0.00  0.00    +0.202 C 
ATOM     23  C   UNL     1       0.136  -1.358   0.043  0.00  0.00    +0.147 C 
ATOM     24  C   UNL     1      -0.373   0.064   0.227  0.00  0.00    +0.128 C 
ATOM     25  C   UNL     1       0.714   1.108   0.025  0.00  0.00    +0.125 C 
ATOM     26  C   UNL     1       1.603   0.857  -1.184  0.00  0.00    +0.124 C 
ATOM     27  O   UNL     1       1.922  -0.498  -1.384  0.00  0.00    -0.335 OA
ATOM     28  C   UNL     1       0.976   1.471  -2.442  0.00  0.00    +0.047 C 
ATOM     29  C   UNL     1       0.053   2.489  -0.127  0.00  0.00    +0.047 C 
ATOM     30  C   UNL     1      -1.586   0.345  -0.660  0.00  0.00    +0.047 C 
ATOM     31  C   UNL     1      -1.069  -2.311  -0.043  0.00  0.00    +0.050 C 
ATOM     32  C   UNL     1       0.124  -1.752  -2.445  0.00  0.00    +0.077 C 
BRANCH  25  33
ATOM     33  O   UNL     1       1.541   1.149   1.202  0.00  0.00    -0.383 OA
ATOM     34  H   UNL     1       2.262   1.792   1.154  0.00  0.00    +0.210 HD
ENDBRANCH  25  33
BRANCH  24  35
ATOM     35  O   UNL     1      -0.827   0.179   1.599  0.00  0.00    -0.383 OA
ATOM     36  H   UNL     1      -1.538  -0.434   1.831  0.00  0.00    +0.210 HD
ENDBRANCH  24  35
BRANCH  23  37
ATOM     37  O   UNL     1       0.911  -1.731   1.195  0.00  0.00    -0.381 OA
ATOM     38  H   UNL     1       1.271  -2.627   1.153  0.00  0.00    +0.211 HD
ENDBRANCH  23  37
BRANCH  26  39
ATOM     39  C   UNL     1       2.932   1.616  -0.938  0.00  0.00    +0.193 C 
BRANCH  39  40
ATOM     40  O   UNL     1       3.731   1.574  -2.122  0.00  0.00    -0.392 OA
ATOM     41  H   UNL     1       4.585   2.019  -2.037  0.00  0.00    +0.210 HD
ENDBRANCH  39  40
ENDBRANCH  26  39
ENDBRANCH   1  22
TORSDOF 12
