REMARK  Name = ZINC32634302
REMARK  6 active torsions:
REMARK  status: ('A' for Active; 'I' for Inactive)
REMARK    1  A    between atoms: C_1  and  C_2
REMARK    2  A    between atoms: C_2  and  C_3
REMARK    3  A    between atoms: C_2  and  C_4
REMARK    4  A    between atoms: C_2  and  C_5
REMARK    5  A    between atoms: C_5  and  N_7
REMARK    6  A    between atoms: N_9  and  C_20
REMARK                            x       y       z     vdW  Elec       q    Type
REMARK                         _______ _______ _______ _____ _____    ______ ____
ROOT
ATOM      1  N   UNL     1       1.276  -1.899  -1.306  0.00  0.00    -0.158 NA
ATOM      2  C   UNL     1       1.591  -2.275  -2.540  0.00  0.00    +0.154 C 
ATOM      3  N   UNL     1       1.934  -1.460  -3.617  0.00  0.00    -0.273 N 
ATOM      4  C   UNL     1       1.979  -2.125  -4.882  0.00  0.00    +0.116 C 
ATOM      5  C   UNL     1       2.568  -1.516  -6.143  0.00  0.00    +0.190 C 
ATOM      6  S   UNL     1       2.675  -3.024  -7.213  0.00  0.00    -0.028 S 
ATOM      7  O   UNL     1       4.026  -3.217  -7.608  0.00  0.00    -0.174 OA
ATOM      8  O   UNL     1       1.658  -2.963  -8.204  0.00  0.00    -0.174 OA
ATOM      9  C   UNL     1       2.222  -4.310  -5.955  0.00  0.00    +0.182 C 
ATOM     10  C   UNL     1       2.652  -3.537  -4.689  0.00  0.00    +0.097 C 
ATOM     11  S   UNL     1       1.680  -3.950  -3.191  0.00  0.00    -0.086 S 
ENDROOT
BRANCH   3  12
ATOM     12  C   UNL     1       2.212  -0.096  -3.471  0.00  0.00    +0.073 A 
ATOM     13  C   UNL     1       1.214   0.845  -3.693  0.00  0.00    +0.064 A 
ATOM     14  C   UNL     1       1.492   2.192  -3.549  0.00  0.00    +0.022 A 
ATOM     15  C   UNL     1       2.761   2.602  -3.184  0.00  0.00    +0.003 A 
ATOM     16  C   UNL     1       3.756   1.667  -2.962  0.00  0.00    +0.022 A 
ATOM     17  C   UNL     1       3.484   0.319  -3.099  0.00  0.00    +0.064 A 
ATOM     18 CL   UNL     1       4.732  -0.853  -2.812  0.00  0.00    -0.082 Cl
ATOM     19 CL   UNL     1      -0.379   0.331  -4.152  0.00  0.00    -0.082 Cl
ENDBRANCH   3  12
BRANCH   1  20
ATOM     20  C   UNL     1       1.124  -0.608  -1.022  0.00  0.00    +0.244 C 
ATOM     21  O   UNL     1       0.383   0.080  -1.697  0.00  0.00    -0.273 OA
BRANCH  20  23
ATOM     22  C   UNL     1       1.521   1.487   0.244  0.00  0.00    +0.020 C 
ATOM     23  C   UNL     1       1.871   0.001   0.136  0.00  0.00    +0.041 C 
ATOM     24  C   UNL     1       3.376  -0.153  -0.089  0.00  0.00    +0.020 C 
ATOM     25  C   UNL     1       1.473  -0.711   1.431  0.00  0.00    +0.020 C 
ENDBRANCH  20  23
ENDBRANCH   1  20
TORSDOF 3
