REMARK  Name = ZINC20152436
REMARK  7 active torsions:
REMARK  status: ('A' for Active; 'I' for Inactive)
REMARK    1  A    between atoms: C_3  and  C_26
REMARK    2  A    between atoms: C_6  and  C_7
REMARK    3  A    between atoms: C_7  and  N_8
REMARK    4  A    between atoms: N_8  and  C_9
REMARK    5  A    between atoms: C_9  and  N_11
REMARK    6  A    between atoms: C_12  and  C_14
REMARK    7  A    between atoms: C_17  and  C_19
REMARK                            x       y       z     vdW  Elec       q    Type
REMARK                         _______ _______ _______ _____ _____    ______ ____
ROOT
ATOM      1  N   UNL     1      -3.271  -1.909  -2.874  0.00  0.00    -0.261 N 
ATOM      2  C   UNL     1      -4.413  -2.582  -3.113  0.00  0.00    +0.285 C 
ATOM      3  O   UNL     1      -5.085  -2.990  -2.183  0.00  0.00    -0.266 OA
ATOM      4  H   UNL     1      -2.735  -1.583  -3.615  0.00  0.00    +0.157 HD
ENDROOT
BRANCH   2   5
ATOM      5  C   UNL     1      -4.847  -2.823  -4.490  0.00  0.00    +0.190 A 
ATOM      6  C   UNL     1      -5.991  -3.490  -4.873  0.00  0.00    +0.055 A 
ATOM      7  C   UNL     1      -6.010  -3.487  -6.271  0.00  0.00    +0.050 A 
ATOM      8  C   UNL     1      -4.889  -2.826  -6.687  0.00  0.00    +0.136 A 
ATOM      9  O   UNL     1      -4.199  -2.427  -5.606  0.00  0.00    -0.450 OA
BRANCH   8  10
ATOM     10  C   UNL     1      -4.503  -2.586  -8.092  0.00  0.00    +0.017 A 
ATOM     11  C   UNL     1      -5.315  -3.046  -9.131  0.00  0.00    +0.013 A 
ATOM     12  C   UNL     1      -4.949  -2.818 -10.441  0.00  0.00    +0.021 A 
ATOM     13  C   UNL     1      -3.778  -2.136 -10.727  0.00  0.00    +0.041 A 
ATOM     14  C   UNL     1      -2.968  -1.678  -9.701  0.00  0.00    +0.021 A 
ATOM     15  C   UNL     1      -3.326  -1.894  -8.387  0.00  0.00    +0.013 A 
ATOM     16 CL   UNL     1      -3.324  -1.853 -12.379  0.00  0.00    -0.084 Cl
ENDBRANCH   8  10
ENDBRANCH   2   5
BRANCH   1  17
ATOM     17  C   UNL     1      -2.871  -1.687  -1.606  0.00  0.00    +0.137 C 
ATOM     18  S   UNL     1      -3.816  -2.260  -0.299  0.00  0.00    -0.018 S 
BRANCH  17  19
ATOM     19  N   UNL     1      -1.729  -1.013  -1.368  0.00  0.00    -0.322 N 
ATOM     20  H   UNL     1      -1.194  -0.688  -2.108  0.00  0.00    +0.148 HD
BRANCH  19  21
ATOM     21  C   UNL     1      -1.295  -0.772   0.011  0.00  0.00    +0.138 C 
BRANCH  21  27
ATOM     22  C   UNL     1      -0.017   1.380   0.010  0.00  0.00    +0.006 A 
ATOM     23  C   UNL     1       1.166   2.089   0.002  0.00  0.00    +0.015 A 
ATOM     24  C   UNL     1       2.385   1.407  -0.013  0.00  0.00    +0.063 A 
ATOM     25  C   UNL     1       2.397   0.009  -0.021  0.00  0.00    +0.015 A 
ATOM     26  C   UNL     1       1.206  -0.686  -0.013  0.00  0.00    +0.006 A 
ATOM     27  C   UNL     1       0.002  -0.004   0.002  0.00  0.00    -0.030 A 
BRANCH  24  28
ATOM     28  C   UNL     1       3.655   2.158  -0.022  0.00  0.00    +0.387 C 
ATOM     29  O   UNL     1       3.642   3.381  -0.015  0.00  0.00    -0.241 OA
ATOM     30  O   UNL     1       4.721   1.558  -0.035  0.00  0.00    -0.241 OA
ENDBRANCH  24  28
ENDBRANCH  21  27
ENDBRANCH  19  21
ENDBRANCH  17  19
ENDBRANCH   1  17
TORSDOF 7
