REMARK  Name = ZINC10149555
REMARK  16 active torsions:
REMARK  status: ('A' for Active; 'I' for Inactive)
REMARK    1  A    between atoms: C_1  and  C_2
REMARK    2  A    between atoms: C_2  and  C_3
REMARK    3  A    between atoms: C_4  and  C_30
REMARK    4  A    between atoms: C_6  and  N_11
REMARK    5  A    between atoms: C_7  and  C_8
REMARK    6  A    between atoms: C_12  and  C_14
REMARK    7  A    between atoms: C_14  and  O_15
REMARK    8  A    between atoms: O_15  and  C_16
REMARK    9  A    between atoms: C_19  and  C_26
REMARK   10  A    between atoms: C_21  and  C_22
REMARK   11  A    between atoms: C_22  and  C_23
REMARK   12  A    between atoms: C_22  and  C_24
REMARK   13  A    between atoms: C_22  and  C_25
REMARK   14  A    between atoms: C_26  and  C_27
REMARK   15  A    between atoms: C_26  and  C_28
REMARK   16  A    between atoms: C_26  and  C_29
REMARK                            x       y       z     vdW  Elec       q    Type
REMARK                         _______ _______ _______ _____ _____    ______ ____
ROOT
ATOM      1  N   UNL     1      -2.678   0.755  -2.468  0.00  0.00    -0.277 N 
ATOM      2  C   UNL     1      -3.428   0.317  -3.499  0.00  0.00    +0.255 C 
ATOM      3  O   UNL     1      -4.453  -0.295  -3.286  0.00  0.00    -0.272 OA
ATOM      4  H   UNL     1      -1.858   1.245  -2.638  0.00  0.00    +0.155 HD
ENDROOT
BRANCH   1   8
ATOM      5  C   UNL     1      -3.089   0.475   1.248  0.00  0.00    -0.024 A 
ATOM      6  C   UNL     1      -4.245  -0.206   1.145  0.00  0.00    -0.008 A 
ATOM      7  S   UNL     1      -4.487  -0.337  -0.614  0.00  0.00    -0.078 S 
ATOM      8  C   UNL     1      -3.079   0.506  -1.164  0.00  0.00    +0.084 A 
ATOM      9  C   UNL     1      -2.447   0.874   0.018  0.00  0.00    +0.068 A 
ATOM     10  C   UNL     1      -5.120  -0.735   2.252  0.00  0.00    +0.052 C 
BRANCH   9  11
ATOM     11  C   UNL     1      -1.187   1.624   0.017  0.00  0.00    +0.244 C 
ATOM     12  O   UNL     1      -1.204   2.841   0.023  0.00  0.00    -0.270 OA
ATOM     13  N   UNL     1      -0.011   0.966   0.007  0.00  0.00    -0.325 N 
ATOM     14  H   UNL     1       0.002  -0.004   0.002  0.00  0.00    +0.145 HD
ATOM     15  H   UNL     1       0.822   1.462   0.002  0.00  0.00    +0.145 HD
ENDBRANCH   9  11
BRANCH   5  17
ATOM     16  C   UNL     1      -3.028   2.164   3.062  0.00  0.00    +0.009 C 
ATOM     17  C   UNL     1      -2.492   0.811   2.591  0.00  0.00    +0.033 C 
ENDBRANCH   5  17
ENDBRANCH   1   8
BRANCH   2  18
ATOM     18  C   UNL     1      -2.992   0.587  -4.916  0.00  0.00    +0.324 C 
BRANCH  18  19
ATOM     19  O   UNL     1      -3.944   0.027  -5.822  0.00  0.00    -0.482 OA
BRANCH  19  20
ATOM     20  C   UNL     1      -3.699   0.183  -7.149  0.00  0.00    +0.125 A 
ATOM     21  C   UNL     1      -2.565   0.862  -7.571  0.00  0.00    +0.046 A 
ATOM     22  C   UNL     1      -2.317   1.020  -8.921  0.00  0.00    +0.008 A 
ATOM     23  C   UNL     1      -3.199   0.501  -9.852  0.00  0.00    -0.041 A 
ATOM     24  C   UNL     1      -4.330  -0.176  -9.434  0.00  0.00    +0.012 A 
ATOM     25  C   UNL     1      -4.579  -0.340  -8.085  0.00  0.00    -0.000 A 
BRANCH  25  26
ATOM     26  C   UNL     1      -5.809  -1.083  -7.630  0.00  0.00    -0.009 C 
ATOM     27  C   UNL     1      -6.602  -1.553  -8.852  0.00  0.00    +0.015 C 
ATOM     28  C   UNL     1      -5.392  -2.296  -6.796  0.00  0.00    +0.015 C 
ATOM     29  C   UNL     1      -6.681  -0.156  -6.782  0.00  0.00    +0.015 C 
ENDBRANCH  25  26
BRANCH  23  30
ATOM     30  C   UNL     1      -2.927   0.674 -11.324  0.00  0.00    -0.013 C 
ATOM     31  C   UNL     1      -1.623   1.452 -11.513  0.00  0.00    +0.015 C 
ATOM     32  C   UNL     1      -2.801  -0.700 -11.984  0.00  0.00    +0.015 C 
ATOM     33  C   UNL     1      -4.080   1.447 -11.968  0.00  0.00    +0.015 C 
ENDBRANCH  23  30
ENDBRANCH  19  20
ENDBRANCH  18  19
ENDBRANCH   2  18
TORSDOF 8
