REMARK  Name = ZINC41706693
REMARK  6 active torsions:
REMARK  status: ('A' for Active; 'I' for Inactive)
REMARK    1  A    between atoms: C_1  and  C_2
REMARK    2  A    between atoms: C_2  and  N_3
REMARK    3  A    between atoms: C_5  and  N_8
REMARK    4  A    between atoms: C_9  and  C_20
REMARK    5  A    between atoms: C_14  and  C_18
REMARK    6  A    between atoms: C_14  and  C_19
REMARK                            x       y       z     vdW  Elec       q    Type
REMARK                         _______ _______ _______ _____ _____    ______ ____
ROOT
ATOM      1  N   UNL     1      -4.116  -2.427  -1.184  0.00  0.00    -0.314 N 
ATOM      2  C   UNL     1      -4.581  -2.222  -2.456  0.00  0.00    +0.022 A 
ATOM      3  C   UNL     1      -5.441  -3.210  -2.780  0.00  0.00    +0.034 A 
ATOM      4  C   UNL     1      -5.504  -4.081  -1.619  0.00  0.00    +0.039 A 
ATOM      5  C   UNL     1      -4.652  -3.537  -0.664  0.00  0.00    +0.035 A 
ATOM      6  C   UNL     1      -4.442  -4.161   0.692  0.00  0.00    +0.061 C 
ATOM      7  C   UNL     1      -5.617  -5.092   1.006  0.00  0.00    -0.023 C 
ATOM      8  C   UNL     1      -5.836  -6.092  -0.134  0.00  0.00    +0.086 C 
ATOM      9  C   UNL     1      -6.258  -5.314  -1.375  0.00  0.00    +0.165 C 
ATOM     10  O   UNL     1      -7.145  -5.692  -2.112  0.00  0.00    -0.292 OA
ATOM     11  C   UNL     1      -5.322  -5.858   2.297  0.00  0.00    +0.011 C 
ATOM     12  C   UNL     1      -6.885  -4.257   1.194  0.00  0.00    +0.011 C 
ATOM     13  C   UNL     1      -4.194  -1.074  -3.352  0.00  0.00    +0.064 C 
ENDROOT
BRANCH   1  16
ATOM     14  N   UNL     1      -1.372  -0.511   0.012  0.00  0.00    -0.270 N 
ATOM     15  C   UNL     1      -1.907  -1.374  -0.880  0.00  0.00    +0.134 A 
ATOM     16  C   UNL     1      -3.199  -1.591  -0.519  0.00  0.00    +0.084 A 
ATOM     17  C   UNL     1      -3.455  -0.833   0.633  0.00  0.00    +0.160 A 
ATOM     18  N   UNL     1      -2.361  -0.192   0.952  0.00  0.00    -0.178 NA
BRANCH  14  20
ATOM     19  C   UNL     1      -0.019   1.526   0.010  0.00  0.00    +0.029 C 
ATOM     20  C   UNL     1       0.002  -0.004   0.002  0.00  0.00    +0.140 C 
ENDBRANCH  14  20
ENDBRANCH   1  16
TORSDOF 2
