REMARK  Name = ZINC01863110
REMARK  8 active torsions:
REMARK  status: ('A' for Active; 'I' for Inactive)
REMARK    1  A    between atoms: C_10  and  C_12
REMARK    2  A    between atoms: C_12  and  S_13
REMARK    3  A    between atoms: S_13  and  C_14
REMARK    4  A    between atoms: C_19  and  N_23
REMARK    5  A    between atoms: C_24  and  C_26
REMARK    6  A    between atoms: C_26  and  S_27
REMARK    7  A    between atoms: S_27  and  C_28
REMARK    8  A    between atoms: C_33  and  N_37
REMARK                            x       y       z     vdW  Elec       q    Type
REMARK                         _______ _______ _______ _____ _____    ______ ____
ROOT
ATOM      1  C   UNL     1       7.195   2.948  -0.085  0.00  0.00    +0.136 A 
ATOM      2  N   UNL     1       6.289   3.899  -0.059  0.00  0.00    -0.233 NA
ATOM      3  C   UNL     1       6.615   5.211  -0.050  0.00  0.00    +0.080 A 
ATOM      4  C   UNL     1       5.744   6.325  -0.022  0.00  0.00    +0.031 A 
ATOM      5  C   UNL     1       6.238   7.603  -0.017  0.00  0.00    +0.025 A 
ATOM      6  C   UNL     1       7.609   7.851  -0.037  0.00  0.00    +0.035 A 
ATOM      7  C   UNL     1       8.491   6.779  -0.064  0.00  0.00    +0.040 A 
ATOM      8  C   UNL     1       7.998   5.498  -0.070  0.00  0.00    +0.042 A 
ATOM      9  S   UNL     1       8.722   3.876  -0.094  0.00  0.00    -0.061 S 
ENDROOT
BRANCH   6  10
ATOM     10  N   UNL     1       8.091   9.167  -0.031  0.00  0.00    -0.285 N 
ATOM     11  C   UNL     1       9.232   9.463   0.622  0.00  0.00    +0.227 C 
ATOM     12  O   UNL     1       9.885   8.578   1.134  0.00  0.00    -0.275 OA
ATOM     13  H   UNL     1       7.604   9.864  -0.497  0.00  0.00    +0.155 HD
BRANCH  11  14
ATOM     14  C   UNL     1       9.696  10.894   0.718  0.00  0.00    +0.172 C 
BRANCH  14  15
ATOM     15  S   UNL     1      11.249  10.965   1.651  0.00  0.00    -0.089 S 
BRANCH  15  16
ATOM     16  C   UNL     1      11.655  12.679   1.675  0.00  0.00    +0.136 A 
ATOM     17  N   UNL     1      10.996  13.689   1.151  0.00  0.00    -0.233 NA
ATOM     18  C   UNL     1      11.429  14.965   1.248  0.00  0.00    +0.080 A 
ATOM     19  C   UNL     1      10.822  16.134   0.735  0.00  0.00    +0.031 A 
ATOM     20  C   UNL     1      11.398  17.363   0.923  0.00  0.00    +0.035 A 
ATOM     21  C   UNL     1      12.590  17.506   1.618  0.00  0.00    +0.127 A 
ATOM     22  C   UNL     1      13.211  16.384   2.135  0.00  0.00    +0.050 A 
ATOM     23  C   UNL     1      12.641  15.149   1.952  0.00  0.00    +0.042 A 
ATOM     24  S   UNL     1      13.062  13.489   2.423  0.00  0.00    -0.061 S 
BRANCH  21  25
ATOM     25  N   UNL     1      13.191  18.846   1.805  0.00  0.00    +0.056 N 
ATOM     26  O   UNL     1      12.643  19.823   1.351  0.00  0.00    -0.126 OA
ATOM     27  O   UNL     1      14.229  18.964   2.413  0.00  0.00    -0.126 OA
ENDBRANCH  21  25
ENDBRANCH  15  16
ENDBRANCH  14  15
ENDBRANCH  11  14
ENDBRANCH   6  10
BRANCH   1  28
ATOM     28  S   UNL     1       6.963   1.201  -0.100  0.00  0.00    -0.089 S 
BRANCH  28  29
ATOM     29  C   UNL     1       5.160   0.998  -0.081  0.00  0.00    +0.172 C 
BRANCH  29  39
ATOM     30  C   UNL     1       0.005   1.355  -0.018  0.00  0.00    +0.000 A 
ATOM     31  C   UNL     1       1.194   2.063  -0.024  0.00  0.00    +0.002 A 
ATOM     32  C   UNL     1       2.399   1.394  -0.044  0.00  0.00    +0.024 A 
ATOM     33  C   UNL     1       2.430  -0.002  -0.060  0.00  0.00    +0.040 A 
ATOM     34  C   UNL     1       1.234  -0.701  -0.053  0.00  0.00    -0.024 A 
ATOM     35  C   UNL     1       0.028  -0.027  -0.033  0.00  0.00    +0.005 A 
ATOM     36  C   UNL     1       1.542  -2.182  -0.072  0.00  0.00    +0.056 C 
ATOM     37  C   UNL     1       3.078  -2.257  -0.090  0.00  0.00    +0.118 C 
ATOM     38  N   UNL     1       3.531  -0.864  -0.081  0.00  0.00    -0.270 N 
ATOM     39  C   UNL     1       4.820  -0.470  -0.092  0.00  0.00    +0.230 C 
ATOM     40  O   UNL     1       5.706  -1.298  -0.111  0.00  0.00    -0.274 OA
ENDBRANCH  29  39
ENDBRANCH  28  29
ENDBRANCH   1  28
TORSDOF 8
