REMARK  Name = ZINC39695748
REMARK  9 active torsions:
REMARK  status: ('A' for Active; 'I' for Inactive)
REMARK    1  A    between atoms: C_1  and  C_2
REMARK    2  A    between atoms: C_2  and  C_3
REMARK    3  A    between atoms: C_3  and  C_5
REMARK    4  A    between atoms: C_3  and  C_6
REMARK    5  A    between atoms: C_10  and  C_19
REMARK    6  A    between atoms: N_21  and  C_22
REMARK    7  A    between atoms: C_22  and  C_24
REMARK    8  A    between atoms: C_22  and  C_25
REMARK    9  A    between atoms: C_31  and  C_35
REMARK                            x       y       z     vdW  Elec       q    Type
REMARK                         _______ _______ _______ _____ _____    ______ ____
ROOT
ATOM      1  C   UNL     1      -1.368  -1.919   0.457  0.00  0.00    +0.218 C 
ATOM      2  O   UNL     1      -0.365  -2.552   0.707  0.00  0.00    -0.275 OA
ATOM      3  N   UNL     1      -2.541  -2.558   0.275  0.00  0.00    -0.300 N 
ATOM      4  C   UNL     1      -3.837  -1.975  -0.147  0.00  0.00    +0.121 C 
ATOM      5  C   UNL     1      -4.441  -3.023  -1.108  0.00  0.00    +0.100 C 
ATOM      6  C   UNL     1      -3.776  -4.351  -0.710  0.00  0.00    -0.004 C 
ATOM      7  C   UNL     1      -2.824  -4.003   0.444  0.00  0.00    +0.115 C 
ATOM      8  C   UNL     1      -2.985  -4.918  -1.885  0.00  0.00    -0.010 C 
ATOM      9  C   UNL     1      -2.379  -6.266  -1.483  0.00  0.00    -0.082 C 
ATOM     10  N   UNL     1      -3.452  -7.191  -1.097  0.00  0.00    +0.379 N 
ATOM     11  C   UNL     1      -4.148  -6.682   0.091  0.00  0.00    -0.082 C 
ATOM     12  C   UNL     1      -4.828  -5.352  -0.244  0.00  0.00    -0.010 C 
ATOM     13  H   UNL     1      -4.109  -7.279  -1.858  0.00  0.00    -0.086 HD
ATOM     14  H   UNL     1      -3.056  -8.096  -0.891  0.00  0.00    -0.086 HD
ENDROOT
BRANCH   5  15
ATOM     15  C   UNL     1      -4.113  -2.676  -2.537  0.00  0.00    +0.219 C 
ATOM     16  O   UNL     1      -3.126  -2.018  -2.790  0.00  0.00    -0.275 OA
ATOM     17  N   UNL     1      -4.916  -3.097  -3.534  0.00  0.00    -0.305 N 
ATOM     18  H   UNL     1      -5.705  -3.623  -3.332  0.00  0.00    +0.149 HD
BRANCH  17  19
ATOM     19  C   UNL     1      -4.596  -2.760  -4.924  0.00  0.00    +0.136 C 
ATOM     20  C   UNL     1      -3.608  -3.785  -5.483  0.00  0.00    +0.036 C 
BRANCH  19  21
ATOM     21  C   UNL     1      -5.858  -2.776  -5.748  0.00  0.00    +0.128 A 
ATOM     22  H   UNL     1      -5.405  -1.483  -7.322  0.00  0.00    +0.167 HD
ATOM     23  N   UNL     1      -6.927  -3.460  -5.460  0.00  0.00    -0.231 NA
ATOM     24  C   UNL     1      -7.874  -3.247  -6.410  0.00  0.00    +0.089 A 
ATOM     25  C   UNL     1      -9.177  -3.717  -6.594  0.00  0.00    +0.030 A 
ATOM     26  C   UNL     1      -9.900  -3.309  -7.678  0.00  0.00    +0.005 A 
ATOM     27  C   UNL     1      -9.355  -2.430  -8.604  0.00  0.00    -0.048 A 
ATOM     28  C   UNL     1      -8.072  -1.954  -8.443  0.00  0.00    +0.031 A 
ATOM     29  C   UNL     1      -7.321  -2.357  -7.346  0.00  0.00    +0.067 A 
ATOM     30  N   UNL     1      -6.047  -2.073  -6.897  0.00  0.00    -0.340 N 
ATOM     31  C   UNL     1     -10.172  -1.994  -9.793  0.00  0.00    +0.044 C 
ENDBRANCH  19  21
ENDBRANCH  17  19
ENDBRANCH   5  15
BRANCH   1  32
ATOM     32  C   UNL     1      -1.304  -0.417   0.351  0.00  0.00    +0.072 C 
ATOM     33  C   UNL     1       0.042  -0.005  -0.249  0.00  0.00    +0.017 C 
BRANCH  32  35
ATOM     34  C   UNL     1      -1.512   1.724   1.623  0.00  0.00    +0.004 C 
ATOM     35  C   UNL     1      -1.452   0.200   1.743  0.00  0.00    +0.009 C 
ENDBRANCH  32  35
ENDBRANCH   1  32
TORSDOF 5
