REMARK  Name = ZINC13686527
REMARK  6 active torsions:
REMARK  status: ('A' for Active; 'I' for Inactive)
REMARK    1  A    between atoms: C_1  and  C_2
REMARK    2  A    between atoms: C_6  and  N_9
REMARK    3  A    between atoms: C_7  and  C_8
REMARK    4  A    between atoms: C_10  and  C_12
REMARK    5  A    between atoms: C_12  and  C_25
REMARK    6  A    between atoms: N_14  and  C_19
REMARK                            x       y       z     vdW  Elec       q    Type
REMARK                         _______ _______ _______ _____ _____    ______ ____
ROOT
ATOM      1  C   UNL     1       3.644   3.634   0.169  0.00  0.00    +0.142 C 
ATOM      2  C   UNL     1       2.363   4.173   0.042  0.00  0.00    +0.098 C 
ATOM      3  N   UNL     1       1.190   3.515  -0.238  0.00  0.00    -0.232 N 
ATOM      4  C   UNL     1       0.030   4.142  -0.338  0.00  0.00    +0.235 C 
ATOM      5  O   UNL     1      -1.000   3.555  -0.591  0.00  0.00    -0.274 OA
ATOM      6  C   UNL     1       0.070   5.645  -0.111  0.00  0.00    +0.172 C 
ATOM      7  S   UNL     1       1.863   5.880   0.207  0.00  0.00    -0.099 S 
ENDROOT
BRANCH   3   8
ATOM      8  C   UNL     1       1.225   2.127  -0.431  0.00  0.00    +0.042 A 
ATOM      9  C   UNL     1       1.009   1.270   0.640  0.00  0.00    +0.024 A 
ATOM     10  C   UNL     1       1.043  -0.097   0.447  0.00  0.00    +0.002 A 
ATOM     11  C   UNL     1       1.293  -0.612  -0.812  0.00  0.00    +0.000 A 
ATOM     12  C   UNL     1       1.508   0.239  -1.881  0.00  0.00    +0.002 A 
ATOM     13  C   UNL     1       1.474   1.607  -1.694  0.00  0.00    +0.024 A 
ENDBRANCH   3   8
BRANCH   1  15
ATOM     14  N   UNL     1       6.027   3.995   0.504  0.00  0.00    -0.281 N 
ATOM     15  C   UNL     1       4.790   4.516   0.381  0.00  0.00    +0.261 C 
ATOM     16  O   UNL     1       4.628   5.721   0.448  0.00  0.00    -0.269 OA
ATOM     17  H   UNL     1       6.167   3.043   0.383  0.00  0.00    +0.155 HD
BRANCH  14  23
ATOM     18  C   UNL     1      10.361   4.667   2.726  0.00  0.00    +0.044 C 
ATOM     19  C   UNL     1       9.224   5.180   1.880  0.00  0.00    -0.046 A 
ATOM     20  C   UNL     1       9.251   6.476   1.399  0.00  0.00    +0.004 A 
ATOM     21  C   UNL     1       8.211   6.951   0.623  0.00  0.00    +0.002 A 
ATOM     22  C   UNL     1       7.140   6.131   0.324  0.00  0.00    +0.023 A 
ATOM     23  C   UNL     1       7.110   4.828   0.804  0.00  0.00    +0.037 A 
ATOM     24  C   UNL     1       8.155   4.356   1.588  0.00  0.00    -0.026 A 
ATOM     25  C   UNL     1       8.124   2.945   2.117  0.00  0.00    +0.046 C 
ENDBRANCH  14  23
ENDBRANCH   1  15
BRANCH   1  26
ATOM     26  C   UNL     1       3.835   2.217   0.091  0.00  0.00    +0.107 C 
ATOM     27  N   UNL     1       3.987   1.093   0.029  0.00  0.00    -0.191 NA
ENDBRANCH   1  26
TORSDOF 4
