REMARK  Name = ZINC12558409
REMARK  7 active torsions:
REMARK  status: ('A' for Active; 'I' for Inactive)
REMARK    1  A    between atoms: C_4  and  C_7
REMARK    2  A    between atoms: C_7  and  N_47
REMARK    3  A    between atoms: C_8  and  C_10
REMARK    4  A    between atoms: C_8  and  P_28
REMARK    5  A    between atoms: C_8  and  N_47
REMARK    6  A    between atoms: N_12  and  C_22
REMARK    7  A    between atoms: C_14  and  C_15
REMARK                            x       y       z     vdW  Elec       q    Type
REMARK                         _______ _______ _______ _____ _____    ______ ____
ROOT
ATOM      1  C   UNL     1       5.431  -2.864  -2.283  0.00  0.00    -0.004 A 
ATOM      2  C   UNL     1       4.465  -3.236  -3.150  0.00  0.00    +0.117 A 
ATOM      3  N   UNL     1       4.927  -4.302  -3.855  0.00  0.00    -0.239 N 
ATOM      4  N   UNL     1       6.221  -4.592  -3.405  0.00  0.00    -0.166 NA
ATOM      5  C   UNL     1       6.531  -3.726  -2.463  0.00  0.00    +0.095 A 
ENDROOT
BRANCH   5   6
ATOM      6  C   UNL     1       7.813  -3.670  -1.719  0.00  0.00    +0.002 A 
ATOM      7  C   UNL     1       8.331  -2.442  -1.309  0.00  0.00    +0.011 A 
ATOM      8  C   UNL     1       9.522  -2.396  -0.614  0.00  0.00    +0.016 A 
ATOM      9  C   UNL     1      10.207  -3.565  -0.331  0.00  0.00    +0.018 A 
ATOM     10  C   UNL     1       9.699  -4.786  -0.739  0.00  0.00    +0.016 A 
ATOM     11  C   UNL     1       8.507  -4.844  -1.431  0.00  0.00    +0.011 A 
ATOM     12 BR   UNL     1      11.842  -3.493   0.617  0.00  0.00    -0.050 Br
ENDBRANCH   5   6
BRANCH   3  13
ATOM     13  C   UNL     1       4.230  -4.990  -4.858  0.00  0.00    +0.065 A 
ATOM     14  C   UNL     1       2.944  -4.599  -5.205  0.00  0.00    +0.028 A 
ATOM     15  C   UNL     1       2.263  -5.276  -6.198  0.00  0.00    +0.002 A 
ATOM     16  C   UNL     1       2.855  -6.349  -6.838  0.00  0.00    +0.000 A 
ATOM     17  C   UNL     1       4.134  -6.744  -6.490  0.00  0.00    +0.002 A 
ATOM     18  C   UNL     1       4.823  -6.068  -5.502  0.00  0.00    +0.028 A 
ENDBRANCH   3  13
BRANCH   1  19
ATOM     19  C   UNL     1       5.350  -1.723  -1.301  0.00  0.00    +0.084 C 
BRANCH  19  20
ATOM     20  P   UNL     1       5.794  -0.167  -2.140  0.00  0.00    +0.378 P 
ATOM     21  O   UNL     1       5.983   0.900  -1.132  0.00  0.00    -0.255 OA
ATOM     22  O   UNL     1       7.160  -0.373  -2.966  0.00  0.00    -0.140 OA
ATOM     23  O   UNL     1       4.614   0.253  -3.151  0.00  0.00    -0.140 OA
ENDBRANCH  19  20
BRANCH  19  24
ATOM     24  N   UNL     1       3.972  -1.625  -0.784  0.00  0.00    +0.394 N 
ATOM     25  H   UNL     1       3.502  -0.825  -1.223  0.00  0.00    -0.084 HD
ATOM     26  H   UNL     1       3.463  -2.487  -1.010  0.00  0.00    -0.084 HD
BRANCH  24  27
ATOM     27  C   UNL     1       3.986  -1.438   0.679  0.00  0.00    -0.045 C 
BRANCH  27  31
ATOM     28  C   UNL     1      -0.034  -1.164   2.095  0.00  0.00    +0.000 A 
ATOM     29  C   UNL     1       0.644  -0.021   1.715  0.00  0.00    +0.000 A 
ATOM     30  C   UNL     1       1.945  -0.110   1.257  0.00  0.00    +0.002 A 
ATOM     31  C   UNL     1       2.568  -1.342   1.179  0.00  0.00    -0.064 A 
ATOM     32  C   UNL     1       1.890  -2.484   1.560  0.00  0.00    +0.002 A 
ATOM     33  C   UNL     1       0.589  -2.395   2.018  0.00  0.00    +0.000 A 
ENDBRANCH  27  31
ENDBRANCH  24  27
ENDBRANCH  19  24
ENDBRANCH   1  19
TORSDOF 7
