REMARK  Name = ZINC63993165
REMARK  12 active torsions:
REMARK  status: ('A' for Active; 'I' for Inactive)
REMARK    1  A    between atoms: C_1  and  C_2
REMARK    2  A    between atoms: C_2  and  N_3
REMARK    3  A    between atoms: N_3  and  C_4
REMARK    4  A    between atoms: N_3  and  C_16
REMARK    5  A    between atoms: C_4  and  C_5
REMARK    6  A    between atoms: C_9  and  O_11
REMARK    7  A    between atoms: O_11  and  C_12
REMARK    8  A    between atoms: C_12  and  C_13
REMARK    9  A    between atoms: C_16  and  C_17
REMARK   10  A    between atoms: N_19  and  C_20
REMARK   11  A    between atoms: C_23  and  N_26
REMARK   12  A    between atoms: C_27  and  C_29
REMARK                            x       y       z     vdW  Elec       q    Type
REMARK                         _______ _______ _______ _____ _____    ______ ____
ROOT
ATOM      1  N   UNL     1      -1.371  -0.485   0.139  0.00  0.00    +0.388 N 
ATOM      2  H   UNL     1      -1.798   0.009   0.908  0.00  0.00    -0.081 HD
ENDROOT
BRANCH   1   4
ATOM      3  C   UNL     1       0.050   1.486  -0.165  0.00  0.00    -0.017 C 
ATOM      4  C   UNL     1       0.019  -0.036  -0.020  0.00  0.00    -0.081 C 
ENDBRANCH   1   4
BRANCH   1   5
ATOM      5  C   UNL     1      -1.391  -1.928   0.413  0.00  0.00    -0.042 C 
BRANCH   5   6
ATOM      6  C   UNL     1      -0.731  -2.197   1.741  0.00  0.00    -0.060 A 
ATOM      7  C   UNL     1       0.630  -2.434   1.801  0.00  0.00    +0.002 A 
ATOM      8  C   UNL     1       1.238  -2.680   3.017  0.00  0.00    +0.004 A 
ATOM      9  C   UNL     1       0.487  -2.691   4.177  0.00  0.00    +0.045 A 
ATOM     10  C   UNL     1      -0.878  -2.454   4.120  0.00  0.00    +0.121 A 
ATOM     11  C   UNL     1      -1.485  -2.201   2.898  0.00  0.00    +0.047 A 
BRANCH  10  12
ATOM     12  O   UNL     1      -1.619  -2.464   5.259  0.00  0.00    -0.483 OA
BRANCH  12  13
ATOM     13  C   UNL     1      -0.926  -2.726   6.481  0.00  0.00    +0.324 C 
BRANCH  13  14
ATOM     14  C   UNL     1      -1.903  -2.697   7.628  0.00  0.00    +0.248 C 
ATOM     15  O   UNL     1      -3.077  -2.474   7.420  0.00  0.00    -0.272 OA
ATOM     16  N   UNL     1      -1.472  -2.920   8.886  0.00  0.00    -0.327 N 
ATOM     17  H   UNL     1      -0.534  -3.098   9.053  0.00  0.00    +0.145 HD
ATOM     18  H   UNL     1      -2.101  -2.901   9.624  0.00  0.00    +0.145 HD
ENDBRANCH  13  14
ENDBRANCH  12  13
ENDBRANCH  10  12
ENDBRANCH   5   6
ENDBRANCH   1   5
BRANCH   1  19
ATOM     19  C   UNL     1      -2.118  -0.210  -1.095  0.00  0.00    +0.019 C 
BRANCH  19  20
ATOM     20  C   UNL     1      -3.579  -0.507  -0.875  0.00  0.00    +0.201 C 
ATOM     21  O   UNL     1      -3.950  -0.978   0.180  0.00  0.00    -0.278 OA
ATOM     22  N   UNL     1      -4.473  -0.249  -1.849  0.00  0.00    -0.287 N 
ATOM     23  H   UNL     1      -4.170   0.058  -2.718  0.00  0.00    +0.155 HD
BRANCH  22  24
ATOM     24  C   UNL     1      -5.842  -0.426  -1.608  0.00  0.00    +0.033 A 
ATOM     25  C   UNL     1      -6.366  -0.155  -0.351  0.00  0.00    +0.025 A 
ATOM     26  C   UNL     1      -7.715  -0.329  -0.114  0.00  0.00    +0.025 A 
ATOM     27  C   UNL     1      -8.547  -0.775  -1.132  0.00  0.00    +0.033 A 
ATOM     28  C   UNL     1      -8.023  -1.046  -2.389  0.00  0.00    +0.025 A 
ATOM     29  C   UNL     1      -6.676  -0.866  -2.628  0.00  0.00    +0.025 A 
BRANCH  27  30
ATOM     30  N   UNL     1      -9.916  -0.952  -0.891  0.00  0.00    -0.286 N 
ATOM     31  C   UNL     1     -10.585  -1.948  -1.504  0.00  0.00    +0.214 C 
ATOM     32  O   UNL     1      -9.986  -2.747  -2.193  0.00  0.00    -0.276 OA
ATOM     33  C   UNL     1     -12.077  -2.071  -1.333  0.00  0.00    +0.109 C 
ATOM     34  H   UNL     1     -10.382  -0.357  -0.282  0.00  0.00    +0.155 HD
ENDBRANCH  27  30
ENDBRANCH  22  24
ENDBRANCH  19  20
ENDBRANCH   1  19
TORSDOF 10
