REMARK  Name = ZINC44946052
REMARK  9 active torsions:
REMARK  status: ('A' for Active; 'I' for Inactive)
REMARK    1  A    between atoms: C_1  and  C_2
REMARK    2  A    between atoms: N_6  and  C_7
REMARK    3  A    between atoms: C_12  and  C_13
REMARK    4  A    between atoms: C_13  and  N_14
REMARK    5  A    between atoms: C_15  and  C_17
REMARK    6  A    between atoms: C_17  and  N_18
REMARK    7  A    between atoms: N_18  and  C_19
REMARK    8  A    between atoms: N_18  and  S_27
REMARK    9  A    between atoms: S_27  and  C_30
REMARK                            x       y       z     vdW  Elec       q    Type
REMARK                         _______ _______ _______ _____ _____    ______ ____
ROOT
ATOM      1  N   UNL     1      -3.008  -0.488   1.711  0.00  0.00    -0.310 N 
ATOM      2  C   UNL     1      -4.166  -0.549   1.025  0.00  0.00    +0.232 C 
ATOM      3  O   UNL     1      -4.495   0.371   0.307  0.00  0.00    -0.274 OA
ATOM      4  H   UNL     1      -2.745  -1.225   2.285  0.00  0.00    +0.149 HD
ENDROOT
BRANCH   1   5
ATOM      5  C   UNL     1      -2.146   0.690   1.590  0.00  0.00    +0.141 C 
BRANCH   5  11
ATOM      6  C   UNL     1       0.135  -0.270   2.001  0.00  0.00    +0.052 A 
ATOM      7  C   UNL     1       1.262  -0.431   2.796  0.00  0.00    +0.026 A 
ATOM      8  C   UNL     1       1.326   0.178   4.033  0.00  0.00    +0.002 A 
ATOM      9  C   UNL     1       0.268   0.948   4.482  0.00  0.00    +0.000 A 
ATOM     10  C   UNL     1      -0.856   1.110   3.693  0.00  0.00    +0.007 A 
ATOM     11  C   UNL     1      -0.923   0.508   2.452  0.00  0.00    -0.006 A 
BRANCH   6  17
ATOM     12  C   UNL     1       0.033   1.230  -0.679  0.00  0.00    +0.084 C 
ATOM     13  C   UNL     1       0.021  -0.261  -0.461  0.00  0.00    +0.088 A 
ATOM     14  N   UNL     1      -0.030  -1.168  -1.399  0.00  0.00    -0.350 N 
ATOM     15  C   UNL     1      -0.023  -2.387  -0.839  0.00  0.00    +0.102 A 
ATOM     16  C   UNL     1       0.034  -2.235   0.498  0.00  0.00    +0.110 A 
ATOM     17  N   UNL     1       0.068  -0.887   0.744  0.00  0.00    -0.305 N 
ATOM     18  H   UNL     1      -0.067  -0.989  -2.351  0.00  0.00    +0.166 HD
ENDBRANCH   6  17
ENDBRANCH   5  11
ENDBRANCH   1   5
BRANCH   2  19
ATOM     19  C   UNL     1      -5.053  -1.761   1.150  0.00  0.00    +0.226 C 
BRANCH  19  20
ATOM     20  N   UNL     1      -6.306  -1.526   0.427  0.00  0.00    -0.197 N 
BRANCH  20  21
ATOM     21  C   UNL     1      -7.368  -0.877   1.063  0.00  0.00    +0.071 A 
ATOM     22  C   UNL     1      -7.439   0.510   1.060  0.00  0.00    +0.046 A 
ATOM     23  C   UNL     1      -8.491   1.148   1.690  0.00  0.00    +0.043 A 
ATOM     24  C   UNL     1      -9.473   0.406   2.323  0.00  0.00    +0.021 A 
ATOM     25  C   UNL     1      -9.405  -0.975   2.328  0.00  0.00    +0.023 A 
ATOM     26  C   UNL     1      -8.360  -1.619   1.694  0.00  0.00    +0.064 A 
ATOM     27 CL   UNL     1      -8.280  -3.353   1.694  0.00  0.00    -0.082 Cl
ATOM     28 CL   UNL     1      -8.580   2.882   1.687  0.00  0.00    -0.083 Cl
ENDBRANCH  20  21
BRANCH  20  29
ATOM     29  S   UNL     1      -6.463  -2.028  -1.143  0.00  0.00    +0.043 S 
ATOM     30  O   UNL     1      -7.367  -1.103  -1.731  0.00  0.00    -0.155 OA
ATOM     31  O   UNL     1      -5.130  -2.143  -1.622  0.00  0.00    -0.155 OA
ATOM     32  C   UNL     1      -7.230  -3.668  -1.033  0.00  0.00    +0.218 C 
ENDBRANCH  20  29
ENDBRANCH  19  20
ENDBRANCH   2  19
TORSDOF 7
