REMARK  Name = ZINC37245947
REMARK  13 active torsions:
REMARK  status: ('A' for Active; 'I' for Inactive)
REMARK    1  A    between atoms: C_1  and  C_2
REMARK    2  A    between atoms: C_2  and  C_4
REMARK    3  A    between atoms: C_2  and  C_9
REMARK    4  A    between atoms: C_4  and  C_5
REMARK    5  A    between atoms: C_5  and  C_6
REMARK    6  A    between atoms: C_15  and  C_43
REMARK    7  A    between atoms: C_16  and  O_42
REMARK    8  A    between atoms: C_27  and  C_41
REMARK    9  A    between atoms: C_30  and  O_33
REMARK   10  A    between atoms: O_33  and  C_34
REMARK   11  A    between atoms: C_34  and  C_36
REMARK   12  A    between atoms: C_36  and  C_37
REMARK   13  A    between atoms: C_37  and  C_38
REMARK                            x       y       z     vdW  Elec       q    Type
REMARK                         _______ _______ _______ _____ _____    ______ ____
ROOT
ATOM      1  C   UNL     1       1.016   0.192   1.174  0.00  0.00    +0.001 C 
ATOM      2  C   UNL     1       0.341   0.412   2.554  0.00  0.00    +0.005 C 
ATOM      3  C   UNL     1       1.030  -0.577   3.539  0.00  0.00    +0.005 C 
ATOM      4  C   UNL     1       2.331  -0.913   2.790  0.00  0.00    +0.001 C 
ATOM      5  C   UNL     1       1.799  -1.129   1.357  0.00  0.00    +0.000 C 
ATOM      6  C   UNL     1       2.935  -1.337   0.392  0.00  0.00    +0.121 C 
ATOM      7  C   UNL     1       3.963  -2.342   0.928  0.00  0.00    +0.036 C 
ATOM      8  C   UNL     1       3.505  -3.043   2.192  0.00  0.00    +0.001 C 
ATOM      9  C   UNL     1       3.149  -2.055   3.300  0.00  0.00    -0.004 C 
ATOM     10  C   UNL     1       2.493  -2.816   4.451  0.00  0.00    +0.004 C 
ATOM     11  C   UNL     1       3.501  -3.835   5.000  0.00  0.00    +0.004 C 
ATOM     12  C   UNL     1       4.800  -3.768   4.202  0.00  0.00    -0.001 C 
ATOM     13  C   UNL     1       4.558  -4.027   2.717  0.00  0.00    -0.026 C 
ATOM     14  C   UNL     1       5.872  -3.862   1.956  0.00  0.00    +0.011 C 
ATOM     15  C   UNL     1       6.925  -4.829   2.495  0.00  0.00    +0.045 C 
ATOM     16  C   UNL     1       7.138  -4.624   3.992  0.00  0.00    +0.177 C 
ATOM     17  C   UNL     1       5.819  -4.766   4.753  0.00  0.00    +0.048 C 
ATOM     18  C   UNL     1       4.019  -5.445   2.501  0.00  0.00    +0.012 C 
ATOM     19  C   UNL     1       0.772  -2.257   1.261  0.00  0.00    +0.014 C 
ENDROOT
BRANCH   1  21
ATOM     20  C   UNL     1      -0.940   1.263   0.055  0.00  0.00    +0.008 C 
ATOM     21  C   UNL     1      -0.039   0.026   0.085  0.00  0.00    -0.010 C 
BRANCH  21  22
ATOM     22  C   UNL     1       0.649  -0.136  -1.272  0.00  0.00    +0.015 C 
BRANCH  22  23
ATOM     23  C   UNL     1      -0.338   0.210  -2.389  0.00  0.00    +0.125 C 
BRANCH  23  24
ATOM     24  C   UNL     1       0.340   0.050  -3.725  0.00  0.00    +0.356 C 
ATOM     25  O   UNL     1       1.504  -0.307  -3.779  0.00  0.00    -0.246 OA
ATOM     26  O   UNL     1      -0.277   0.278  -4.752  0.00  0.00    -0.246 OA
ENDBRANCH  23  24
ENDBRANCH  22  23
ENDBRANCH  21  22
ENDBRANCH   1  21
BRANCH   6  27
ATOM     27  O   UNL     1       2.427  -1.807  -0.867  0.00  0.00    -0.391 OA
ATOM     28  H   UNL     1       3.110  -1.961  -1.534  0.00  0.00    +0.210 HD
ENDBRANCH   6  27
BRANCH  16  29
ATOM     29  O   UNL     1       7.690  -3.327   4.226  0.00  0.00    -0.461 OA
BRANCH  29  30
ATOM     30  C   UNL     1       9.028  -3.226   4.231  0.00  0.00    +0.308 C 
ATOM     31  O   UNL     1       9.709  -4.207   4.043  0.00  0.00    -0.251 OA
BRANCH  30  32
ATOM     32  C   UNL     1       9.683  -1.890   4.472  0.00  0.00    +0.132 C 
BRANCH  32  33
ATOM     33  C   UNL     1      11.203  -2.051   4.426  0.00  0.00    +0.136 C 
BRANCH  33  34
ATOM     34  C   UNL     1      11.857  -0.715   4.667  0.00  0.00    +0.357 C 
ATOM     35  O   UNL     1      11.171   0.275   4.856  0.00  0.00    -0.246 OA
ATOM     36  O   UNL     1      13.073  -0.623   4.671  0.00  0.00    -0.246 OA
ENDBRANCH  33  34
ENDBRANCH  32  33
ENDBRANCH  30  32
ENDBRANCH  29  30
ENDBRANCH  16  29
TORSDOF 10
