REMARK  Name = ZINC33014861
REMARK  3 active torsions:
REMARK  status: ('A' for Active; 'I' for Inactive)
REMARK    1  A    between atoms: C_1  and  C_2
REMARK    2  A    between atoms: N_10  and  N_14
REMARK    3  A    between atoms: N_14  and  C_15
REMARK                            x       y       z     vdW  Elec       q    Type
REMARK                         _______ _______ _______ _____ _____    ______ ____
ROOT
ATOM      1  C   UNL     1      -3.159   1.604   1.160  0.00  0.00    +0.102 C 
ATOM      2  C   UNL     1      -4.489   1.244   1.138  0.00  0.00    +0.061 C 
ATOM      3  C   UNL     1      -5.279   1.329  -0.107  0.00  0.00    +0.000 A 
ATOM      4  C   UNL     1      -4.717   1.762  -1.303  0.00  0.00    +0.009 A 
ATOM      5  C   UNL     1      -5.497   1.819  -2.441  0.00  0.00    +0.001 A 
ATOM      6  C   UNL     1      -6.831   1.443  -2.400  0.00  0.00    +0.001 A 
ATOM      7  C   UNL     1      -7.405   1.006  -1.226  0.00  0.00    +0.014 A 
ATOM      8  C   UNL     1      -6.635   0.942  -0.064  0.00  0.00    +0.046 A 
ATOM      9  C   UNL     1      -7.206   0.482   1.208  0.00  0.00    +0.259 C 
ATOM     10  O   UNL     1      -8.376   0.151   1.254  0.00  0.00    -0.269 OA
ATOM     11  N   UNL     1      -6.460   0.422   2.323  0.00  0.00    -0.186 N 
ATOM     12  C   UNL     1      -5.163   0.771   2.352  0.00  0.00    +0.260 C 
ATOM     13  O   UNL     1      -4.541   0.694   3.396  0.00  0.00    -0.269 OA
ATOM     14  C   UNL     1      -7.058  -0.022   3.505  0.00  0.00    +0.135 A 
ATOM     15  C   UNL     1      -7.753   0.877   4.304  0.00  0.00    +0.046 A 
ATOM     16  C   UNL     1      -8.347   0.424   5.469  0.00  0.00    +0.025 A 
ATOM     17  C   UNL     1      -8.213  -0.919   5.801  0.00  0.00    +0.059 A 
ATOM     18  C   UNL     1      -7.502  -1.755   4.961  0.00  0.00    +0.133 A 
ATOM     19  N   UNL     1      -6.953  -1.294   3.854  0.00  0.00    -0.238 NA
ATOM     20 CL   UNL     1      -8.931  -1.539   7.255  0.00  0.00    -0.082 Cl
ENDROOT
BRANCH   1  21
ATOM     21  N   UNL     1      -2.410   1.504   0.031  0.00  0.00    -0.260 N 
ATOM     22  H   UNL     1      -2.830   1.028  -0.868  0.00  0.00    +0.170 HD
BRANCH  21  32
ATOM     23  C   UNL     1       4.129  -0.943   0.173  0.00  0.00    +0.007 C 
ATOM     24  C   UNL     1       3.500   0.450   0.099  0.00  0.00    -0.014 C 
ATOM     25  C   UNL     1       2.635   0.685   1.339  0.00  0.00    +0.006 C 
ATOM     26  C   UNL     1       2.015   2.083   1.269  0.00  0.00    +0.035 C 
ATOM     27  C   UNL     1       1.169   2.203   0.006  0.00  0.00    +0.114 C 
ATOM     28  C   UNL     1       2.014   1.950  -1.237  0.00  0.00    +0.035 C 
ATOM     29  C   UNL     1       2.634   0.552  -1.158  0.00  0.00    +0.006 C 
ATOM     30  C   UNL     1       0.006   1.238   0.058  0.00  0.00    +0.263 C 
ATOM     31  O   UNL     1       0.059   0.029   0.123  0.00  0.00    -0.271 OA
ATOM     32  N   UNL     1      -1.102   2.006   0.012  0.00  0.00    -0.140 N 
ATOM     33  C   UNL     1      -0.797   3.308  -0.052  0.00  0.00    +0.326 C 
ATOM     34  O   UNL     1      -1.627   4.195  -0.099  0.00  0.00    -0.251 OA
ATOM     35  N   UNL     1       0.532   3.525  -0.064  0.00  0.00    -0.284 N 
ATOM     36  H   UNL     1       1.153   4.432  -0.113  0.00  0.00    +0.151 HD
ENDBRANCH  21  32
ENDBRANCH   1  21
TORSDOF 2
