REMARK  Name = ZINC09996887
REMARK  5 active torsions:
REMARK  status: ('A' for Active; 'I' for Inactive)
REMARK    1  A    between atoms: C_1  and  C_2
REMARK    2  A    between atoms: C_8  and  C_10
REMARK    3  A    between atoms: C_10  and  C_12
REMARK    4  A    between atoms: C_10  and  N_44
REMARK    5  A    between atoms: N_15  and  C_18
REMARK                            x       y       z     vdW  Elec       q    Type
REMARK                         _______ _______ _______ _____ _____    ______ ____
ROOT
ATOM      1  C   UNL     1       1.869   1.240  -0.375  0.00  0.00    -0.059 C 
ATOM      2  C   UNL     1       0.870   0.121  -0.680  0.00  0.00    +0.086 C 
ATOM      3  N   UNL     1       1.587  -1.156  -0.794  0.00  0.00    -0.333 N 
ATOM      4  C   UNL     1       2.303  -1.467   0.452  0.00  0.00    +0.086 C 
ATOM      5  C   UNL     1       3.302  -0.349   0.756  0.00  0.00    -0.059 C 
ATOM      6  N   UNL     1       2.565   0.925   0.890  0.00  0.00    +0.389 N 
ATOM      7  H   UNL     1       1.869   0.832   1.639  0.00  0.00    -0.081 HD
ENDROOT
BRANCH   3   8
ATOM      8  C   UNL     1       0.715  -2.192  -1.143  0.00  0.00    +0.030 A 
ATOM      9  C   UNL     1      -0.636  -1.930  -1.326  0.00  0.00    +0.026 A 
ATOM     10  C   UNL     1      -1.495  -2.954  -1.676  0.00  0.00    +0.040 A 
ATOM     11  C   UNL     1      -1.011  -4.242  -1.833  0.00  0.00    +0.124 A 
ATOM     12  C   UNL     1       0.335  -4.505  -1.645  0.00  0.00    +0.040 A 
ATOM     13  C   UNL     1       1.198  -3.484  -1.301  0.00  0.00    +0.026 A 
ATOM     14  F   UNL     1      -1.854  -5.243  -2.171  0.00  0.00    -0.205 F 
ENDBRANCH   3   8
BRANCH   6  15
ATOM     15  C   UNL     1       3.501   2.017   1.237  0.00  0.00    +0.017 C 
ATOM     16  C   UNL     1       2.734   3.340   1.267  0.00  0.00    -0.004 C 
BRANCH  15  24
ATOM     17  C   UNL     1       8.057   1.683   7.646  0.00  0.00    +0.075 C 
ATOM     18  C   UNL     1       7.140   1.710   6.450  0.00  0.00    +0.101 A 
ATOM     19  N   UNL     1       5.956   1.158   6.279  0.00  0.00    -0.145 NA
ATOM     20  N   UNL     1       5.333   1.295   5.190  0.00  0.00    -0.126 NA
ATOM     21  C   UNL     1       5.833   1.989   4.182  0.00  0.00    +0.188 A 
ATOM     22  S   UNL     1       7.355   2.495   4.857  0.00  0.00    -0.036 S 
ATOM     23  N   UNL     1       5.294   2.241   2.925  0.00  0.00    -0.265 N 
ATOM     24  C   UNL     1       4.085   1.743   2.599  0.00  0.00    +0.205 C 
ATOM     25  O   UNL     1       3.468   1.075   3.401  0.00  0.00    -0.277 OA
ATOM     26  H   UNL     1       5.788   2.776   2.284  0.00  0.00    +0.157 HD
ENDBRANCH  15  24
ENDBRANCH   6  15
TORSDOF 3
