REMARK  Name = ZINC12502797
REMARK  9 active torsions:
REMARK  status: ('A' for Active; 'I' for Inactive)
REMARK    1  A    between atoms: C_1  and  O_2
REMARK    2  A    between atoms: O_2  and  C_3
REMARK    3  A    between atoms: C_6  and  C_9
REMARK    4  A    between atoms: N_11  and  C_12
REMARK    5  A    between atoms: C_12  and  N_14
REMARK    6  A    between atoms: N_14  and  N_15
REMARK    7  A    between atoms: C_16  and  C_18
REMARK    8  A    between atoms: C_21  and  O_25
REMARK    9  A    between atoms: O_25  and  C_26
REMARK                            x       y       z     vdW  Elec       q    Type
REMARK                         _______ _______ _______ _____ _____    ______ ____
ROOT
ATOM      1  N   UNL     1       3.478   1.933  -0.021  0.00  0.00    -0.245 N 
ATOM      2  H   UNL     1       4.324   1.459  -0.031  0.00  0.00    +0.172 HD
ENDROOT
BRANCH   1   3
ATOM      3  N   UNL     1       3.459   3.334  -0.013  0.00  0.00    -0.231 N 
ATOM      4  C   UNL     1       4.617   4.023  -0.020  0.00  0.00    +0.260 C 
ATOM      5  O   UNL     1       5.678   3.430  -0.034  0.00  0.00    -0.269 OA
ATOM      6  H   UNL     1       2.612   3.807  -0.002  0.00  0.00    +0.173 HD
BRANCH   4   7
ATOM      7  C   UNL     1       4.596   5.499  -0.012  0.00  0.00    +0.039 A 
ATOM      8  C   UNL     1       3.378   6.183  -0.003  0.00  0.00    +0.017 A 
ATOM      9  C   UNL     1       3.363   7.560   0.011  0.00  0.00    +0.047 A 
ATOM     10  C   UNL     1       4.558   8.270   0.003  0.00  0.00    +0.133 A 
ATOM     11  C   UNL     1       5.773   7.593  -0.012  0.00  0.00    +0.056 A 
ATOM     12  C   UNL     1       5.796   6.216  -0.020  0.00  0.00    +0.031 A 
ATOM     13  I   UNL     1       7.570   8.670  -0.023  0.00  0.00    -0.040 I 
BRANCH  10  14
ATOM     14  O   UNL     1       4.539   9.627   0.011  0.00  0.00    -0.494 OA
ATOM     15  C   UNL     1       3.257  10.258   0.026  0.00  0.00    +0.277 C 
ENDBRANCH  10  14
ENDBRANCH   4   7
ENDBRANCH   1   3
BRANCH   1  16
ATOM     16  C   UNL     1       2.320   1.243  -0.013  0.00  0.00    +0.153 C 
ATOM     17  S   UNL     1       2.343  -0.469  -0.023  0.00  0.00    -0.017 S 
BRANCH  16  20
ATOM     18  C   UNL     1      -0.014   1.211   0.009  0.00  0.00    +0.250 C 
ATOM     19  O   UNL     1       0.002  -0.004   0.002  0.00  0.00    -0.270 OA
ATOM     20  N   UNL     1       1.143   1.901   0.001  0.00  0.00    -0.263 N 
ATOM     21  H   UNL     1       1.130   2.871   0.007  0.00  0.00    +0.157 HD
BRANCH  18  25
ATOM     22  C   UNL     1      -3.720   3.284   0.038  0.00  0.00    +0.120 A 
ATOM     23  C   UNL     1      -3.703   1.894   0.030  0.00  0.00    +0.046 A 
ATOM     24  C   UNL     1      -2.504   1.218   0.021  0.00  0.00    +0.016 A 
ATOM     25  C   UNL     1      -1.302   1.931   0.019  0.00  0.00    +0.037 A 
ATOM     26  C   UNL     1      -1.323   3.329   0.032  0.00  0.00    +0.016 A 
ATOM     27  C   UNL     1      -2.527   3.997   0.036  0.00  0.00    +0.046 A 
BRANCH  22  29
ATOM     28  C   UNL     1      -4.849   5.375   0.055  0.00  0.00    +0.277 C 
ATOM     29  O   UNL     1      -4.904   3.947   0.047  0.00  0.00    -0.495 OA
ENDBRANCH  22  29
ENDBRANCH  18  25
ENDBRANCH  16  20
ENDBRANCH   1  16
TORSDOF 7
