REMARK  Name = ZINC59310228
REMARK  7 active torsions:
REMARK  status: ('A' for Active; 'I' for Inactive)
REMARK    1  A    between atoms: C_1  and  N_2
REMARK    2  A    between atoms: N_2  and  C_3
REMARK    3  A    between atoms: N_2  and  S_4
REMARK    4  A    between atoms: S_4  and  C_7
REMARK    5  A    between atoms: C_9  and  C_14
REMARK    6  A    between atoms: C_14  and  N_16
REMARK    7  A    between atoms: N_25  and  C_26
REMARK                            x       y       z     vdW  Elec       q    Type
REMARK                         _______ _______ _______ _____ _____    ______ ____
ROOT
ATOM      1  N   UNL     1      -3.122  -4.558  -4.824  0.00  0.00    -0.142 NA
ATOM      2  C   UNL     1      -3.172  -5.821  -5.228  0.00  0.00    +0.206 A 
ATOM      3  N   UNL     1      -2.944  -6.910  -4.445  0.00  0.00    -0.325 N 
ATOM      4  C   UNL     1      -3.090  -8.050  -5.229  0.00  0.00    +0.066 A 
ATOM      5  C   UNL     1      -2.974  -9.407  -4.957  0.00  0.00    +0.028 A 
ATOM      6  C   UNL     1      -3.182 -10.330  -5.962  0.00  0.00    +0.002 A 
ATOM      7  C   UNL     1      -3.505  -9.909  -7.241  0.00  0.00    +0.002 A 
ATOM      8  C   UNL     1      -3.622  -8.563  -7.522  0.00  0.00    +0.028 A 
ATOM      9  C   UNL     1      -3.416  -7.626  -6.519  0.00  0.00    +0.073 A 
ATOM     10  N   UNL     1      -3.467  -6.235  -6.493  0.00  0.00    -0.280 N 
ATOM     11  H   UNL     1      -2.717  -6.894  -3.502  0.00  0.00    +0.169 HD
ENDROOT
BRANCH  10  12
ATOM     12  C   UNL     1      -3.766  -5.404  -7.580  0.00  0.00    +0.050 A 
ATOM     13  C   UNL     1      -2.796  -4.552  -8.092  0.00  0.00    +0.026 A 
ATOM     14  C   UNL     1      -3.095  -3.734  -9.164  0.00  0.00    +0.002 A 
ATOM     15  C   UNL     1      -4.357  -3.763  -9.727  0.00  0.00    +0.000 A 
ATOM     16  C   UNL     1      -5.325  -4.610  -9.219  0.00  0.00    +0.002 A 
ATOM     17  C   UNL     1      -5.031  -5.435  -8.151  0.00  0.00    +0.026 A 
ENDBRANCH  10  12
BRANCH   1  18
ATOM     18  C   UNL     1      -2.709  -4.268  -3.585  0.00  0.00    +0.270 C 
ATOM     19  O   UNL     1      -2.467  -5.166  -2.798  0.00  0.00    -0.268 OA
BRANCH  18  22
ATOM     20  C   UNL     1      -1.963  -1.234  -1.499  0.00  0.00    +0.124 A 
ATOM     21  C   UNL     1      -2.114  -2.551  -1.879  0.00  0.00    +0.043 A 
ATOM     22  C   UNL     1      -2.545  -2.856  -3.171  0.00  0.00    +0.041 A 
ATOM     23  C   UNL     1      -2.820  -1.826  -4.071  0.00  0.00    +0.014 A 
ATOM     24  C   UNL     1      -2.666  -0.512  -3.679  0.00  0.00    +0.023 A 
ATOM     25  C   UNL     1      -2.243  -0.215  -2.394  0.00  0.00    +0.067 A 
ATOM     26 CL   UNL     1      -2.057   1.440  -1.906  0.00  0.00    -0.082 Cl
BRANCH  20  27
ATOM     27  S   UNL     1      -1.419  -0.847   0.132  0.00  0.00    +0.062 S 
ATOM     28  O   UNL     1      -1.285  -2.083   0.820  0.00  0.00    -0.153 OA
ATOM     29  O   UNL     1      -2.258   0.200   0.602  0.00  0.00    -0.153 OA
BRANCH  27  31
ATOM     30  C   UNL     1       0.293   1.243  -0.001  0.00  0.00    +0.131 C 
ATOM     31  N   UNL     1       0.104  -0.210   0.002  0.00  0.00    -0.183 NA
ATOM     32  C   UNL     1       1.263  -1.099  -0.111  0.00  0.00    +0.131 C 
ENDBRANCH  27  31
ENDBRANCH  20  27
ENDBRANCH  18  22
ENDBRANCH   1  18
TORSDOF 5
