REMARK  Name = ZINC09270671
REMARK  10 active torsions:
REMARK  status: ('A' for Active; 'I' for Inactive)
REMARK    1  A    between atoms: C_1  and  C_2
REMARK    2  A    between atoms: C_2  and  N_54
REMARK    3  A    between atoms: C_3  and  C_4
REMARK    4  A    between atoms: C_3  and  N_54
REMARK    5  A    between atoms: C_5  and  C_6
REMARK    6  A    between atoms: C_5  and  N_54
REMARK    7  A    between atoms: C_6  and  N_7
REMARK    8  A    between atoms: C_8  and  C_24
REMARK    9  A    between atoms: C_11  and  C_12
REMARK   10  A    between atoms: C_11  and  O_19
REMARK                            x       y       z     vdW  Elec       q    Type
REMARK                         _______ _______ _______ _____ _____    ______ ____
ROOT
ATOM      1  N   UNL     1      -2.316   2.192  -2.459  0.00  0.00    -0.285 N 
ATOM      2  C   UNL     1      -2.864   1.393  -3.558  0.00  0.00    +0.147 C 
ATOM      3  C   UNL     1      -3.196   2.358  -4.672  0.00  0.00    +0.071 C 
ATOM      4  C   UNL     1      -3.737   2.049  -5.904  0.00  0.00    +0.133 C 
ATOM      5  C   UNL     1      -2.844   3.633  -4.201  0.00  0.00    +0.249 C 
ATOM      6  O   UNL     1      -2.963   4.679  -4.814  0.00  0.00    -0.282 OA
ATOM      7  C   UNL     1      -2.307   3.486  -2.821  0.00  0.00    +0.288 C 
ATOM      8  O   UNL     1      -1.916   4.400  -2.126  0.00  0.00    -0.266 OA
ENDROOT
BRANCH   4   9
ATOM      9  C   UNL     1      -4.146   3.128  -6.820  0.00  0.00    +0.017 A 
ATOM     10  C   UNL     1      -5.009   4.136  -6.379  0.00  0.00    +0.012 A 
ATOM     11  C   UNL     1      -5.383   5.145  -7.241  0.00  0.00    +0.016 A 
ATOM     12  C   UNL     1      -4.914   5.156  -8.544  0.00  0.00    +0.018 A 
ATOM     13  C   UNL     1      -4.063   4.157  -8.990  0.00  0.00    +0.016 A 
ATOM     14  C   UNL     1      -3.677   3.145  -8.138  0.00  0.00    +0.012 A 
ATOM     15 BR   UNL     1      -5.438   6.540  -9.721  0.00  0.00    -0.050 Br
ENDBRANCH   4   9
BRANCH   2  16
ATOM     16  C   UNL     1      -1.840   0.393  -4.030  0.00  0.00    +0.013 A 
ATOM     17  C   UNL     1      -0.492   0.685  -3.933  0.00  0.00    +0.008 A 
ATOM     18  C   UNL     1       0.447  -0.231  -4.365  0.00  0.00    +0.001 A 
ATOM     19  C   UNL     1       0.041  -1.442  -4.896  0.00  0.00    +0.003 A 
ATOM     20  C   UNL     1      -1.305  -1.736  -4.995  0.00  0.00    +0.039 A 
ATOM     21  C   UNL     1      -2.248  -0.821  -4.557  0.00  0.00    +0.129 A 
ATOM     22  F   UNL     1      -3.564  -1.110  -4.648  0.00  0.00    -0.205 F 
ENDBRANCH   2  16
BRANCH   4  23
ATOM     23  O   UNL     1      -3.893   0.759  -6.268  0.00  0.00    -0.506 OA
ATOM     24  H   UNL     1      -4.295   0.717  -7.183  0.00  0.00    +0.292 HD
ENDBRANCH   4  23
BRANCH   1  25
ATOM     25  C   UNL     1      -1.857   1.666  -1.171  0.00  0.00    +0.090 C 
BRANCH  25  26
ATOM     26  C   UNL     1      -3.049   1.536  -0.220  0.00  0.00    -0.060 C 
BRANCH  26  27
ATOM     27  N   UNL     1      -2.597   0.871   1.020  0.00  0.00    +0.380 N 
ATOM     28  H   UNL     1      -2.040   0.044   0.771  0.00  0.00    -0.082 HD
BRANCH  27  30
ATOM     29  C   UNL     1      -2.553   3.043   2.200  0.00  0.00    -0.017 C 
ATOM     30  C   UNL     1      -1.758   1.794   1.812  0.00  0.00    -0.082 C 
ENDBRANCH  27  30
BRANCH  27  31
ATOM     31  C   UNL     1      -3.765   0.440   1.817  0.00  0.00    -0.082 C 
ATOM     32  C   UNL     1      -3.278  -0.437   2.973  0.00  0.00    -0.017 C 
ENDBRANCH  27  31
ENDBRANCH  26  27
ENDBRANCH  25  26
ENDBRANCH   1  25
TORSDOF 8
