REMARK  Name = ZINC09789117
REMARK  5 active torsions:
REMARK  status: ('A' for Active; 'I' for Inactive)
REMARK    1  A    between atoms: C_1  and  C_2
REMARK    2  A    between atoms: C_6  and  C_16
REMARK    3  A    between atoms: N_8  and  C_9
REMARK    4  A    between atoms: C_21  and  C_24
REMARK    5  A    between atoms: N_26  and  C_27
REMARK                            x       y       z     vdW  Elec       q    Type
REMARK                         _______ _______ _______ _____ _____    ______ ____
ROOT
ATOM      1  C   UNL     1       9.380   2.472  -1.855  0.00  0.00    +0.270 C 
ATOM      2  O   UNL     1       9.415   3.399  -2.642  0.00  0.00    -0.268 OA
ATOM      3  N   UNL     1       8.206   2.095  -1.310  0.00  0.00    -0.296 N 
ATOM      4  C   UNL     1       8.139   0.942  -0.402  0.00  0.00    +0.109 C 
ATOM      5  C   UNL     1       7.072  -0.029  -0.918  0.00  0.00    +0.032 C 
ATOM      6  C   UNL     1       5.746   0.717  -1.085  0.00  0.00    +0.078 C 
ATOM      7  C   UNL     1       5.916   1.838  -2.113  0.00  0.00    +0.032 C 
ATOM      8  C   UNL     1       6.970   2.830  -1.611  0.00  0.00    +0.109 C 
ENDROOT
BRANCH   1  14
ATOM      9  C   UNL     1      14.086  -0.378  -0.344  0.00  0.00    +0.066 C 
ATOM     10  C   UNL     1      12.891   0.417  -0.802  0.00  0.00    +0.044 A 
ATOM     11  C   UNL     1      13.034   1.329  -1.792  0.00  0.00    +0.076 A 
ATOM     12  C   UNL     1      11.883   2.053  -2.198  0.00  0.00    +0.213 A 
ATOM     13  O   UNL     1      11.937   2.887  -3.088  0.00  0.00    -0.285 OA
ATOM     14  C   UNL     1      10.623   1.760  -1.498  0.00  0.00    +0.193 A 
ATOM     15  N   UNL     1      10.623   0.846  -0.549  0.00  0.00    -0.158 NA
ATOM     16  N   UNL     1      11.685   0.211  -0.216  0.00  0.00    -0.233 N 
BRANCH  16  17
ATOM     17  C   UNL     1      11.596  -0.744   0.802  0.00  0.00    +0.101 A 
ATOM     18  C   UNL     1      11.991  -2.054   0.565  0.00  0.00    +0.031 A 
ATOM     19  C   UNL     1      11.907  -2.994   1.574  0.00  0.00    +0.002 A 
ATOM     20  C   UNL     1      11.419  -2.634   2.817  0.00  0.00    +0.003 A 
ATOM     21  C   UNL     1      11.021  -1.333   3.058  0.00  0.00    +0.040 A 
ATOM     22  C   UNL     1      11.107  -0.385   2.054  0.00  0.00    +0.149 A 
ATOM     23  F   UNL     1      10.717   0.887   2.289  0.00  0.00    -0.203 F 
ENDBRANCH  16  17
ENDBRANCH   1  14
BRANCH   6  24
ATOM     24  C   UNL     1       4.686  -0.242  -1.559  0.00  0.00    +0.220 C 
ATOM     25  O   UNL     1       4.963  -1.409  -1.745  0.00  0.00    -0.275 OA
ATOM     26  N   UNL     1       3.430   0.195  -1.777  0.00  0.00    -0.285 N 
ATOM     27  H   UNL     1       3.222   1.138  -1.687  0.00  0.00    +0.155 HD
BRANCH  26  28
ATOM     28  C   UNL     1       2.424  -0.713  -2.132  0.00  0.00    +0.037 A 
ATOM     29  C   UNL     1       2.473  -2.021  -1.669  0.00  0.00    +0.027 A 
ATOM     30  C   UNL     1       1.481  -2.917  -2.018  0.00  0.00    +0.051 A 
ATOM     31  C   UNL     1       0.434  -2.513  -2.831  0.00  0.00    +0.166 A 
ATOM     32  C   UNL     1       0.382  -1.202  -3.297  0.00  0.00    +0.168 A 
ATOM     33  C   UNL     1       1.377  -0.304  -2.947  0.00  0.00    +0.072 A 
ATOM     34  O   UNL     1      -0.732  -1.059  -4.074  0.00  0.00    -0.453 OA
ATOM     35  C   UNL     1      -1.145  -2.396  -4.406  0.00  0.00    +0.466 C 
ATOM     36  O   UNL     1      -0.650  -3.191  -3.312  0.00  0.00    -0.453 OA
ENDBRANCH  26  28
ENDBRANCH   6  24
TORSDOF 4
