REMARK  Name = ZINC12866856
REMARK  9 active torsions:
REMARK  status: ('A' for Active; 'I' for Inactive)
REMARK    1  A    between atoms: C_1  and  C_2
REMARK    2  A    between atoms: C_8  and  C_23
REMARK    3  A    between atoms: C_18  and  C_22
REMARK    4  A    between atoms: C_23  and  N_70
REMARK    5  A    between atoms: C_28  and  O_37
REMARK    6  A    between atoms: C_29  and  O_35
REMARK    7  A    between atoms: C_32  and  C_34
REMARK    8  A    between atoms: O_35  and  C_36
REMARK    9  A    between atoms: O_37  and  C_38
REMARK                            x       y       z     vdW  Elec       q    Type
REMARK                         _______ _______ _______ _____ _____    ______ ____
ROOT
ATOM      1  C   UNL     1       8.122  -4.767 -10.297  0.00  0.00    +0.008 C 
ATOM      2  C   UNL     1       7.178  -4.297  -9.189  0.00  0.00    -0.007 C 
ATOM      3  C   UNL     1       5.891  -3.782  -9.821  0.00  0.00    +0.004 C 
ATOM      4  C   UNL     1       4.943  -3.186  -8.766  0.00  0.00    +0.008 C 
ATOM      5  C   UNL     1       5.705  -2.070  -8.083  0.00  0.00    +0.048 C 
ATOM      6  C   UNL     1       5.009  -1.367  -6.915  0.00  0.00    +0.088 C 
ATOM      7  C   UNL     1       6.148  -1.135  -5.924  0.00  0.00    +0.309 C 
ATOM      8  O   UNL     1       6.046  -0.585  -4.853  0.00  0.00    -0.251 OA
ATOM      9  O   UNL     1       7.299  -1.647  -6.446  0.00  0.00    -0.455 OA
ATOM     10  C   UNL     1       6.890  -2.724  -7.322  0.00  0.00    +0.149 C 
ATOM     11  C   UNL     1       7.889  -3.214  -8.352  0.00  0.00    +0.039 C 
ATOM     12  C   UNL     1       9.036  -3.909  -7.592  0.00  0.00    +0.010 C 
ATOM     13  C   UNL     1       8.532  -5.276  -7.127  0.00  0.00    +0.038 C 
ATOM     14  C   UNL     1       7.239  -5.145  -6.340  0.00  0.00    +0.097 C 
ATOM     15  C   UNL     1       6.376  -3.898  -6.488  0.00  0.00    +0.195 C 
ATOM     16  O   UNL     1       7.126  -4.187  -5.297  0.00  0.00    -0.361 OA
ATOM     17  C   UNL     1       6.490  -6.460  -6.114  0.00  0.00    +0.044 C 
ENDROOT
BRANCH   6  18
ATOM     18  C   UNL     1       3.936  -2.270  -6.303  0.00  0.00    -0.063 C 
BRANCH  18  29
ATOM     19  C   UNL     1       2.465  -0.412  -5.795  0.00  0.00    -0.073 C 
ATOM     20  C   UNL     1       2.064   0.512  -4.645  0.00  0.00    +0.017 C 
ATOM     21  C   UNL     1       1.418  -0.288  -3.542  0.00  0.00    -0.044 A 
ATOM     22  C   UNL     1       0.676   0.387  -2.584  0.00  0.00    +0.053 A 
ATOM     23  C   UNL     1       0.070  -0.305  -1.552  0.00  0.00    +0.162 A 
ATOM     24  C   UNL     1       0.212  -1.688  -1.473  0.00  0.00    +0.162 A 
ATOM     25  C   UNL     1       0.948  -2.357  -2.434  0.00  0.00    +0.051 A 
ATOM     26  C   UNL     1       1.553  -1.658  -3.469  0.00  0.00    -0.054 A 
ATOM     27  C   UNL     1       2.344  -2.434  -4.489  0.00  0.00    -0.040 C 
ATOM     28  C   UNL     1       3.184  -3.496  -3.776  0.00  0.00    -0.008 C 
ATOM     29  N   UNL     1       3.244  -1.531  -5.224  0.00  0.00    +0.385 N 
ATOM     30  H   UNL     1       3.945  -1.154  -4.575  0.00  0.00    -0.081 HD
BRANCH  24  31
ATOM     31  O   UNL     1      -0.375  -2.378  -0.459  0.00  0.00    -0.491 OA
ATOM     32  C   UNL     1      -0.185  -3.794  -0.443  0.00  0.00    +0.277 C 
ENDBRANCH  24  31
BRANCH  23  33
ATOM     33  O   UNL     1      -0.658   0.361  -0.616  0.00  0.00    -0.491 OA
ATOM     34  C   UNL     1      -0.754   1.780  -0.759  0.00  0.00    +0.277 C 
ENDBRANCH  23  33
ENDBRANCH  18  29
ENDBRANCH   6  18
TORSDOF 4
