REMARK  Name = ZINC16450552
REMARK  8 active torsions:
REMARK  status: ('A' for Active; 'I' for Inactive)
REMARK    1  A    between atoms: C_4  and  S_10
REMARK    2  A    between atoms: C_5  and  N_7
REMARK    3  A    between atoms: S_10  and  N_11
REMARK    4  A    between atoms: N_11  and  C_12
REMARK    5  A    between atoms: C_15  and  S_22
REMARK    6  A    between atoms: C_17  and  S_18
REMARK    7  A    between atoms: S_18  and  N_21
REMARK    8  A    between atoms: S_22  and  N_25
REMARK                            x       y       z     vdW  Elec       q    Type
REMARK                         _______ _______ _______ _____ _____    ______ ____
ROOT
ATOM      1  C   UNL     1       1.166   1.667  -0.000  0.00  0.00    +0.065 A 
ATOM      2  C   UNL     1       1.268   2.878   0.695  0.00  0.00    +0.047 A 
ATOM      3  C   UNL     1       2.457   3.575   0.687  0.00  0.00    +0.069 A 
ATOM      4  C   UNL     1       3.548   3.084  -0.017  0.00  0.00    +0.125 A 
ATOM      5  C   UNL     1       3.452   1.889  -0.712  0.00  0.00    +0.060 A 
ATOM      6  C   UNL     1       2.272   1.179  -0.708  0.00  0.00    +0.128 A 
ATOM      7 CL   UNL     1       2.589   5.074   1.554  0.00  0.00    -0.081 Cl
ENDROOT
BRANCH   6   8
ATOM      8  S   UNL     1       2.153  -0.341  -1.591  0.00  0.00    +0.058 S 
ATOM      9  O   UNL     1       0.965  -0.269  -2.367  0.00  0.00    -0.153 OA
ATOM     10  O   UNL     1       3.429  -0.574  -2.173  0.00  0.00    -0.153 OA
BRANCH   8  11
ATOM     11  N   UNL     1       1.917  -1.540  -0.474  0.00  0.00    -0.203 NA
ATOM     12  H   UNL     1       1.870  -1.321   0.470  0.00  0.00    +0.144 HD
ATOM     13  H   UNL     1       1.826  -2.462  -0.763  0.00  0.00    +0.144 HD
ENDBRANCH   8  11
ENDBRANCH   6   8
BRANCH   4  14
ATOM     14  S   UNL     1       5.062   3.986  -0.027  0.00  0.00    +0.057 S 
ATOM     15  O   UNL     1       5.350   4.311   1.325  0.00  0.00    -0.153 OA
ATOM     16  O   UNL     1       5.965   3.252  -0.844  0.00  0.00    -0.153 OA
BRANCH  14  17
ATOM     17  N   UNL     1       4.774   5.417  -0.808  0.00  0.00    -0.203 NA
ATOM     18  H   UNL     1       3.889   5.612  -1.154  0.00  0.00    +0.144 HD
ATOM     19  H   UNL     1       5.490   6.062  -0.919  0.00  0.00    +0.144 HD
ENDBRANCH  14  17
ENDBRANCH   4  14
BRANCH   1  20
ATOM     20  N   UNL     1      -0.011   0.966   0.007  0.00  0.00    -0.283 N 
ATOM     21  H   UNL     1       0.002  -0.004   0.002  0.00  0.00    +0.160 HD
BRANCH  20  22
ATOM     22  S   UNL     1      -1.373   1.727   0.018  0.00  0.00    -0.022 S 
BRANCH  22  26
ATOM     23  C   UNL     1      -4.206  -1.742   0.006  0.00  0.00    +0.002 A 
ATOM     24  C   UNL     1      -3.773  -1.197  -1.194  0.00  0.00    +0.001 A 
ATOM     25  C   UNL     1      -2.913  -0.136  -1.199  0.00  0.00    +0.018 A 
ATOM     26  C   UNL     1      -2.455   0.401   0.016  0.00  0.00    +0.057 A 
ATOM     27  C   UNL     1      -2.896  -0.153   1.230  0.00  0.00    +0.141 A 
ATOM     28  C   UNL     1      -3.767  -1.219   1.215  0.00  0.00    +0.034 A 
BRANCH  27  29
ATOM     29  N   UNL     1      -2.428   0.407   2.517  0.00  0.00    +0.058 N 
ATOM     30  O   UNL     1      -2.843  -0.116   3.652  0.00  0.00    -0.126 OA
ATOM     31  O   UNL     1      -1.595   1.427   2.527  0.00  0.00    -0.126 OA
ENDBRANCH  27  29
ENDBRANCH  22  26
ENDBRANCH  20  22
ENDBRANCH   1  20
TORSDOF 8
