REMARK  Name = ZINC63560393
REMARK  5 active torsions:
REMARK  status: ('A' for Active; 'I' for Inactive)
REMARK    1  A    between atoms: C_1  and  C_2
REMARK    2  A    between atoms: C_4  and  C_24
REMARK    3  A    between atoms: N_6  and  C_13
REMARK    4  A    between atoms: C_13  and  C_14
REMARK    5  A    between atoms: C_14  and  C_15
REMARK                            x       y       z     vdW  Elec       q    Type
REMARK                         _______ _______ _______ _____ _____    ______ ____
ROOT
ATOM      1  C   UNL     1       0.258   1.396  -0.483  0.00  0.00    +0.067 C 
ATOM      2  C   UNL     1       0.120  -0.083  -0.233  0.00  0.00    +0.064 C 
ATOM      3  C   UNL     1      -1.019  -0.721  -0.171  0.00  0.00    +0.013 C 
ATOM      4  C   UNL     1      -2.487  -0.969  -0.431  0.00  0.00    +0.137 C 
ATOM      5  N   UNL     1      -2.490  -2.311  -1.065  0.00  0.00    -0.288 N 
ATOM      6  C   UNL     1      -1.369  -2.992  -0.697  0.00  0.00    +0.247 C 
ATOM      7  O   UNL     1      -1.040  -4.092  -1.087  0.00  0.00    -0.273 OA
ATOM      8  C   UNL     1      -0.619  -2.136   0.278  0.00  0.00    +0.243 C 
ATOM      9  N   UNL     1       0.827  -2.106   0.184  0.00  0.00    -0.170 NA
ATOM     10  N   UNL     1       1.162  -0.933  -0.049  0.00  0.00    -0.158 NA
ENDROOT
BRANCH   4  11
ATOM     11  C   UNL     1      -3.045   0.070  -1.370  0.00  0.00    -0.022 A 
ATOM     12  C   UNL     1      -3.884   1.058  -0.888  0.00  0.00    +0.006 A 
ATOM     13  C   UNL     1      -4.396   2.010  -1.748  0.00  0.00    +0.001 A 
ATOM     14  C   UNL     1      -4.070   1.976  -3.091  0.00  0.00    +0.015 A 
ATOM     15  C   UNL     1      -3.231   0.988  -3.574  0.00  0.00    +0.018 A 
ATOM     16  C   UNL     1      -2.714   0.038  -2.711  0.00  0.00    +0.021 A 
ATOM     17 BR   UNL     1      -2.785   0.940  -5.411  0.00  0.00    -0.050 Br
ENDBRANCH   4  11
BRANCH   5  18
ATOM     18  C   UNL     1      -3.538  -2.824  -1.950  0.00  0.00    +0.113 C 
BRANCH  18  19
ATOM     19  C   UNL     1      -4.534  -3.652  -1.136  0.00  0.00    +0.052 C 
BRANCH  19  20
ATOM     20  C   UNL     1      -5.569  -4.242  -2.058  0.00  0.00    -0.040 C 
ATOM     21  C   UNL     1      -5.556  -5.477  -2.611  0.00  0.00    -0.001 A 
ATOM     22  C   UNL     1      -4.610  -6.596  -2.523  0.00  0.00    +0.010 A 
ATOM     23  C   UNL     1      -4.874  -7.732  -3.207  0.00  0.00    +0.001 A 
ATOM     24  C   UNL     1      -6.025  -7.868  -3.995  0.00  0.00    +0.002 A 
ATOM     25  C   UNL     1      -6.940  -6.885  -4.125  0.00  0.00    +0.026 A 
ATOM     26  C   UNL     1      -6.764  -5.646  -3.449  0.00  0.00    +0.043 A 
ATOM     27  N   UNL     1      -7.495  -4.558  -3.416  0.00  0.00    -0.380 N 
ATOM     28  C   UNL     1      -6.836  -3.577  -2.547  0.00  0.00    +0.144 C 
ATOM     29  H   UNL     1      -8.334  -4.425  -3.885  0.00  0.00    +0.160 HD
ENDBRANCH  19  20
ENDBRANCH  18  19
ENDBRANCH   5  18
TORSDOF 4
