REMARK  Name = ZINC00679746
REMARK  1 active torsions:
REMARK  status: ('A' for Active; 'I' for Inactive)
REMARK    1  A    between atoms: C_11  and  C_13
REMARK                            x       y       z     vdW  Elec       q    Type
REMARK                         _______ _______ _______ _____ _____    ______ ____
ROOT
ATOM      1  C   UNL     1      -8.845   1.389   0.047  0.00  0.00    +0.019 A 
ATOM      2  C   UNL     1      -9.425   0.134   0.043  0.00  0.00    +0.023 A 
ATOM      3  C   UNL     1      -8.612  -0.991   0.034  0.00  0.00    +0.061 A 
ATOM      4  C   UNL     1      -7.244  -0.886   0.029  0.00  0.00    +0.086 A 
ATOM      5  C   UNL     1      -6.617   0.383   0.033  0.00  0.00    +0.100 A 
ATOM      6  C   UNL     1      -7.477   1.504   0.043  0.00  0.00    +0.042 A 
ATOM      7  S   UNL     1      -6.330   2.861   0.045  0.00  0.00    -0.052 S 
ATOM      8  C   UNL     1      -4.831   1.887   0.033  0.00  0.00    +0.166 A 
ATOM      9  N   UNL     1      -5.295   0.659   0.024  0.00  0.00    -0.223 NA
ATOM     10  N   UNL     1      -3.516   2.319   0.030  0.00  0.00    -0.258 N 
ATOM     11  C   UNL     1      -2.512   1.420   0.021  0.00  0.00    +0.285 C 
ATOM     12  O   UNL     1      -2.762   0.229   0.016  0.00  0.00    -0.266 OA
ATOM     13 CL   UNL     1      -6.272  -2.324   0.017  0.00  0.00    -0.080 Cl
ATOM     14 CL   UNL     1      -9.343  -2.566   0.028  0.00  0.00    -0.082 Cl
ATOM     15  H   UNL     1      -3.317   3.268   0.034  0.00  0.00    +0.157 HD
ENDROOT
BRANCH  11  16
ATOM     16  C   UNL     1      -1.120   1.876   0.017  0.00  0.00    +0.191 A 
ATOM     17  C   UNL     1      -0.013   1.076   0.008  0.00  0.00    +0.056 A 
ATOM     18  C   UNL     1       1.101   1.928   0.002  0.00  0.00    +0.058 A 
ATOM     19  C   UNL     1       0.632   3.197   0.012  0.00  0.00    +0.171 A 
ATOM     20  O   UNL     1      -0.707   3.161   0.025  0.00  0.00    -0.444 OA
ATOM     21 BR   UNL     1       1.692   4.763   0.011  0.00  0.00    -0.008 Br
ENDBRANCH  11  16
TORSDOF 1
