REMARK  Name = ZINC00818656
REMARK  9 active torsions:
REMARK  status: ('A' for Active; 'I' for Inactive)
REMARK    1  A    between atoms: C_1  and  C_2
REMARK    2  A    between atoms: C_4  and  C_11
REMARK    3  A    between atoms: C_5  and  C_10
REMARK    4  A    between atoms: C_7  and  O_8
REMARK    5  A    between atoms: O_8  and  C_9
REMARK    6  A    between atoms: C_13  and  C_26
REMARK    7  A    between atoms: C_14  and  N_25
REMARK    8  A    between atoms: C_21  and  C_23
REMARK    9  A    between atoms: C_21  and  C_24
REMARK                            x       y       z     vdW  Elec       q    Type
REMARK                         _______ _______ _______ _____ _____    ______ ____
ROOT
ATOM      1  C   UNL     1      -2.822   1.746  -0.096  0.00  0.00    +0.101 C 
ATOM      2  C   UNL     1      -3.263   3.103  -0.568  0.00  0.00    +0.098 C 
ATOM      3  C   UNL     1      -4.544   3.509  -0.391  0.00  0.00    +0.198 C 
ATOM      4  O   UNL     1      -5.450   2.720   0.209  0.00  0.00    -0.445 OA
ATOM      5  C   UNL     1      -5.253   1.389   0.254  0.00  0.00    +0.115 C 
ATOM      6  C   UNL     1      -4.024   0.858   0.123  0.00  0.00    +0.046 C 
ATOM      7  C   UNL     1      -3.817  -0.533   0.188  0.00  0.00    +0.164 C 
ATOM      8  O   UNL     1      -2.694  -0.976   0.052  0.00  0.00    -0.292 OA
ATOM      9  C   UNL     1      -4.961  -1.482   0.422  0.00  0.00    +0.086 C 
ATOM     10  C   UNL     1      -6.050  -0.757   1.221  0.00  0.00    -0.021 C 
ATOM     11  C   UNL     1      -6.459   0.501   0.453  0.00  0.00    +0.081 C 
ATOM     12  C   UNL     1      -5.504  -0.366   2.596  0.00  0.00    +0.012 C 
ATOM     13  C   UNL     1      -7.264  -1.673   1.392  0.00  0.00    +0.012 C 
ENDROOT
BRANCH   1  17
ATOM     14  C   UNL     1      -2.734   2.929   4.765  0.00  0.00    +0.047 C 
ATOM     15  C   UNL     1      -2.022   2.454   3.524  0.00  0.00    -0.009 A 
ATOM     16  C   UNL     1      -2.717   2.318   2.338  0.00  0.00    +0.011 A 
ATOM     17  C   UNL     1      -2.063   1.888   1.198  0.00  0.00    -0.031 A 
ATOM     18  C   UNL     1      -0.715   1.583   1.245  0.00  0.00    -0.043 A 
ATOM     19  C   UNL     1      -0.016   1.718   2.429  0.00  0.00    +0.049 A 
ATOM     20  C   UNL     1      -0.669   2.155   3.573  0.00  0.00    +0.123 A 
ATOM     21  C   UNL     1      -0.007   1.110   0.002  0.00  0.00    +0.044 C 
BRANCH  20  22
ATOM     22  O   UNL     1       0.017   2.287   4.739  0.00  0.00    -0.495 OA
ATOM     23  C   UNL     1       1.407   1.960   4.714  0.00  0.00    +0.277 C 
ENDBRANCH  20  22
ENDBRANCH   1  17
BRANCH   3  24
ATOM     24  N   UNL     1      -4.923   4.751  -0.834  0.00  0.00    -0.328 N 
ATOM     25  H   UNL     1      -5.837   5.052  -0.712  0.00  0.00    +0.145 HD
ATOM     26  H   UNL     1      -4.276   5.329  -1.268  0.00  0.00    +0.145 HD
ENDBRANCH   3  24
BRANCH   2  27
ATOM     27  C   UNL     1      -2.323   3.974  -1.208  0.00  0.00    +0.101 C 
ATOM     28  N   UNL     1      -1.577   4.664  -1.716  0.00  0.00    -0.191 NA
ENDBRANCH   2  27
TORSDOF 4
