REMARK  Name = ZINC46915182
REMARK  10 active torsions:
REMARK  status: ('A' for Active; 'I' for Inactive)
REMARK    1  A    between atoms: C_1  and  C_2
REMARK    2  A    between atoms: C_5  and  C_8
REMARK    3  A    between atoms: C_10  and  C_13
REMARK    4  A    between atoms: C_14  and  N_32
REMARK    5  A    between atoms: N_15  and  C_20
REMARK    6  A    between atoms: C_17  and  S_18
REMARK    7  A    between atoms: S_18  and  C_19
REMARK    8  A    between atoms: C_20  and  C_21
REMARK    9  A    between atoms: N_23  and  C_24
REMARK   10  A    between atoms: C_29  and  C_30
REMARK                            x       y       z     vdW  Elec       q    Type
REMARK                         _______ _______ _______ _____ _____    ______ ____
ROOT
ATOM      1  C   UNL     1       0.108  -7.467   1.591  0.00  0.00    +0.112 A 
ATOM      2  C   UNL     1       0.135  -8.808   1.223  0.00  0.00    +0.129 A 
ATOM      3  N   UNL     1       0.134  -9.535   2.359  0.00  0.00    -0.240 N 
ATOM      4  N   UNL     1       0.107  -8.659   3.450  0.00  0.00    -0.162 NA
ATOM      5  C   UNL     1       0.098  -7.426   3.010  0.00  0.00    +0.133 A 
ENDROOT
BRANCH   1   8
ATOM      6  C   UNL     1       0.076  -4.260  -0.043  0.00  0.00    +0.202 A 
ATOM      7  N   UNL     1       0.079  -5.045   1.045  0.00  0.00    -0.187 NA
ATOM      8  C   UNL     1       0.099  -6.311   0.684  0.00  0.00    +0.265 A 
ATOM      9  O   UNL     1       0.109  -6.362  -0.661  0.00  0.00    -0.332 OA
ATOM     10  N   UNL     1       0.089  -5.017  -1.113  0.00  0.00    -0.056 NA
BRANCH   6  15
ATOM     11  C   UNL     1      -0.007   1.500  -0.016  0.00  0.00    +0.044 C 
ATOM     12  C   UNL     1       0.014  -0.007  -0.023  0.00  0.00    -0.050 A 
ATOM     13  C   UNL     1       0.028  -0.691  -1.226  0.00  0.00    +0.004 A 
ATOM     14  C   UNL     1       0.048  -2.071  -1.238  0.00  0.00    +0.012 A 
ATOM     15  C   UNL     1       0.055  -2.775  -0.036  0.00  0.00    +0.022 A 
ATOM     16  C   UNL     1       0.041  -2.082   1.172  0.00  0.00    +0.012 A 
ATOM     17  C   UNL     1       0.026  -0.702   1.173  0.00  0.00    +0.004 A 
ENDBRANCH   6  15
ENDBRANCH   1   8
BRANCH   2  18
ATOM     18  N   UNL     1       0.157  -9.303  -0.068  0.00  0.00    -0.343 N 
ATOM     19  H   UNL     1       0.154  -8.693  -0.822  0.00  0.00    +0.144 HD
ATOM     20  H   UNL     1       0.175 -10.261  -0.219  0.00  0.00    +0.144 HD
ENDBRANCH   2  18
BRANCH   5  21
ATOM     21  S   UNL     1       0.072  -5.972   4.004  0.00  0.00    -0.107 S 
ATOM     22  C   UNL     1       0.069  -6.603   5.705  0.00  0.00    +0.091 C 
ENDBRANCH   5  21
BRANCH   3  23
ATOM     23  C   UNL     1       0.158 -10.998   2.438  0.00  0.00    +0.241 C 
BRANCH  23  24
ATOM     24  C   UNL     1       1.586 -11.476   2.480  0.00  0.00    +0.239 C 
ATOM     25  O   UNL     1       2.495 -10.674   2.448  0.00  0.00    -0.273 OA
ATOM     26  N   UNL     1       1.854 -12.795   2.554  0.00  0.00    -0.284 N 
ATOM     27  H   UNL     1       1.129 -13.431   2.660  0.00  0.00    +0.155 HD
BRANCH  26  28
ATOM     28  C   UNL     1       3.176 -13.246   2.477  0.00  0.00    +0.038 A 
ATOM     29  C   UNL     1       4.137 -12.477   1.833  0.00  0.00    +0.023 A 
ATOM     30  C   UNL     1       5.441 -12.924   1.758  0.00  0.00    +0.003 A 
ATOM     31  C   UNL     1       5.792 -14.137   2.324  0.00  0.00    +0.020 A 
ATOM     32  C   UNL     1       4.837 -14.905   2.966  0.00  0.00    +0.046 A 
ATOM     33  C   UNL     1       3.531 -14.460   3.049  0.00  0.00    -0.011 A 
ATOM     34  C   UNL     1       2.493 -15.294   3.753  0.00  0.00    +0.047 C 
ATOM     35 CL   UNL     1       5.281 -16.427   3.674  0.00  0.00    -0.083 Cl
ENDBRANCH  26  28
ENDBRANCH  23  24
ENDBRANCH   3  23
TORSDOF 7
