REMARK  Name = ZINC05100074
REMARK  15 active torsions:
REMARK  status: ('A' for Active; 'I' for Inactive)
REMARK    1  A    between atoms: C_1  and  C_2
REMARK    2  A    between atoms: C_2  and  C_3
REMARK    3  A    between atoms: C_3  and  C_4
REMARK    4  A    between atoms: C_4  and  O_5
REMARK    5  A    between atoms: O_5  and  C_6
REMARK    6  A    between atoms: C_9  and  C_12
REMARK    7  A    between atoms: N_14  and  C_15
REMARK    8  A    between atoms: N_14  and  C_18
REMARK    9  A    between atoms: C_15  and  C_16
REMARK   10  A    between atoms: C_16  and  C_17
REMARK   11  A    between atoms: C_18  and  C_19
REMARK   12  A    between atoms: N_21  and  C_22
REMARK   13  A    between atoms: N_21  and  C_29
REMARK   14  A    between atoms: C_22  and  C_23
REMARK   15  A    between atoms: N_27  and  C_28
REMARK                            x       y       z     vdW  Elec       q    Type
REMARK                         _______ _______ _______ _____ _____    ______ ____
ROOT
ATOM      1  C   UNL     1      -3.119  -8.208  -0.100  0.00  0.00    +0.247 C 
ATOM      2  O   UNL     1      -2.901  -7.014  -0.030  0.00  0.00    -0.270 OA
ATOM      3  N   UNL     1      -4.387  -8.664  -0.079  0.00  0.00    -0.289 N 
ENDROOT
BRANCH   1   7
ATOM      4  C   UNL     1       0.114 -10.944  -0.413  0.00  0.00    +0.121 A 
ATOM      5  C   UNL     1      -0.864 -11.134   0.556  0.00  0.00    +0.046 A 
ATOM      6  C   UNL     1      -1.913 -10.249   0.661  0.00  0.00    +0.016 A 
ATOM      7  C   UNL     1      -1.995  -9.159  -0.209  0.00  0.00    +0.037 A 
ATOM      8  C   UNL     1      -1.010  -8.971  -1.182  0.00  0.00    +0.016 A 
ATOM      9  C   UNL     1       0.039  -9.857  -1.277  0.00  0.00    +0.046 A 
BRANCH   4  10
ATOM     10  O   UNL     1       1.147 -11.818  -0.513  0.00  0.00    -0.492 OA
BRANCH  10  11
ATOM     11  C   UNL     1       1.162 -12.912   0.406  0.00  0.00    +0.229 C 
BRANCH  11  12
ATOM     12  C   UNL     1       2.393 -13.783   0.142  0.00  0.00    +0.041 C 
BRANCH  12  14
ATOM     13  C   UNL     1       3.639 -15.825   0.862  0.00  0.00    +0.004 C 
ATOM     14  C   UNL     1       2.409 -14.955   1.126  0.00  0.00    -0.000 C 
ENDBRANCH  12  14
ENDBRANCH  11  12
ENDBRANCH  10  11
ENDBRANCH   4  10
ENDBRANCH   1   7
BRANCH   3  15
ATOM     15  C   UNL     1      -5.505  -7.718  -0.047  0.00  0.00    +0.108 C 
BRANCH  15  16
ATOM     16  C   UNL     1      -5.998  -7.462  -1.473  0.00  0.00    +0.016 C 
ATOM     17  C   UNL     1      -7.166  -6.474  -1.439  0.00  0.00    +0.005 C 
ENDBRANCH  15  16
ENDBRANCH   3  15
BRANCH   3  18
ATOM     18  C   UNL     1      -4.648 -10.105  -0.089  0.00  0.00    +0.204 C 
BRANCH  18  19
ATOM     19  C   UNL     1      -4.799 -10.598   1.327  0.00  0.00    +0.234 C 
ATOM     20  O   UNL     1      -4.784  -9.809   2.248  0.00  0.00    -0.274 OA
ATOM     21  N   UNL     1      -4.952 -11.915   1.570  0.00  0.00    -0.291 N 
BRANCH  21  22
ATOM     22  C   UNL     1      -4.853 -12.879   0.471  0.00  0.00    +0.077 C 
ATOM     23  C   UNL     1      -5.246 -14.328   0.765  0.00  0.00    +0.024 C 
ATOM     24  C   UNL     1      -3.774 -13.958   0.573  0.00  0.00    +0.024 C 
ENDBRANCH  21  22
BRANCH  21  25
ATOM     25  C   UNL     1      -5.216 -12.382   2.933  0.00  0.00    +0.161 C 
BRANCH  25  26
ATOM     26  C   UNL     1      -6.703 -12.423   3.171  0.00  0.00    +0.036 A 
ATOM     27  C   UNL     1      -7.497 -13.505   3.032  0.00  0.00    +0.024 A 
ATOM     28  C   UNL     1      -8.810 -13.108   3.350  0.00  0.00    +0.019 A 
ATOM     29  C   UNL     1      -8.770 -11.799   3.672  0.00  0.00    +0.085 A 
ATOM     30  N   UNL     1      -7.478 -11.375   3.569  0.00  0.00    -0.352 N 
ATOM     31  C   UNL     1      -7.002 -10.016   3.839  0.00  0.00    +0.148 C 
ENDBRANCH  25  26
ENDBRANCH  21  25
ENDBRANCH  18  19
ENDBRANCH   3  18
TORSDOF 12
