REMARK  Name = ZINC20792529
REMARK  3 active torsions:
REMARK  status: ('A' for Active; 'I' for Inactive)
REMARK    1  A    between atoms: C_6  and  N_7
REMARK    2  A    between atoms: C_11  and  N_12
REMARK    3  A    between atoms: N_12  and  C_13
REMARK                            x       y       z     vdW  Elec       q    Type
REMARK                         _______ _______ _______ _____ _____    ______ ____
ROOT
ATOM      1  N   UNL     1      -1.204  -0.719  -0.059  0.00  0.00    -0.190 N 
ATOM      2  C   UNL     1      -1.170  -2.064  -0.156  0.00  0.00    +0.265 C 
ATOM      3  O   UNL     1      -0.115  -2.654  -0.290  0.00  0.00    -0.269 OA
ATOM      4  C   UNL     1      -2.446  -2.799  -0.094  0.00  0.00    +0.113 C 
ATOM      5  C   UNL     1      -2.489  -4.178  -0.186  0.00  0.00    +0.086 C 
ATOM      6  C   UNL     1      -3.673  -2.000   0.070  0.00  0.00    +0.258 C 
ATOM      7  O   UNL     1      -4.764  -2.535   0.129  0.00  0.00    -0.270 OA
ATOM      8  N   UNL     1      -3.555  -0.658   0.153  0.00  0.00    -0.235 N 
ATOM      9  C   UNL     1      -2.359  -0.056   0.095  0.00  0.00    +0.320 C 
ATOM     10  O   UNL     1      -2.320   1.156   0.181  0.00  0.00    -0.251 OA
ATOM     11  H   UNL     1      -4.353  -0.118   0.261  0.00  0.00    +0.159 HD
ENDROOT
BRANCH   1  17
ATOM     12  C   UNL     1       0.478   0.641   1.020  0.00  0.00    +0.025 A 
ATOM     13  C   UNL     1       1.662   1.351   0.963  0.00  0.00    +0.022 A 
ATOM     14  C   UNL     1       2.368   1.425  -0.225  0.00  0.00    +0.041 A 
ATOM     15  C   UNL     1       1.891   0.789  -1.357  0.00  0.00    +0.022 A 
ATOM     16  C   UNL     1       0.708   0.079  -1.305  0.00  0.00    +0.025 A 
ATOM     17  C   UNL     1      -0.003   0.002  -0.115  0.00  0.00    +0.046 A 
ATOM     18 CL   UNL     1       3.856   2.317  -0.293  0.00  0.00    -0.084 Cl
ENDBRANCH   1  17
BRANCH   5  19
ATOM     19  N   UNL     1      -1.344  -4.889  -0.198  0.00  0.00    -0.343 N 
ATOM     20  H   UNL     1      -0.494  -4.441  -0.062  0.00  0.00    +0.146 HD
BRANCH  19  21
ATOM     21  C   UNL     1      -1.383  -6.337  -0.417  0.00  0.00    +0.032 C 
ATOM     22  C   UNL     1      -2.014  -6.630  -1.779  0.00  0.00    +0.029 C 
ATOM     23  C   UNL     1      -2.055  -8.142  -2.008  0.00  0.00    -0.008 C 
ATOM     24  C   UNL     1      -0.631  -8.702  -1.974  0.00  0.00    +0.007 C 
ATOM     25  C   UNL     1      -0.000  -8.409  -0.611  0.00  0.00    -0.008 C 
ATOM     26  C   UNL     1       0.041  -6.896  -0.383  0.00  0.00    +0.029 C 
ATOM     27  C   UNL     1      -0.834  -9.068   0.489  0.00  0.00    +0.007 C 
ATOM     28  C   UNL     1      -2.257  -8.509   0.456  0.00  0.00    -0.008 C 
ATOM     29  C   UNL     1      -2.888  -8.802  -0.907  0.00  0.00    +0.007 C 
ATOM     30  C   UNL     1      -2.216  -6.996   0.684  0.00  0.00    +0.029 C 
ENDBRANCH  19  21
ENDBRANCH   5  19
TORSDOF 3
