REMARK  Name = ZINC62326404
REMARK  6 active torsions:
REMARK  status: ('A' for Active; 'I' for Inactive)
REMARK    1  A    between atoms: C_1  and  C_2
REMARK    2  A    between atoms: C_2  and  C_3
REMARK    3  A    between atoms: C_2  and  C_4
REMARK    4  A    between atoms: C_14  and  S_16
REMARK    5  A    between atoms: S_16  and  C_17
REMARK    6  A    between atoms: C_17  and  C_18
REMARK                            x       y       z     vdW  Elec       q    Type
REMARK                         _______ _______ _______ _____ _____    ______ ____
ROOT
ATOM      1  C   UNL     1       0.731  -0.503   1.223  0.00  0.00    -0.043 A 
ATOM      2  C   UNL     1       2.051  -0.148   1.434  0.00  0.00    +0.006 A 
ATOM      3  C   UNL     1       2.725  -0.602   2.549  0.00  0.00    +0.027 A 
ATOM      4  C   UNL     1       2.077  -1.421   3.466  0.00  0.00    +0.083 A 
ATOM      5  C   UNL     1       0.749  -1.771   3.247  0.00  0.00    +0.136 A 
ATOM      6  C   UNL     1       0.078  -1.313   2.136  0.00  0.00    +0.035 A 
ATOM      7  S   UNL     1      -0.057  -2.805   4.428  0.00  0.00    +0.103 S 
ATOM      8  O   UNL     1      -1.261  -2.147   4.795  0.00  0.00    -0.146 OA
ATOM      9  O   UNL     1      -0.035  -4.124   3.900  0.00  0.00    -0.146 OA
ATOM     10  N   UNL     1       0.917  -2.806   5.770  0.00  0.00    -0.104 NA
ATOM     11  C   UNL     1       2.134  -2.371   5.709  0.00  0.00    +0.199 C 
ATOM     12  N   UNL     1       2.747  -1.889   4.593  0.00  0.00    -0.187 NA
ENDROOT
BRANCH   1  14
ATOM     13  C   UNL     1      -0.019   1.526   0.010  0.00  0.00    +0.012 C 
ATOM     14  C   UNL     1       0.002  -0.004   0.002  0.00  0.00    +0.013 C 
ATOM     15  C   UNL     1       0.718  -0.497  -1.257  0.00  0.00    +0.012 C 
ENDBRANCH   1  14
BRANCH  11  16
ATOM     16  S   UNL     1       3.078  -2.405   7.197  0.00  0.00    -0.083 S 
BRANCH  16  17
ATOM     17  C   UNL     1       1.937  -3.097   8.425  0.00  0.00    +0.103 C 
BRANCH  17  18
ATOM     18  C   UNL     1       2.628  -3.181   9.761  0.00  0.00    -0.023 C 
ATOM     19  C   UNL     1       2.204  -2.455  10.766  0.00  0.00    +0.005 C 
ENDBRANCH  17  18
ENDBRANCH  16  17
ENDBRANCH  11  16
TORSDOF 4
