REMARK  Name = ZINC20852822
REMARK  4 active torsions:
REMARK  status: ('A' for Active; 'I' for Inactive)
REMARK    1  A    between atoms: C_1  and  C_2
REMARK    2  A    between atoms: N_11  and  C_15
REMARK    3  A    between atoms: C_15  and  C_16
REMARK    4  A    between atoms: C_21  and  C_24
REMARK                            x       y       z     vdW  Elec       q    Type
REMARK                         _______ _______ _______ _____ _____    ______ ____
ROOT
ATOM      1  C   UNL     1      -0.018   1.503   0.010  0.00  0.00    +0.237 C 
ATOM      2  O   UNL     1       1.024   2.123   0.004  0.00  0.00    -0.274 OA
ATOM      3  N   UNL     1      -1.195   2.161   0.019  0.00  0.00    -0.263 N 
ATOM      4  C   UNL     1      -1.213   3.550   0.027  0.00  0.00    +0.165 A 
ATOM      5  N   UNL     1      -2.247   4.371   0.036  0.00  0.00    -0.225 NA
ATOM      6  C   UNL     1      -2.081   5.685   0.043  0.00  0.00    +0.082 A 
ATOM      7  C   UNL     1      -0.815   6.202   0.041  0.00  0.00    +0.077 A 
ATOM      8  S   UNL     1       0.155   4.700   0.035  0.00  0.00    -0.060 S 
ATOM      9  H   UNL     1      -2.140   1.598   0.021  0.00  0.00    +0.157 HD
ENDROOT
BRANCH   6  10
ATOM     10  C   UNL     1      -3.257   6.588   0.054  0.00  0.00    +0.019 A 
ATOM     11  C   UNL     1      -3.078   7.971   0.068  0.00  0.00    +0.013 A 
ATOM     12  C   UNL     1      -4.176   8.806   0.073  0.00  0.00    +0.021 A 
ATOM     13  C   UNL     1      -5.455   8.275   0.076  0.00  0.00    +0.042 A 
ATOM     14  C   UNL     1      -5.639   6.903   0.068  0.00  0.00    +0.040 A 
ATOM     15  C   UNL     1      -4.547   6.057   0.057  0.00  0.00    +0.052 A 
ATOM     16 CL   UNL     1      -4.779   4.337   0.048  0.00  0.00    -0.083 Cl
ATOM     17 CL   UNL     1      -6.831   9.333   0.090  0.00  0.00    -0.083 Cl
ENDBRANCH   6  10
BRANCH   1  18
ATOM     18  C   UNL     1       0.002  -0.004   0.002  0.00  0.00    +0.214 C 
BRANCH  18  28
ATOM     19  C   UNL     1       2.614  -3.520  -0.686  0.00  0.00    +0.010 C 
ATOM     20  C   UNL     1       3.736  -2.591  -1.156  0.00  0.00    +0.018 C 
ATOM     21  C   UNL     1       3.801  -2.604  -2.685  0.00  0.00    +0.006 C 
ATOM     22  C   UNL     1       4.909  -1.659  -3.155  0.00  0.00    +0.000 C 
ATOM     23  C   UNL     1       4.604  -0.237  -2.680  0.00  0.00    +0.003 C 
ATOM     24  C   UNL     1       4.541  -0.214  -1.150  0.00  0.00    +0.035 C 
ATOM     25  C   UNL     1       3.458  -1.173  -0.669  0.00  0.00    +0.115 C 
ATOM     26  C   UNL     1       2.096  -0.716  -1.138  0.00  0.00    +0.247 C 
ATOM     27  O   UNL     1       1.718  -0.591  -2.283  0.00  0.00    -0.273 OA
ATOM     28  N   UNL     1       1.390  -0.473  -0.014  0.00  0.00    -0.215 N 
ATOM     29  C   UNL     1       2.113  -0.721   1.085  0.00  0.00    +0.310 C 
ATOM     30  O   UNL     1       1.692  -0.581   2.217  0.00  0.00    -0.252 OA
ATOM     31  N   UNL     1       3.359  -1.143   0.796  0.00  0.00    -0.285 N 
ATOM     32  H   UNL     1       4.222  -1.437   1.412  0.00  0.00    +0.151 HD
ENDBRANCH  18  28
ENDBRANCH   1  18
TORSDOF 3
