REMARK  Name = ZINC12750690
REMARK  9 active torsions:
REMARK  status: ('A' for Active; 'I' for Inactive)
REMARK    1  A    between atoms: C_1  and  C_2
REMARK    2  A    between atoms: C_2  and  C_4
REMARK    3  A    between atoms: C_2  and  N_51
REMARK    4  A    between atoms: N_6  and  C_7
REMARK    5  A    between atoms: C_10  and  C_13
REMARK    6  A    between atoms: C_16  and  N_51
REMARK    7  A    between atoms: C_17  and  C_18
REMARK    8  A    between atoms: C_17  and  N_51
REMARK    9  A    between atoms: C_21  and  C_23
REMARK                            x       y       z     vdW  Elec       q    Type
REMARK                         _______ _______ _______ _____ _____    ______ ____
ROOT
ATOM      1  C   UNL     1       1.577  -4.353  -0.871  0.00  0.00    -0.004 C 
ATOM      2  C   UNL     1       2.572  -3.862   0.183  0.00  0.00    +0.017 C 
ENDROOT
BRANCH   2   3
ATOM      3  C   UNL     1       2.037  -4.166   1.559  0.00  0.00    +0.203 C 
ATOM      4  O   UNL     1       2.531  -5.056   2.218  0.00  0.00    -0.277 OA
ATOM      5  N   UNL     1       1.010  -3.448   2.056  0.00  0.00    -0.287 N 
ATOM      6  H   UNL     1       0.565  -2.789   1.501  0.00  0.00    +0.155 HD
BRANCH   5   7
ATOM      7  C   UNL     1       0.588  -3.653   3.369  0.00  0.00    +0.033 A 
ATOM      8  C   UNL     1       1.511  -4.013   4.347  0.00  0.00    +0.024 A 
ATOM      9  C   UNL     1       1.098  -4.216   5.644  0.00  0.00    +0.015 A 
ATOM     10  C   UNL     1      -0.250  -4.060   5.979  0.00  0.00    +0.037 A 
ATOM     11  C   UNL     1      -1.174  -3.699   4.995  0.00  0.00    +0.015 A 
ATOM     12  C   UNL     1      -0.754  -3.498   3.699  0.00  0.00    +0.024 A 
BRANCH  10  13
ATOM     13  C   UNL     1      -0.697  -4.278   7.369  0.00  0.00    +0.242 C 
ATOM     14  O   UNL     1       0.108  -4.593   8.224  0.00  0.00    -0.270 OA
ATOM     15  N   UNL     1      -1.997  -4.127   7.690  0.00  0.00    -0.325 N 
ATOM     16  H   UNL     1      -2.639  -3.876   7.008  0.00  0.00    +0.145 HD
ATOM     17  H   UNL     1      -2.291  -4.270   8.604  0.00  0.00    +0.145 HD
ENDBRANCH  10  13
ENDBRANCH   5   7
ENDBRANCH   2   3
BRANCH   2  19
ATOM     18  C   UNL     1       4.587  -3.989  -1.153  0.00  0.00    -0.095 C 
ATOM     19  N   UNL     1       3.876  -4.539   0.020  0.00  0.00    +0.390 N 
ATOM     20  H   UNL     1       4.443  -4.377   0.861  0.00  0.00    -0.081 HD
BRANCH  19  21
ATOM     21  C   UNL     1       3.672  -5.993  -0.149  0.00  0.00    -0.002 C 
BRANCH  21  22
ATOM     22  C   UNL     1       5.011  -6.681  -0.091  0.00  0.00    +0.089 A 
ATOM     23  C   UNL     1       5.616  -7.132   1.025  0.00  0.00    +0.043 A 
ATOM     24  C   UNL     1       6.840  -7.707   0.629  0.00  0.00    +0.050 A 
ATOM     25  C   UNL     1       6.920  -7.566  -0.721  0.00  0.00    +0.135 A 
ATOM     26  O   UNL     1       5.804  -6.942  -1.144  0.00  0.00    -0.462 OA
BRANCH  25  27
ATOM     27  C   UNL     1       8.038  -8.018  -1.575  0.00  0.00    +0.017 A 
ATOM     28  C   UNL     1       9.144  -8.650  -1.005  0.00  0.00    +0.012 A 
ATOM     29  C   UNL     1      10.182  -9.074  -1.809  0.00  0.00    +0.016 A 
ATOM     30  C   UNL     1      10.133  -8.865  -3.176  0.00  0.00    +0.018 A 
ATOM     31  C   UNL     1       9.040  -8.234  -3.747  0.00  0.00    +0.016 A 
ATOM     32  C   UNL     1       7.994  -7.810  -2.955  0.00  0.00    +0.012 A 
ATOM     33 BR   UNL     1      11.563  -9.443  -4.270  0.00  0.00    -0.050 Br
ENDBRANCH  25  27
ENDBRANCH  21  22
ENDBRANCH  19  21
ENDBRANCH   2  19
TORSDOF 7
