REMARK  Name = ZINC16043139
REMARK  7 active torsions:
REMARK  status: ('A' for Active; 'I' for Inactive)
REMARK    1  A    between atoms: C_9  and  C_11
REMARK    2  A    between atoms: N_12  and  N_13
REMARK    3  A    between atoms: N_22  and  C1*_23
REMARK    4  A    between atoms: C2*_25  and  O2*_35
REMARK    5  A    between atoms: C3*_27  and  O3*_34
REMARK    6  A    between atoms: C4*_29  and  C5*_32
REMARK    7  A    between atoms: C5*_32  and  O5*_33
REMARK                            x       y       z     vdW  Elec       q    Type
REMARK                         _______ _______ _______ _____ _____    ______ ____
ROOT
ATOM      1  N   UNL     1      -1.385  -1.057  -0.169  0.00  0.00    -0.206 N 
ATOM      2  C   UNL     1      -0.309  -0.191  -0.146  0.00  0.00    +0.220 A 
ATOM      3  N   UNL     1      -0.079   0.749  -1.030  0.00  0.00    -0.208 NA
ATOM      4  C   UNL     1       1.060   1.407  -0.701  0.00  0.00    +0.149 A 
ATOM      5  C   UNL     1       1.778   2.475  -1.264  0.00  0.00    +0.147 A 
ATOM      6  N   UNL     1       2.891   2.878  -0.661  0.00  0.00    -0.219 NA
ATOM      7  C   UNL     1       3.320   2.295   0.443  0.00  0.00    +0.225 A 
ATOM      8  N   UNL     1       2.680   1.291   1.006  0.00  0.00    -0.216 NA
ATOM      9  C   UNL     1       1.558   0.819   0.473  0.00  0.00    +0.169 A 
ATOM     10  N   UNL     1       0.677  -0.185   0.802  0.00  0.00    -0.266 N 
ATOM     11  N   UNL     1       1.336   3.093  -2.422  0.00  0.00    -0.341 N 
ATOM     12  H   UNL     1      -1.266  -2.090   0.189  0.00  0.00    +0.177 HD
ATOM     13  H   UNL     1       1.908   3.929  -2.853  0.00  0.00    +0.144 HD
ATOM     14  H   UNL     1       0.413   2.749  -2.912  0.00  0.00    +0.144 HD
ENDROOT
BRANCH  10  15
ATOM     15  C1* UNL     1       0.777  -1.083   1.956  0.00  0.00    +0.255 C 
ATOM     16  C2* UNL     1       1.144  -2.518   1.500  0.00  0.00    +0.195 C 
ATOM     17  C3* UNL     1       0.589  -3.379   2.661  0.00  0.00    +0.178 C 
ATOM     18  C4* UNL     1      -0.459  -2.472   3.336  0.00  0.00    +0.177 C 
ATOM     19  O4* UNL     1      -0.512  -1.248   2.584  0.00  0.00    -0.346 OA
BRANCH  17  20
ATOM     20  O3* UNL     1      -0.026  -4.566   2.157  0.00  0.00    -0.386 OA
ATOM     21  H3* UNL     1      -0.474  -5.291   2.852  0.00  0.00    +0.210 HD
ENDBRANCH  17  20
BRANCH  16  22
ATOM     22  O2* UNL     1       2.561  -2.669   1.384  0.00  0.00    -0.385 OA
ATOM     23  H2* UNL     1       2.987  -3.633   1.069  0.00  0.00    +0.210 HD
ENDBRANCH  16  22
BRANCH  18  24
ATOM     24  C5* UNL     1      -1.827  -3.155   3.315  0.00  0.00    +0.190 C 
BRANCH  24  25
ATOM     25  O5* UNL     1      -2.774  -2.346   4.016  0.00  0.00    -0.392 OA
ATOM     26  H5* UNL     1      -3.819  -2.677   4.107  0.00  0.00    +0.210 HD
ENDBRANCH  24  25
ENDBRANCH  18  24
ENDBRANCH  10  15
BRANCH   1  28
ATOM     27  C   UNL     1      -3.606  -1.463  -0.780  0.00  0.00    +0.158 C 
ATOM     28  N   UNL     1      -2.626  -0.619  -0.648  0.00  0.00    -0.186 NA
BRANCH  27  37
ATOM     29  C   UNL     1      -1.272  -7.362  -0.368  0.00  0.00    +0.001 A 
ATOM     30  C   UNL     1      -0.236  -6.431  -0.370  0.00  0.00    +0.002 A 
ATOM     31  C   UNL     1      -0.492  -5.096  -0.452  0.00  0.00    +0.028 A 
ATOM     32  C   UNL     1      -1.821  -4.644  -0.535  0.00  0.00    +0.072 A 
ATOM     33  C   UNL     1      -2.874  -5.595  -0.532  0.00  0.00    +0.000 A 
ATOM     34  C   UNL     1      -2.572  -6.962  -0.446  0.00  0.00    +0.010 A 
ATOM     35  C   UNL     1      -4.207  -5.145  -0.615  0.00  0.00    +0.012 A 
ATOM     36  C   UNL     1      -4.434  -3.804  -0.688  0.00  0.00    +0.030 A 
ATOM     37  C   UNL     1      -3.348  -2.910  -0.693  0.00  0.00    +0.084 A 
ATOM     38  N   UNL     1      -2.099  -3.341  -0.615  0.00  0.00    -0.246 NA
ENDBRANCH  27  37
ENDBRANCH   1  28
TORSDOF 7
