REMARK  Name = ZINC39480523
REMARK  3 active torsions:
REMARK  status: ('A' for Active; 'I' for Inactive)
REMARK    1  A    between atoms: C_1  and  N_2
REMARK    2  A    between atoms: C_6  and  S_10
REMARK    3  A    between atoms: S_10  and  C_13
REMARK                            x       y       z     vdW  Elec       q    Type
REMARK                         _______ _______ _______ _____ _____    ______ ____
ROOT
ATOM      1  C   UNL     1      -0.018   1.461   0.010  0.00  0.00    +0.137 C 
ATOM      2  N   UNL     1       0.002  -0.004   0.002  0.00  0.00    -0.284 N 
ATOM      3  C   UNL     1      -1.244  -0.586   0.005  0.00  0.00    +0.074 A 
ATOM      4  C   UNL     1      -2.255   0.123   0.624  0.00  0.00    -0.013 A 
ATOM      5  C   UNL     1      -3.564   0.032   0.328  0.00  0.00    +0.033 A 
ATOM      6  C   UNL     1      -3.937  -1.080  -0.437  0.00  0.00    +0.097 A 
ATOM      7  C   UNL     1      -2.970  -1.987  -0.838  0.00  0.00    +0.067 A 
ATOM      8  C   UNL     1      -1.618  -1.760  -0.631  0.00  0.00    +0.147 A 
ATOM      9  F   UNL     1      -0.692  -2.655  -1.039  0.00  0.00    -0.203 F 
ATOM     10  C   UNL     1      -1.766   0.590   2.034  0.00  0.00    +0.124 C 
ATOM     11  C   UNL     1      -0.374  -0.032   1.996  0.00  0.00    +0.195 C 
ATOM     12  N   UNL     1       0.754   0.585   1.906  0.00  0.00    -0.217 NA
ATOM     13  C   UNL     1       1.752  -0.137   1.324  0.00  0.00    +0.143 A 
ATOM     14  C   UNL     1       1.256  -0.548  -0.013  0.00  0.00    +0.156 A 
ATOM     15  N   UNL     1       2.018  -1.235  -0.775  0.00  0.00    -0.218 NA
ATOM     16  C   UNL     1       3.238  -1.583  -0.380  0.00  0.00    +0.225 A 
ATOM     17  N   UNL     1       3.721  -1.244   0.800  0.00  0.00    -0.222 NA
ATOM     18  C   UNL     1       2.999  -0.523   1.680  0.00  0.00    +0.160 A 
ATOM     19 CL   UNL     1       3.651  -0.089   3.229  0.00  0.00    -0.060 Cl
ATOM     20  F   UNL     1      -0.317  -1.380   2.066  0.00  0.00    -0.188 F 
ENDROOT
BRANCH   6  21
ATOM     21  S   UNL     1      -5.624  -1.323  -0.885  0.00  0.00    +0.025 S 
ATOM     22  O   UNL     1      -5.782  -2.714  -1.130  0.00  0.00    -0.164 OA
ATOM     23  O   UNL     1      -6.404  -0.625   0.075  0.00  0.00    -0.164 OA
BRANCH  21  24
ATOM     24  C   UNL     1      -5.876  -0.509  -2.427  0.00  0.00    +0.094 A 
ATOM     25  C   UNL     1      -6.269   0.817  -2.453  0.00  0.00    +0.027 A 
ATOM     26  C   UNL     1      -6.466   1.456  -3.662  0.00  0.00    +0.002 A 
ATOM     27  C   UNL     1      -6.271   0.770  -4.846  0.00  0.00    +0.000 A 
ATOM     28  C   UNL     1      -5.878  -0.555  -4.821  0.00  0.00    +0.002 A 
ATOM     29  C   UNL     1      -5.676  -1.193  -3.611  0.00  0.00    +0.027 A 
ENDBRANCH  21  24
ENDBRANCH   6  21
TORSDOF 2
