REMARK  Name = ZINC39469685
REMARK  5 active torsions:
REMARK  status: ('A' for Active; 'I' for Inactive)
REMARK    1  A    between atoms: C_1  and  S_2
REMARK    2  A    between atoms: S_2  and  C_3
REMARK    3  A    between atoms: P_12  and  S_22
REMARK    4  A    between atoms: S_22  and  O_25
REMARK    5  A    between atoms: O_25  and  C_26
REMARK                            x       y       z     vdW  Elec       q    Type
REMARK                         _______ _______ _______ _____ _____    ______ ____
ROOT
ATOM      1  C   UNL     1      -1.702  -0.454   0.016  0.00  0.00    +0.022 C 
ATOM      2  C   UNL     1      -2.651   0.492   0.025  0.00  0.00    -0.007 C 
ATOM      3  C   UNL     1      -4.099   0.083   0.049  0.00  0.00    +0.017 C 
ATOM      4  C   UNL     1      -4.963   1.204   0.613  0.00  0.00    -0.003 C 
ATOM      5  C   UNL     1      -4.620   1.467   2.084  0.00  0.00    -0.020 C 
ATOM      6  C   UNL     1      -5.554   2.583   2.571  0.00  0.00    +0.158 C 
ATOM      7  O   UNL     1      -5.244   2.907   3.938  0.00  0.00    -0.301 OA
ATOM      8  P   UNL     1      -5.148   1.680   5.002  0.00  0.00    +0.431 P 
ATOM      9  O   UNL     1      -6.501   1.272   5.439  0.00  0.00    -0.246 OA
ATOM     10  N   UNL     1      -4.418   0.450   4.179  0.00  0.00    -0.271 NA
ATOM     11  N   UNL     1      -4.796   0.243   2.869  0.00  0.00    +0.398 N 
ATOM     12  C   UNL     1      -3.918  -0.823   2.359  0.00  0.00    -0.046 C 
ATOM     13  C   UNL     1      -4.265  -1.160   0.927  0.00  0.00    +0.006 C 
ATOM     14  C   UNL     1      -3.306  -2.225   0.451  0.00  0.00    -0.004 C 
ATOM     15  C   UNL     1      -2.098  -1.877   0.012  0.00  0.00    +0.050 C 
ATOM     16 CL   UNL     1      -0.992  -3.088  -0.556  0.00  0.00    -0.083 Cl
ATOM     17  H   UNL     1      -3.747  -0.108   4.603  0.00  0.00    +0.113 HD
ATOM     18  H   UNL     1      -5.761  -0.049   2.832  0.00  0.00    -0.055 HD
ENDROOT
BRANCH   8  19
ATOM     19  S   UNL     1      -3.976   2.247   6.675  0.00  0.00    +0.209 S 
ATOM     20  O   UNL     1      -4.062   1.182   7.612  0.00  0.00    -0.126 OA
ATOM     21  O   UNL     1      -2.735   2.713   6.163  0.00  0.00    -0.126 OA
BRANCH  19  22
ATOM     22  O   UNL     1      -4.659   3.447   7.317  0.00  0.00    -0.339 OA
BRANCH  22  23
ATOM     23  C   UNL     1      -5.777   3.133   8.024  0.00  0.00    +0.157 A 
ATOM     24  C   UNL     1      -7.014   3.117   7.396  0.00  0.00    +0.048 A 
ATOM     25  C   UNL     1      -8.148   2.797   8.117  0.00  0.00    +0.004 A 
ATOM     26  C   UNL     1      -8.052   2.495   9.463  0.00  0.00    +0.000 A 
ATOM     27  C   UNL     1      -6.820   2.512  10.091  0.00  0.00    +0.004 A 
ATOM     28  C   UNL     1      -5.681   2.825   9.373  0.00  0.00    +0.048 A 
ENDBRANCH  22  23
ENDBRANCH  19  22
ENDBRANCH   8  19
BRANCH   1  30
ATOM     29  C   UNL     1      -0.022   1.810   0.012  0.00  0.00    +0.090 C 
ATOM     30  S   UNL     1       0.002  -0.004   0.002  0.00  0.00    -0.127 S 
ENDBRANCH   1  30
TORSDOF 4
