REMARK  Name = ZINC39352196
REMARK  3 active torsions:
REMARK  status: ('A' for Active; 'I' for Inactive)
REMARK    1  A    between atoms: C_3  and  O_33
REMARK    2  A    between atoms: C_6  and  C_7
REMARK    3  A    between atoms: N_15  and  C_18
REMARK                            x       y       z     vdW  Elec       q    Type
REMARK                         _______ _______ _______ _____ _____    ______ ____
ROOT
ATOM      1  C   UNL     1      -1.333  -0.771  -0.004  0.00  0.00    +0.052 C 
ATOM      2  C   UNL     1      -1.441  -1.558  -1.299  0.00  0.00    +0.107 C 
ATOM      3  C   UNL     1      -0.270  -2.478  -1.592  0.00  0.00    +0.151 C 
ATOM      4  C   UNL     1       0.611  -1.639  -2.497  0.00  0.00    +0.240 C 
ATOM      5  O   UNL     1       1.786  -1.825  -2.726  0.00  0.00    -0.274 OA
ATOM      6  N   UNL     1      -0.150  -0.650  -3.001  0.00  0.00    -0.209 N 
ATOM      7  C   UNL     1      -1.407  -0.578  -2.466  0.00  0.00    +0.231 C 
ATOM      8  O   UNL     1      -2.324   0.122  -2.837  0.00  0.00    -0.274 OA
ATOM      9  S   UNL     1       0.662  -3.097  -0.196  0.00  0.00    -0.098 S 
ATOM     10  C   UNL     1       0.038  -2.392   1.173  0.00  0.00    +0.082 C 
ATOM     11  N   UNL     1       0.640  -2.345   2.322  0.00  0.00    -0.168 NA
ATOM     12  C   UNL     1       0.190  -1.678   3.401  0.00  0.00    +0.296 C 
ATOM     13  O   UNL     1       0.619  -1.695   4.541  0.00  0.00    -0.261 OA
ATOM     14  S   UNL     1      -1.197  -0.757   2.739  0.00  0.00    -0.055 S 
ATOM     15  C   UNL     1      -1.338  -1.744   1.175  0.00  0.00    +0.117 C 
ENDROOT
BRANCH   6  16
ATOM     16  C   UNL     1       0.302   0.230  -3.995  0.00  0.00    +0.044 A 
ATOM     17  C   UNL     1      -0.481   1.311  -4.375  0.00  0.00    +0.025 A 
ATOM     18  C   UNL     1      -0.034   2.176  -5.354  0.00  0.00    +0.017 A 
ATOM     19  C   UNL     1       1.194   1.966  -5.956  0.00  0.00    +0.018 A 
ATOM     20  C   UNL     1       1.977   0.889  -5.579  0.00  0.00    +0.017 A 
ATOM     21  C   UNL     1       1.537   0.025  -4.596  0.00  0.00    +0.025 A 
ATOM     22 BR   UNL     1       1.804   3.152  -7.297  0.00  0.00    -0.050 Br
ENDBRANCH   6  16
BRANCH   1  28
ATOM     23  C   UNL     1       0.262   0.834  -1.074  0.00  0.00    +0.007 A 
ATOM     24  C   UNL     1       1.438   1.560  -1.073  0.00  0.00    +0.045 A 
ATOM     25  C   UNL     1       2.305   1.470   0.006  0.00  0.00    +0.117 A 
ATOM     26  C   UNL     1       1.990   0.652   1.081  0.00  0.00    +0.045 A 
ATOM     27  C   UNL     1       0.814  -0.071   1.075  0.00  0.00    +0.007 A 
ATOM     28  C   UNL     1      -0.050   0.019  -0.001  0.00  0.00    -0.042 A 
BRANCH  25  29
ATOM     29  O   UNL     1       3.463   2.183   0.009  0.00  0.00    -0.507 OA
ATOM     30  H   UNL     1       3.382   3.063   0.401  0.00  0.00    +0.292 HD
ENDBRANCH  25  29
ENDBRANCH   1  28
TORSDOF 3
