REMARK  Name = ZINC04376640
REMARK  16 active torsions:
REMARK  status: ('A' for Active; 'I' for Inactive)
REMARK    1  A    between atoms: C_1  and  C_2
REMARK    2  A    between atoms: C_2  and  C_3
REMARK    3  A    between atoms: C_3  and  N_4
REMARK    4  A    between atoms: N_4  and  C_5
REMARK    5  A    between atoms: C_5  and  C_6
REMARK    6  A    between atoms: C_6  and  C_7
REMARK    7  A    between atoms: C_8  and  C_10
REMARK    8  A    between atoms: C_10  and  C_11
REMARK    9  A    between atoms: C_11  and  N_12
REMARK   10  A    between atoms: N_12  and  C_13
REMARK   11  A    between atoms: C_13  and  C_14
REMARK   12  A    between atoms: C_14  and  O_15
REMARK   13  A    between atoms: O_15  and  C_16
REMARK   14  A    between atoms: C_19  and  C_22
REMARK   15  A    between atoms: C_22  and  C_23
REMARK   16  A    between atoms: C_26  and  C_29
REMARK                            x       y       z     vdW  Elec       q    Type
REMARK                         _______ _______ _______ _____ _____    ______ ____
ROOT
ATOM      1  N   UNL     1      -3.354   0.768  -3.549  0.00  0.00    -0.306 N 
ATOM      2  C   UNL     1      -2.325   1.334  -2.819  0.00  0.00    +0.181 A 
ATOM      3  N   UNL     1      -1.699   0.865  -1.748  0.00  0.00    -0.208 NA
ATOM      4  C   UNL     1      -0.742   1.585  -1.213  0.00  0.00    +0.145 A 
ATOM      5  N   UNL     1      -0.417   2.738  -1.747  0.00  0.00    -0.192 NA
ATOM      6  S   UNL     1      -1.503   2.842  -3.066  0.00  0.00    +0.049 S 
ENDROOT
BRANCH   1   7
ATOM      7  C   UNL     1      -3.897   1.470  -4.716  0.00  0.00    +0.116 C 
BRANCH   7   8
ATOM      8  C   UNL     1      -3.122   1.052  -5.967  0.00  0.00    +0.115 C 
BRANCH   8  10
ATOM      9  N   UNL     1      -3.150   1.560  -8.388  0.00  0.00    -0.301 N 
ATOM     10  C   UNL     1      -3.680   1.773  -7.167  0.00  0.00    +0.217 C 
ATOM     11  O   UNL     1      -4.606   2.545  -7.034  0.00  0.00    -0.276 OA
BRANCH   9  12
ATOM     12  C   UNL     1      -2.032   0.626  -8.549  0.00  0.00    +0.107 C 
BRANCH  12  14
ATOM     13  C   UNL     1      -1.408  -1.753  -8.988  0.00  0.00    +0.005 C 
ATOM     14  C   UNL     1      -2.575  -0.778  -8.820  0.00  0.00    +0.016 C 
ENDBRANCH  12  14
ENDBRANCH   9  12
BRANCH   9  15
ATOM     15  C   UNL     1      -3.692   2.261  -9.554  0.00  0.00    +0.107 C 
BRANCH  15  16
ATOM     16  C   UNL     1      -2.949   3.584  -9.745  0.00  0.00    +0.016 C 
ATOM     17  C   UNL     1      -3.515   4.317 -10.963  0.00  0.00    +0.005 C 
ENDBRANCH  15  16
ENDBRANCH   9  15
ENDBRANCH   8  10
ENDBRANCH   7   8
ENDBRANCH   1   7
BRANCH   1  18
ATOM     18  C   UNL     1      -3.903  -0.532  -3.156  0.00  0.00    +0.135 C 
BRANCH  18  19
ATOM     19  C   UNL     1      -5.057  -0.322  -2.173  0.00  0.00    +0.178 C 
BRANCH  19  20
ATOM     20  O   UNL     1      -6.128   0.356  -2.833  0.00  0.00    -0.381 OA
ATOM     21  C   UNL     1      -7.262   0.603  -2.000  0.00  0.00    +0.194 C 
ENDBRANCH  19  20
ENDBRANCH  18  19
ENDBRANCH   1  18
BRANCH   4  22
ATOM     22  C   UNL     1      -0.013   1.086   0.008  0.00  0.00    +0.112 C 
BRANCH  22  23
ATOM     23  C   UNL     1      -0.718   1.572   1.248  0.00  0.00    -0.040 A 
ATOM     24  C   UNL     1      -0.360   2.779   1.819  0.00  0.00    +0.004 A 
ATOM     25  C   UNL     1      -1.010   3.227   2.953  0.00  0.00    +0.003 A 
ATOM     26  C   UNL     1      -2.012   2.463   3.523  0.00  0.00    -0.050 A 
ATOM     27  C   UNL     1      -2.366   1.254   2.955  0.00  0.00    +0.003 A 
ATOM     28  C   UNL     1      -1.719   0.808   1.818  0.00  0.00    +0.004 A 
ATOM     29  C   UNL     1      -2.718   2.950   4.762  0.00  0.00    +0.044 C 
ENDBRANCH  22  23
ENDBRANCH   4  22
TORSDOF 12
