REMARK  Name = ZINC29719950
REMARK  7 active torsions:
REMARK  status: ('A' for Active; 'I' for Inactive)
REMARK    1  A    between atoms: C_1  and  C_2
REMARK    2  A    between atoms: C_2  and  C_4
REMARK    3  A    between atoms: C_2  and  N_10
REMARK    4  A    between atoms: N_10  and  C_11
REMARK    5  A    between atoms: C_14  and  N_17
REMARK    6  A    between atoms: N_20  and  C_21
REMARK    7  A    between atoms: C_21  and  C_22
REMARK                            x       y       z     vdW  Elec       q    Type
REMARK                         _______ _______ _______ _____ _____    ______ ____
ROOT
ATOM      1  C   UNL     1       2.907  -3.911   0.447  0.00  0.00    +0.028 A 
ATOM      2  C   UNL     1       1.943  -4.646   1.125  0.00  0.00    +0.025 A 
ATOM      3  C   UNL     1       2.251  -5.897   1.621  0.00  0.00    +0.025 A 
ATOM      4  C   UNL     1       3.528  -6.416   1.454  0.00  0.00    +0.035 A 
ATOM      5  C   UNL     1       4.494  -5.679   0.781  0.00  0.00    +0.025 A 
ATOM      6  C   UNL     1       4.185  -4.430   0.279  0.00  0.00    +0.025 A 
ENDROOT
BRANCH   4   7
ATOM      7  N   UNL     1       3.843  -7.683   1.963  0.00  0.00    -0.269 N 
ATOM      8  C   UNL     1       5.085  -7.937   2.420  0.00  0.00    +0.304 C 
ATOM      9  O   UNL     1       5.905  -7.041   2.481  0.00  0.00    -0.252 OA
ATOM     10  N   UNL     1       5.418  -9.183   2.810  0.00  0.00    -0.292 N 
ATOM     11  H   UNL     1       3.075  -8.471   1.990  0.00  0.00    +0.156 HD
ATOM     12  H   UNL     1       4.676  -9.994   2.755  0.00  0.00    +0.151 HD
BRANCH  10  13
ATOM     13  C   UNL     1       6.769  -9.459   3.306  0.00  0.00    +0.180 C 
BRANCH  13  14
ATOM     14  C   UNL     1       6.881 -10.916   3.673  0.00  0.00    +0.122 A 
ATOM     15  C   UNL     1       7.267 -11.907   2.849  0.00  0.00    +0.046 A 
ATOM     16  C   UNL     1       7.229 -13.104   3.602  0.00  0.00    +0.041 A 
ATOM     17  C   UNL     1       6.823 -12.772   4.840  0.00  0.00    +0.195 A 
ATOM     18  O   UNL     1       6.620 -11.445   4.879  0.00  0.00    -0.466 OA
ENDBRANCH  13  14
ENDBRANCH  10  13
ENDBRANCH   4   7
BRANCH   1  19
ATOM     19  N   UNL     1       2.594  -2.646  -0.061  0.00  0.00    -0.333 N 
ATOM     20  H   UNL     1       3.359  -2.062  -0.594  0.00  0.00    +0.147 HD
BRANCH  19  22
ATOM     21  C   UNL     1       0.336  -2.612  -1.002  0.00  0.00    +0.038 C 
ATOM     22  C   UNL     1       1.246  -2.099   0.116  0.00  0.00    +0.154 C 
BRANCH  22  23
ATOM     23  C   UNL     1       1.305  -0.594   0.065  0.00  0.00    +0.240 C 
ATOM     24  O   UNL     1       2.367  -0.034  -0.102  0.00  0.00    -0.273 OA
ATOM     25  N   UNL     1       0.176   0.129   0.206  0.00  0.00    -0.239 N 
ATOM     26  C   UNL     1       0.228   1.475   0.161  0.00  0.00    +0.303 C 
ATOM     27  O   UNL     1       1.293   2.037  -0.007  0.00  0.00    -0.253 OA
ATOM     28  N   UNL     1      -0.901   2.198   0.296  0.00  0.00    -0.313 N 
ATOM     29  H   UNL     1      -0.788  -0.379   0.358  0.00  0.00    +0.159 HD
ATOM     30  H   UNL     1      -0.859   3.297   0.259  0.00  0.00    +0.146 HD
ATOM     31  H   UNL     1      -1.865   1.690   0.444  0.00  0.00    +0.146 HD
ENDBRANCH  22  23
ENDBRANCH  19  22
ENDBRANCH   1  19
TORSDOF 6
