REMARK  Name = ZINC03840619
REMARK  8 active torsions:
REMARK  status: ('A' for Active; 'I' for Inactive)
REMARK    1  A    between atoms: C_1  and  C_2
REMARK    2  A    between atoms: C_7  and  C_9
REMARK    3  A    between atoms: C_16  and  C_37
REMARK    4  A    between atoms: C_19  and  O_36
REMARK    5  A    between atoms: C_21  and  C_25
REMARK    6  A    between atoms: C_25  and  C_27
REMARK    7  A    between atoms: C_25  and  C_28
REMARK    8  A    between atoms: C_35  and  N_70
REMARK                            x       y       z     vdW  Elec       q    Type
REMARK                         _______ _______ _______ _____ _____    ______ ____
ROOT
ATOM      1  C   UNL     1       0.705  -3.091   5.316  0.00  0.00    +0.014 C 
ATOM      2  C   UNL     1      -0.135  -2.462   6.429  0.00  0.00    +0.042 C 
ATOM      3  C   UNL     1      -0.314  -3.467   7.560  0.00  0.00    +0.055 A 
ATOM      4  C   UNL     1      -1.521  -3.579   8.181  0.00  0.00    +0.014 A 
ATOM      5  S   UNL     1      -1.221  -4.835   9.397  0.00  0.00    -0.072 S 
ATOM      6  C   UNL     1       0.496  -5.118   8.979  0.00  0.00    +0.109 A 
ATOM      7  N   UNL     1       0.663  -4.256   7.989  0.00  0.00    -0.243 NA
ATOM      8  C   UNL     1      -2.769  -2.822   7.892  0.00  0.00    +0.051 C 
ATOM      9  C   UNL     1      -2.428  -1.609   7.005  0.00  0.00    -0.022 C 
ATOM     10  C   UNL     1      -1.508  -2.067   5.871  0.00  0.00    +0.033 C 
ATOM     11  C   UNL     1      -1.287  -0.922   4.876  0.00  0.00    +0.123 C 
ATOM     12  C   UNL     1      -2.623  -0.441   4.314  0.00  0.00    +0.029 C 
ATOM     13  C   UNL     1      -3.487   0.073   5.469  0.00  0.00    +0.007 C 
ATOM     14  C   UNL     1      -3.749  -1.080   6.436  0.00  0.00    +0.008 C 
ATOM     15  C   UNL     1      -1.734  -0.529   7.838  0.00  0.00    +0.012 C 
ENDROOT
BRANCH   6  16
ATOM     16  C   UNL     1       1.465  -6.061   9.576  0.00  0.00    +0.007 A 
ATOM     17  C   UNL     1       2.771  -6.126   9.089  0.00  0.00    +0.010 A 
ATOM     18  C   UNL     1       3.673  -7.003   9.655  0.00  0.00    +0.001 A 
ATOM     19  C   UNL     1       3.281  -7.826  10.697  0.00  0.00    +0.000 A 
ATOM     20  C   UNL     1       1.986  -7.771  11.180  0.00  0.00    +0.001 A 
ATOM     21  C   UNL     1       1.077  -6.893  10.627  0.00  0.00    +0.010 A 
ENDBRANCH   6  16
BRANCH  12  22
ATOM     22  C   UNL     1      -2.380   0.691   3.313  0.00  0.00    +0.078 C 
ATOM     23  C   UNL     1      -1.745   1.882   4.034  0.00  0.00    +0.017 C 
BRANCH  22  24
ATOM     24  C   UNL     1      -3.692   1.113   2.704  0.00  0.00    +0.219 C 
ATOM     25  O   UNL     1      -4.283   2.076   3.144  0.00  0.00    -0.275 OA
ATOM     26  N   UNL     1      -4.207   0.421   1.669  0.00  0.00    -0.305 N 
ATOM     27  C   UNL     1      -5.537   0.746   1.131  0.00  0.00    +0.089 C 
ATOM     28  C   UNL     1      -5.425   0.918  -0.387  0.00  0.00    -0.060 C 
ATOM     29  C   UNL     1      -3.423  -0.449  -0.473  0.00  0.00    -0.060 C 
ATOM     30  C   UNL     1      -3.454  -0.677   1.042  0.00  0.00    +0.089 C 
ATOM     31  C   UNL     1      -4.825  -0.227  -2.435  0.00  0.00    -0.096 C 
ATOM     32  N   UNL     1      -4.812  -0.301  -0.959  0.00  0.00    +0.380 N 
ATOM     33  H   UNL     1      -5.358  -1.118  -0.662  0.00  0.00    -0.082 HD
ENDBRANCH  22  24
ENDBRANCH  12  22
BRANCH  11  34
ATOM     34  O   UNL     1      -0.462  -1.384   3.805  0.00  0.00    -0.391 OA
ATOM     35  H   UNL     1      -0.198  -0.691   3.185  0.00  0.00    +0.210 HD
ENDBRANCH  11  34
TORSDOF 4
