REMARK  Name = ZINC23983700
REMARK  10 active torsions:
REMARK  status: ('A' for Active; 'I' for Inactive)
REMARK    1  A    between atoms: C_1  and  C_2
REMARK    2  A    between atoms: C_2  and  C_3
REMARK    3  A    between atoms: C_2  and  C_4
REMARK    4  A    between atoms: C_4  and  C_5
REMARK    5  A    between atoms: C_5  and  C_6
REMARK    6  A    between atoms: N_8  and  N_9
REMARK    7  A    between atoms: C_10  and  C_12
REMARK    8  A    between atoms: C_15  and  N_18
REMARK    9  A    between atoms: N_18  and  S_19
REMARK   10  A    between atoms: S_19  and  C_22
REMARK                            x       y       z     vdW  Elec       q    Type
REMARK                         _______ _______ _______ _____ _____    ______ ____
ROOT
ATOM      1  C   UNL     1      -5.989  -6.222  -0.303  0.00  0.00    +0.038 A 
ATOM      2  C   UNL     1      -7.063  -5.334  -0.189  0.00  0.00    +0.015 A 
ATOM      3  C   UNL     1      -8.353  -5.813  -0.180  0.00  0.00    +0.027 A 
ATOM      4  C   UNL     1      -8.589  -7.181  -0.284  0.00  0.00    +0.074 A 
ATOM      5  C   UNL     1      -7.522  -8.068  -0.399  0.00  0.00    +0.027 A 
ATOM      6  C   UNL     1      -6.230  -7.595  -0.414  0.00  0.00    +0.015 A 
ENDROOT
BRANCH   1   8
ATOM      7  N   UNL     1      -4.375  -4.388  -0.207  0.00  0.00    -0.230 N 
ATOM      8  C   UNL     1      -4.605  -5.711  -0.314  0.00  0.00    +0.260 C 
ATOM      9  O   UNL     1      -3.673  -6.485  -0.419  0.00  0.00    -0.269 OA
ATOM     10  H   UNL     1      -5.119  -3.771  -0.124  0.00  0.00    +0.173 HD
BRANCH   7  13
ATOM     11  C   UNL     1      -2.829  -2.579  -0.111  0.00  0.00    +0.229 C 
ATOM     12  O   UNL     1      -3.760  -1.808  -0.006  0.00  0.00    -0.274 OA
ATOM     13  N   UNL     1      -3.060  -3.903  -0.217  0.00  0.00    -0.234 N 
ATOM     14  H   UNL     1      -2.316  -4.520  -0.301  0.00  0.00    +0.173 HD
BRANCH  11  15
ATOM     15  C   UNL     1      -1.416  -2.058  -0.121  0.00  0.00    +0.097 C 
BRANCH  15  16
ATOM     16  C   UNL     1      -1.433  -0.534   0.013  0.00  0.00    +0.012 C 
BRANCH  16  18
ATOM     17  C   UNL     1      -0.019   1.526   0.010  0.00  0.00    +0.007 C 
ATOM     18  C   UNL     1       0.002  -0.004   0.002  0.00  0.00    -0.017 C 
ATOM     19  C   UNL     1       0.742  -0.511   1.242  0.00  0.00    +0.007 C 
ENDBRANCH  16  18
ENDBRANCH  15  16
ENDBRANCH  11  15
ENDBRANCH   7  13
ENDBRANCH   1   8
BRANCH   4  20
ATOM     20  N   UNL     1      -9.894  -7.662  -0.274  0.00  0.00    -0.097 NA
BRANCH  20  21
ATOM     21  S   UNL     1     -10.177  -9.289  -0.398  0.00  0.00    +0.098 S 
ATOM     22  O   UNL     1      -9.752  -9.678  -1.697  0.00  0.00    -0.148 OA
ATOM     23  O   UNL     1      -9.656  -9.883   0.783  0.00  0.00    -0.148 OA
BRANCH  21  24
ATOM     24  C   UNL     1     -11.923  -9.519  -0.350  0.00  0.00    +0.148 A 
ATOM     25  C   UNL     1     -12.809  -9.549  -1.375  0.00  0.00    +0.037 A 
ATOM     26  C   UNL     1     -14.149  -9.746  -1.099  0.00  0.00    +0.010 A 
ATOM     27  C   UNL     1     -14.537  -9.903   0.190  0.00  0.00    +0.047 A 
ATOM     28  S   UNL     1     -12.984  -9.781   1.062  0.00  0.00    -0.077 S 
ENDBRANCH  21  24
ENDBRANCH  20  21
ENDBRANCH   4  20
TORSDOF 8
