REMARK  Name = ZINC09349027
REMARK  13 active torsions:
REMARK  status: ('A' for Active; 'I' for Inactive)
REMARK    1  A    between atoms: C_1  and  N_2
REMARK    2  A    between atoms: C_3  and  C_5
REMARK    3  A    between atoms: C_5  and  N_59
REMARK    4  A    between atoms: C_6  and  N_59
REMARK    5  A    between atoms: C_7  and  C_8
REMARK    6  A    between atoms: C_7  and  N_59
REMARK    7  A    between atoms: C_16  and  C_19
REMARK    8  A    between atoms: C_17  and  O_18
REMARK    9  A    between atoms: N_21  and  C_22
REMARK   10  A    between atoms: C_25  and  O_30
REMARK   11  A    between atoms: C_27  and  O_28
REMARK   12  A    between atoms: O_28  and  C_29
REMARK   13  A    between atoms: O_30  and  C_31
REMARK                            x       y       z     vdW  Elec       q    Type
REMARK                         _______ _______ _______ _____ _____    ______ ____
ROOT
ATOM      1  C   UNL     1       1.632   0.488  10.894  0.00  0.00    -0.014 A 
ATOM      2  C   UNL     1       2.790  -0.305  10.954  0.00  0.00    -0.013 A 
ATOM      3  C   UNL     1       3.405  -0.596  12.184  0.00  0.00    +0.009 A 
ATOM      4  C   UNL     1       4.526  -1.367  12.213  0.00  0.00    +0.001 A 
ATOM      5  C   UNL     1       5.079  -1.875  11.038  0.00  0.00    +0.001 A 
ATOM      6  C   UNL     1       4.513  -1.615   9.829  0.00  0.00    +0.008 A 
ATOM      7  C   UNL     1       3.352  -0.822   9.759  0.00  0.00    -0.017 A 
ATOM      8  C   UNL     1       2.745  -0.536   8.527  0.00  0.00    +0.025 A 
ATOM      9  C   UNL     1       1.604   0.248   8.495  0.00  0.00    +0.079 A 
ATOM     10  C   UNL     1       1.056   0.762   9.689  0.00  0.00    +0.131 A 
ENDROOT
BRANCH   9  11
ATOM     11  C   UNL     1       0.960   0.552   7.202  0.00  0.00    +0.252 C 
ATOM     12  O   UNL     1      -0.042   1.240   7.169  0.00  0.00    -0.270 OA
ATOM     13  N   UNL     1       1.483   0.068   6.058  0.00  0.00    -0.278 N 
ATOM     14  H   UNL     1       2.234  -0.546   6.090  0.00  0.00    +0.155 HD
BRANCH  13  15
ATOM     15  C   UNL     1       0.942   0.451   4.822  0.00  0.00    +0.077 A 
ATOM     16  C   UNL     1       0.262   1.654   4.705  0.00  0.00    +0.050 A 
ATOM     17  C   UNL     1      -0.266   2.034   3.486  0.00  0.00    +0.084 A 
ATOM     18  C   UNL     1      -0.127   1.208   2.379  0.00  0.00    +0.142 A 
ATOM     19  C   UNL     1       0.552   0.004   2.492  0.00  0.00    +0.094 A 
ATOM     20  C   UNL     1       1.087  -0.377   3.712  0.00  0.00    +0.145 A 
ATOM     21 CL   UNL     1      -1.111   3.544   3.339  0.00  0.00    -0.080 Cl
BRANCH  20  22
ATOM     22  O   UNL     1       1.752  -1.557   3.824  0.00  0.00    -0.493 OA
ATOM     23  C   UNL     1       1.862  -2.356   2.644  0.00  0.00    +0.277 C 
ENDBRANCH  20  22
BRANCH  18  24
ATOM     24  O   UNL     1      -0.652   1.582   1.181  0.00  0.00    -0.494 OA
ATOM     25  C   UNL     1      -0.466   0.686   0.084  0.00  0.00    +0.277 C 
ENDBRANCH  18  24
ENDBRANCH  13  15
ENDBRANCH   9  11
BRANCH  10  26
ATOM     26  O   UNL     1      -0.060   1.534   9.638  0.00  0.00    -0.506 OA
ATOM     27  H   UNL     1      -0.886   1.035   9.704  0.00  0.00    +0.292 HD
ENDBRANCH  10  26
BRANCH   1  28
ATOM     28  C   UNL     1       1.030   1.040  12.160  0.00  0.00    -0.038 C 
BRANCH  28  30
ATOM     29  C   UNL     1       1.240   3.337  11.424  0.00  0.00    -0.095 C 
ATOM     30  N   UNL     1       1.647   2.353  12.448  0.00  0.00    +0.386 N 
ATOM     31  H   UNL     1       2.668   2.253  12.427  0.00  0.00    -0.081 HD
BRANCH  30  32
ATOM     32  C   UNL     1       1.238   2.820  13.789  0.00  0.00    +0.019 C 
BRANCH  32  35
ATOM     33  C   UNL     1       2.652   5.830  15.685  0.00  0.00    +0.128 C 
ATOM     34  N   UNL     1       1.866   4.643  15.338  0.00  0.00    -0.320 N 
ATOM     35  C   UNL     1       2.046   4.040  14.146  0.00  0.00    +0.196 C 
ATOM     36  O   UNL     1       2.860   4.480  13.361  0.00  0.00    -0.278 OA
ATOM     37  H   UNL     1       1.216   4.292  15.966  0.00  0.00    +0.148 HD
ENDBRANCH  32  35
ENDBRANCH  30  32
ENDBRANCH  28  30
ENDBRANCH   1  28
TORSDOF 9
