REMARK  Name = ZINC18142066
REMARK  8 active torsions:
REMARK  status: ('A' for Active; 'I' for Inactive)
REMARK    1  A    between atoms: C_4  and  C_7
REMARK    2  A    between atoms: C_7  and  C_8
REMARK    3  A    between atoms: C_9  and  C_11
REMARK    4  A    between atoms: N_13  and  N_14
REMARK    5  A    between atoms: C_15  and  C_17
REMARK    6  A    between atoms: C_17  and  C_18
REMARK    7  A    between atoms: C_17  and  C_25
REMARK    8  A    between atoms: C_17  and  O_32
REMARK                            x       y       z     vdW  Elec       q    Type
REMARK                         _______ _______ _______ _____ _____    ______ ____
ROOT
ATOM      1  N   UNL     1       5.497  -6.870  -0.405  0.00  0.00    -0.231 N 
ATOM      2  C   UNL     1       6.822  -7.106  -0.351  0.00  0.00    +0.270 C 
ATOM      3  O   UNL     1       7.607  -6.192  -0.490  0.00  0.00    -0.270 OA
ATOM      4  H   UNL     1       4.869  -7.601  -0.294  0.00  0.00    +0.173 HD
ENDROOT
BRANCH   1   7
ATOM      5  C   UNL     1       3.699  -5.333  -0.676  0.00  0.00    +0.300 C 
ATOM      6  O   UNL     1       2.913  -6.248  -0.536  0.00  0.00    -0.265 OA
ATOM      7  N   UNL     1       5.025  -5.569  -0.622  0.00  0.00    -0.228 N 
ATOM      8  H   UNL     1       5.653  -4.838  -0.733  0.00  0.00    +0.173 HD
BRANCH   5  10
ATOM      9  C   UNL     1       1.869  -3.719  -0.959  0.00  0.00    +0.107 C 
ATOM     10  C   UNL     1       3.201  -3.956  -0.905  0.00  0.00    +0.245 C 
ATOM     11  O   UNL     1       4.076  -2.937  -1.060  0.00  0.00    -0.282 OA
BRANCH   9  12
ATOM     12  C   UNL     1       1.376  -2.357  -1.186  0.00  0.00    +0.190 C 
ATOM     13  O   UNL     1       2.163  -1.440  -1.325  0.00  0.00    -0.287 OA
BRANCH  12  17
ATOM     14  C   UNL     1      -2.803  -1.613  -1.357  0.00  0.00    +0.000 A 
ATOM     15  C   UNL     1      -1.910  -0.567  -1.515  0.00  0.00    +0.001 A 
ATOM     16  C   UNL     1      -0.552  -0.802  -1.461  0.00  0.00    +0.012 A 
ATOM     17  C   UNL     1      -0.078  -2.098  -1.245  0.00  0.00    +0.022 A 
ATOM     18  C   UNL     1      -0.985  -3.148  -1.085  0.00  0.00    +0.012 A 
ATOM     19  C   UNL     1      -2.341  -2.900  -1.143  0.00  0.00    +0.001 A 
ENDBRANCH  12  17
ENDBRANCH   9  12
ENDBRANCH   5  10
ENDBRANCH   1   7
BRANCH   2  20
ATOM     20  C   UNL     1       7.329  -8.506  -0.118  0.00  0.00    +0.194 C 
BRANCH  20  21
ATOM     21  C   UNL     1       8.718  -8.639  -0.689  0.00  0.00    -0.003 A 
ATOM     22  C   UNL     1       9.762  -7.917  -0.141  0.00  0.00    +0.009 A 
ATOM     23  C   UNL     1      11.036  -8.039  -0.664  0.00  0.00    +0.020 A 
ATOM     24  C   UNL     1      11.265  -8.883  -1.735  0.00  0.00    +0.041 A 
ATOM     25  C   UNL     1      10.220  -9.605  -2.283  0.00  0.00    +0.020 A 
ATOM     26  C   UNL     1       8.948  -9.487  -1.756  0.00  0.00    +0.009 A 
ATOM     27 CL   UNL     1      12.865  -9.036  -2.393  0.00  0.00    -0.084 Cl
ENDBRANCH  20  21
BRANCH  20  28
ATOM     28  C   UNL     1       7.365  -8.787   1.362  0.00  0.00    -0.003 A 
ATOM     29  C   UNL     1       6.986 -10.028   1.839  0.00  0.00    +0.009 A 
ATOM     30  C   UNL     1       7.019 -10.287   3.196  0.00  0.00    +0.020 A 
ATOM     31  C   UNL     1       7.432  -9.303   4.078  0.00  0.00    +0.041 A 
ATOM     32  C   UNL     1       7.811  -8.062   3.600  0.00  0.00    +0.020 A 
ATOM     33  C   UNL     1       7.783  -7.806   2.242  0.00  0.00    +0.009 A 
ATOM     34 CL   UNL     1       7.473  -9.627   5.783  0.00  0.00    -0.084 Cl
ENDBRANCH  20  28
BRANCH  20  35
ATOM     35  O   UNL     1       6.459  -9.441  -0.759  0.00  0.00    -0.371 OA
ATOM     36  H   UNL     1       6.388  -9.319  -1.716  0.00  0.00    +0.212 HD
ENDBRANCH  20  35
ENDBRANCH   2  20
TORSDOF 8
