REMARK  Name = ZINC16001768
REMARK  5 active torsions:
REMARK  status: ('A' for Active; 'I' for Inactive)
REMARK    1  A    between atoms: C_1  and  C_2
REMARK    2  A    between atoms: C_4  and  C_37
REMARK    3  A    between atoms: N_21  and  C_24
REMARK    4  A    between atoms: C_27  and  N_31
REMARK    5  A    between atoms: C_29  and  C_30
REMARK                            x       y       z     vdW  Elec       q    Type
REMARK                         _______ _______ _______ _____ _____    ______ ____
ROOT
ATOM      1  C   UNL     1       1.224  -2.190  -0.021  0.00  0.00    +0.044 C 
ATOM      2  C   UNL     1       1.207  -0.683  -0.013  0.00  0.00    -0.050 A 
ATOM      3  C   UNL     1       2.396   0.024  -0.021  0.00  0.00    +0.008 A 
ATOM      4  C   UNL     1       2.384   1.403  -0.014  0.00  0.00    -0.029 A 
ATOM      5  C   UNL     1       1.175   2.094   0.002  0.00  0.00    +0.039 A 
ATOM      6  C   UNL     1      -0.017   1.373   0.010  0.00  0.00    -0.027 A 
ATOM      7  C   UNL     1       0.002  -0.004   0.002  0.00  0.00    +0.008 A 
ATOM      8  C   UNL     1      -1.115   2.396   0.032  0.00  0.00    +0.053 C 
ATOM      9  C   UNL     1      -2.159   2.244  -0.985  0.00  0.00    +0.089 C 
ATOM     10  C   UNL     1      -2.911   0.942  -0.487  0.00  0.00    +0.074 C 
ATOM     11  C   UNL     1      -2.986   1.251   1.003  0.00  0.00    -0.054 C 
ATOM     12  N   UNL     1      -1.922   2.261   1.291  0.00  0.00    +0.395 N 
ATOM     13  C   UNL     1      -2.602   3.556   1.518  0.00  0.00    -0.076 C 
ATOM     14  C   UNL     1      -3.977   3.187   2.117  0.00  0.00    -0.020 C 
ATOM     15  C   UNL     1      -4.335   1.878   1.380  0.00  0.00    -0.016 C 
ATOM     16  C   UNL     1      -4.121   1.142  -1.362  0.00  0.00    +0.228 C 
ATOM     17  O   UNL     1      -5.277   0.899  -1.086  0.00  0.00    -0.275 OA
ATOM     18  N   UNL     1      -3.637   1.657  -2.534  0.00  0.00    -0.210 N 
ATOM     19  C   UNL     1      -2.345   2.120  -2.414  0.00  0.00    +0.229 C 
ATOM     20  O   UNL     1      -1.552   2.365  -3.297  0.00  0.00    -0.275 OA
ATOM     21  C   UNL     1      -0.410   3.727   0.028  0.00  0.00    +0.212 C 
ATOM     22  O   UNL     1      -0.931   4.823   0.040  0.00  0.00    -0.277 OA
ATOM     23  N   UNL     1       0.910   3.465   0.012  0.00  0.00    -0.286 N 
ATOM     24  C   UNL     1       3.684   2.164  -0.023  0.00  0.00    +0.045 C 
ATOM     25  H   UNL     1       1.742   4.186   0.007  0.00  0.00    +0.155 HD
ATOM     26  H   UNL     1      -1.306   1.986   2.160  0.00  0.00    -0.079 HD
ENDROOT
BRANCH  18  27
ATOM     27  C   UNL     1      -4.375   1.708  -3.725  0.00  0.00    +0.047 A 
ATOM     28  C   UNL     1      -5.158   2.818  -4.011  0.00  0.00    +0.026 A 
ATOM     29  C   UNL     1      -5.884   2.865  -5.185  0.00  0.00    +0.034 A 
ATOM     30  C   UNL     1      -5.831   1.808  -6.075  0.00  0.00    +0.127 A 
ATOM     31  C   UNL     1      -5.052   0.702  -5.793  0.00  0.00    +0.038 A 
ATOM     32  C   UNL     1      -4.319   0.651  -4.623  0.00  0.00    -0.026 A 
ATOM     33  C   UNL     1      -3.465  -0.553  -4.320  0.00  0.00    +0.046 C 
BRANCH  30  34
ATOM     34  N   UNL     1      -6.610   1.862  -7.333  0.00  0.00    +0.056 N 
ATOM     35  O   UNL     1      -7.297   2.836  -7.583  0.00  0.00    -0.126 OA
ATOM     36  O   UNL     1      -6.565   0.931  -8.118  0.00  0.00    -0.126 OA
ENDBRANCH  30  34
ENDBRANCH  18  27
TORSDOF 2
