REMARK  Name = ZINC20717602
REMARK  4 active torsions:
REMARK  status: ('A' for Active; 'I' for Inactive)
REMARK    1  A    between atoms: C_1  and  C_2
REMARK    2  A    between atoms: C_2  and  C_3
REMARK    3  A    between atoms: C_21  and  C_30
REMARK    4  A    between atoms: C_22  and  C_23
REMARK                            x       y       z     vdW  Elec       q    Type
REMARK                         _______ _______ _______ _____ _____    ______ ____
ROOT
ATOM      1  C   UNL     1       0.707  -0.490  -1.238  0.00  0.00    +0.132 A 
ATOM      2  N   UNL     1       1.771  -1.343  -1.281  0.00  0.00    -0.311 N 
ATOM      3  H   UNL     1       2.221  -1.756  -0.527  0.00  0.00    +0.170 HD
ATOM      4  C   UNL     1       2.070  -1.497  -2.603  0.00  0.00    +0.236 A 
ATOM      5  N   UNL     1       1.217  -0.765  -3.279  0.00  0.00    -0.110 NA
ATOM      6  N   UNL     1       0.411  -0.177  -2.469  0.00  0.00    -0.133 NA
ATOM      7  N   UNL     1       3.089  -2.282  -3.135  0.00  0.00    -0.252 N 
ATOM      8  C   UNL     1       3.893  -2.991  -2.294  0.00  0.00    +0.100 A 
ATOM      9  C   UNL     1       4.899  -3.771  -2.744  0.00  0.00    +0.047 A 
ATOM     10  C   UNL     1       5.148  -3.873  -4.122  0.00  0.00    +0.083 A 
ATOM     11  C   UNL     1       4.335  -3.154  -5.016  0.00  0.00    +0.083 A 
ATOM     12  C   UNL     1       3.258  -2.329  -4.474  0.00  0.00    +0.269 A 
ATOM     13  O   UNL     1       2.529  -1.694  -5.215  0.00  0.00    -0.266 OA
ATOM     14  C   UNL     1       4.583  -3.253  -6.399  0.00  0.00    +0.128 A 
ATOM     15  N   UNL     1       5.563  -4.012  -6.829  0.00  0.00    -0.235 NA
ATOM     16  C   UNL     1       6.346  -4.704  -5.989  0.00  0.00    +0.164 A 
ATOM     17  N   UNL     1       6.158  -4.652  -4.631  0.00  0.00    -0.213 N 
ATOM     18  N   UNL     1       7.120  -5.470  -4.030  0.00  0.00    -0.169 NA
ATOM     19  C   UNL     1       7.870  -6.008  -4.959  0.00  0.00    +0.070 A 
ATOM     20  C   UNL     1       7.429  -5.560  -6.211  0.00  0.00    +0.049 A 
ATOM     21  C   UNL     1       9.020  -6.952  -4.721  0.00  0.00    +0.068 C 
ENDROOT
BRANCH  20  22
ATOM     22  C   UNL     1       8.002  -5.928  -7.527  0.00  0.00    -0.012 A 
ATOM     23  C   UNL     1       7.241  -6.652  -8.444  0.00  0.00    +0.010 A 
ATOM     24  C   UNL     1       7.780  -6.991  -9.668  0.00  0.00    +0.016 A 
ATOM     25  C   UNL     1       9.073  -6.614  -9.986  0.00  0.00    +0.018 A 
ATOM     26  C   UNL     1       9.833  -5.895  -9.080  0.00  0.00    +0.016 A 
ATOM     27  C   UNL     1       9.302  -5.546  -7.855  0.00  0.00    +0.010 A 
ATOM     28 BR   UNL     1       9.805  -7.083 -11.666  0.00  0.00    -0.050 Br
ENDBRANCH  20  22
BRANCH   1  30
ATOM     29  C   UNL     1      -0.019   1.526   0.010  0.00  0.00    +0.012 C 
ATOM     30  C   UNL     1       0.002  -0.004   0.002  0.00  0.00    +0.073 C 
ENDBRANCH   1  30
TORSDOF 2
