REMARK  Name = ZINC49030379
REMARK  5 active torsions:
REMARK  status: ('A' for Active; 'I' for Inactive)
REMARK    1  A    between atoms: C_1  and  C_2
REMARK    2  A    between atoms: N_4  and  C_5
REMARK    3  A    between atoms: C_5  and  C_6
REMARK    4  A    between atoms: C_6  and  N_7
REMARK    5  A    between atoms: N_10  and  C_11
REMARK                            x       y       z     vdW  Elec       q    Type
REMARK                         _______ _______ _______ _____ _____    ______ ____
ROOT
ATOM      1  N   UNL     1      -2.552  -4.153  -0.011  0.00  0.00    -0.298 N 
ATOM      2  C   UNL     1      -3.710  -4.843   0.006  0.00  0.00    +0.304 C 
ATOM      3  O   UNL     1      -4.771  -4.250   0.024  0.00  0.00    -0.253 OA
ATOM      4  N   UNL     1      -3.691  -6.190   0.004  0.00  0.00    -0.268 N 
ATOM      5  H   UNL     1      -1.706  -4.626  -0.025  0.00  0.00    +0.150 HD
ATOM      6  H   UNL     1      -2.848  -6.663  -0.076  0.00  0.00    +0.156 HD
ENDROOT
BRANCH   4   7
ATOM      7  C   UNL     1      -4.888  -6.907   0.117  0.00  0.00    +0.049 A 
ATOM      8  C   UNL     1      -6.051  -6.415  -0.460  0.00  0.00    +0.039 A 
ATOM      9  C   UNL     1      -7.231  -7.125  -0.347  0.00  0.00    +0.020 A 
ATOM     10  C   UNL     1      -7.254  -8.326   0.341  0.00  0.00    +0.016 A 
ATOM     11  C   UNL     1      -6.098  -8.818   0.918  0.00  0.00    +0.017 A 
ATOM     12  C   UNL     1      -4.914  -8.115   0.803  0.00  0.00    +0.035 A 
ATOM     13  I   UNL     1      -3.160  -8.867   1.669  0.00  0.00    -0.042 I 
ATOM     14 BR   UNL     1      -8.815  -6.456  -1.133  0.00  0.00    -0.050 Br
ENDBRANCH   4   7
BRANCH   1  15
ATOM     15  C   UNL     1      -2.573  -2.688  -0.008  0.00  0.00    +0.124 C 
BRANCH  15  16
ATOM     16  C   UNL     1      -1.138  -2.158  -0.030  0.00  0.00    +0.123 C 
BRANCH  16  20
ATOM     17  C   UNL     1      -0.021   1.504  -0.042  0.00  0.00    +0.109 C 
ATOM     18  C   UNL     1      -0.001  -0.003  -0.045  0.00  0.00    +0.210 C 
ATOM     19  O   UNL     1       1.058  -0.594  -0.062  0.00  0.00    -0.276 OA
ATOM     20  N   UNL     1      -1.158  -0.693  -0.028  0.00  0.00    -0.314 N 
ATOM     21  H   UNL     1      -2.005  -0.220  -0.014  0.00  0.00    +0.149 HD
ENDBRANCH  16  20
ENDBRANCH  15  16
ENDBRANCH   1  15
TORSDOF 4
