REMARK  Name = ZINC39464315
REMARK  6 active torsions:
REMARK  status: ('A' for Active; 'I' for Inactive)
REMARK    1  A    between atoms: C_1  and  O_2
REMARK    2  A    between atoms: O_2  and  C_3
REMARK    3  A    between atoms: C_8  and  S_9
REMARK    4  A    between atoms: S_9  and  C_10
REMARK    5  A    between atoms: P_15  and  C_21
REMARK    6  A    between atoms: C_26  and  O_27
REMARK                            x       y       z     vdW  Elec       q    Type
REMARK                         _______ _______ _______ _____ _____    ______ ____
ROOT
ATOM      1  C   UNL     1       0.626  -0.619   1.042  0.00  0.00    +0.134 A 
ATOM      2  C   UNL     1       1.202   0.133   2.050  0.00  0.00    +0.050 A 
ATOM      3  C   UNL     1       1.840  -0.490   3.113  0.00  0.00    -0.038 A 
ATOM      4  C   UNL     1       1.903  -1.866   3.172  0.00  0.00    -0.022 A 
ATOM      5  C   UNL     1       1.328  -2.626   2.163  0.00  0.00    +0.024 A 
ATOM      6  C   UNL     1       0.685  -2.010   1.102  0.00  0.00    +0.050 A 
ATOM      7  C   UNL     1       2.582  -2.588   4.306  0.00  0.00    +0.129 C 
ATOM      8  C   UNL     1       3.406  -3.748   3.738  0.00  0.00    +0.194 C 
ATOM      9  O   UNL     1       3.956  -4.504   4.835  0.00  0.00    -0.311 OA
ATOM     10  P   UNL     1       4.740  -3.698   6.010  0.00  0.00    +0.318 P 
ATOM     11  O   UNL     1       6.128  -3.403   5.590  0.00  0.00    -0.266 OA
ATOM     12  N   UNL     1       3.897  -2.292   6.224  0.00  0.00    -0.175 NA
ATOM     13  N   UNL     1       3.438  -1.683   5.073  0.00  0.00    -0.225 NA
ATOM     14  C   UNL     1       2.714  -0.454   5.433  0.00  0.00    +0.108 C 
ATOM     15  C   UNL     1       2.454   0.372   4.187  0.00  0.00    +0.052 C 
ATOM     16  H   UNL     1       3.745  -1.917   7.106  0.00  0.00    +0.151 HD
ENDROOT
BRANCH  10  17
ATOM     17  C   UNL     1       4.743  -4.669   7.542  0.00  0.00    +0.094 A 
ATOM     18  C   UNL     1       3.714  -4.527   8.453  0.00  0.00    +0.018 A 
ATOM     19  C   UNL     1       3.716  -5.266   9.621  0.00  0.00    +0.001 A 
ATOM     20  C   UNL     1       4.746  -6.151   9.880  0.00  0.00    +0.004 A 
ATOM     21  C   UNL     1       5.777  -6.298   8.972  0.00  0.00    +0.046 A 
ATOM     22  C   UNL     1       5.775  -5.561   7.797  0.00  0.00    +0.131 A 
BRANCH  22  23
ATOM     23  O   UNL     1       6.784  -5.707   6.899  0.00  0.00    -0.506 OA
ATOM     24  H   UNL     1       7.530  -5.109   7.045  0.00  0.00    +0.292 HD
ENDBRANCH  22  23
ENDBRANCH  10  17
BRANCH   1  26
ATOM     25  C   UNL     1      -0.017   1.425   0.010  0.00  0.00    +0.277 C 
ATOM     26  O   UNL     1       0.002  -0.004   0.002  0.00  0.00    -0.494 OA
ENDBRANCH   1  26
BRANCH   6  27
ATOM     27  S   UNL     1      -0.050  -2.982  -0.172  0.00  0.00    -0.125 S 
ATOM     28  C   UNL     1       0.279  -4.692   0.337  0.00  0.00    +0.090 C 
ENDBRANCH   6  27
TORSDOF 4
