REMARK  Name = ZINC59140050
REMARK  6 active torsions:
REMARK  status: ('A' for Active; 'I' for Inactive)
REMARK    1  A    between atoms: C_1  and  N_2
REMARK    2  A    between atoms: C_6  and  C_7
REMARK    3  A    between atoms: C_12  and  O_13
REMARK    4  A    between atoms: O_13  and  C_14
REMARK    5  A    between atoms: C_14  and  C_15
REMARK    6  A    between atoms: N_26  and  C_29
REMARK                            x       y       z     vdW  Elec       q    Type
REMARK                         _______ _______ _______ _____ _____    ______ ____
ROOT
ATOM      1  C   UNL     1      -2.135  -4.365  -0.108  0.00  0.00    +0.019 A 
ATOM      2  C   UNL     1      -0.863  -4.957  -0.104  0.00  0.00    +0.026 A 
ATOM      3  C   UNL     1      -0.743  -6.324  -0.203  0.00  0.00    +0.019 A 
ATOM      4  C   UNL     1      -1.874  -7.122  -0.307  0.00  0.00    +0.019 A 
ATOM      5  C   UNL     1      -3.133  -6.555  -0.313  0.00  0.00    +0.047 A 
ATOM      6  C   UNL     1      -3.278  -5.180  -0.209  0.00  0.00    +0.128 A 
ATOM      7 BR   UNL     1       0.972  -7.121  -0.197  0.00  0.00    -0.050 Br
ENDROOT
BRANCH   1  13
ATOM      8  C   UNL     1      -0.756   1.323   1.989  0.00  0.00    +0.140 C 
ATOM      9  N   UNL     1      -0.823  -0.140   1.958  0.00  0.00    -0.252 N 
ATOM     10  C   UNL     1      -1.524  -0.746   0.978  0.00  0.00    +0.257 C 
ATOM     11  O   UNL     1      -2.097  -0.096   0.125  0.00  0.00    -0.269 OA
ATOM     12  C   UNL     1      -1.575  -2.222   0.968  0.00  0.00    +0.100 C 
ATOM     13  C   UNL     1      -2.273  -2.913  -0.003  0.00  0.00    +0.029 C 
ATOM     14  C   UNL     1      -0.848  -2.926   2.044  0.00  0.00    +0.257 C 
ATOM     15  O   UNL     1      -0.843  -4.141   2.103  0.00  0.00    -0.269 OA
ATOM     16  N   UNL     1      -0.189  -2.184   2.957  0.00  0.00    -0.252 N 
ATOM     17  C   UNL     1      -0.181  -0.845   2.900  0.00  0.00    +0.148 C 
ATOM     18  S   UNL     1       0.689   0.012   4.100  0.00  0.00    -0.018 S 
ATOM     19  C   UNL     1       0.540  -2.858   4.035  0.00  0.00    +0.140 C 
ENDBRANCH   1  13
BRANCH   6  20
ATOM     20  O   UNL     1      -4.515  -4.624  -0.209  0.00  0.00    -0.487 OA
BRANCH  20  21
ATOM     21  C   UNL     1      -5.627  -5.514  -0.314  0.00  0.00    +0.266 C 
BRANCH  21  22
ATOM     22  C   UNL     1      -6.909  -4.721  -0.298  0.00  0.00    +0.008 A 
ATOM     23  C   UNL     1      -6.867  -3.343  -0.198  0.00  0.00    +0.010 A 
ATOM     24  C   UNL     1      -8.042  -2.615  -0.183  0.00  0.00    +0.020 A 
ATOM     25  C   UNL     1      -9.261  -3.265  -0.268  0.00  0.00    +0.042 A 
ATOM     26  C   UNL     1      -9.303  -4.644  -0.368  0.00  0.00    +0.040 A 
ATOM     27  C   UNL     1      -8.126  -5.372  -0.388  0.00  0.00    +0.049 A 
ATOM     28 CL   UNL     1      -8.178  -7.102  -0.520  0.00  0.00    -0.083 Cl
ATOM     29 CL   UNL     1     -10.736  -2.351  -0.249  0.00  0.00    -0.083 Cl
ENDBRANCH  21  22
ENDBRANCH  20  21
ENDBRANCH   6  20
TORSDOF 4
