REMARK  Name = ZINC08441943
REMARK  6 active torsions:
REMARK  status: ('A' for Active; 'I' for Inactive)
REMARK    1  A    between atoms: C_1  and  O_2
REMARK    2  A    between atoms: O_2  and  C_3
REMARK    3  A    between atoms: C_6  and  C_10
REMARK    4  A    between atoms: C_13  and  C_24
REMARK    5  A    between atoms: C_19  and  N_23
REMARK    6  A    between atoms: C_20  and  C_21
REMARK                            x       y       z     vdW  Elec       q    Type
REMARK                         _______ _______ _______ _____ _____    ______ ____
ROOT
ATOM      1  C   UNL     1      -4.982  -2.629   0.036  0.00  0.00    +0.102 C 
ATOM      2  C   UNL     1      -5.105  -3.504  -1.185  0.00  0.00    +0.054 A 
ATOM      3  C   UNL     1      -5.289  -3.156  -2.481  0.00  0.00    +0.074 A 
ATOM      4  N   UNL     1      -5.335  -4.312  -3.208  0.00  0.00    -0.273 N 
ATOM      5  H   UNL     1      -5.457  -4.379  -4.168  0.00  0.00    +0.189 HD
ATOM      6  N   UNL     1      -5.174  -5.387  -2.319  0.00  0.00    -0.135 NA
ATOM      7  C   UNL     1      -5.038  -4.909  -1.115  0.00  0.00    +0.245 A 
ATOM      8  O   UNL     1      -4.859  -5.564   0.065  0.00  0.00    -0.421 OA
ATOM      9  C   UNL     1      -5.019  -4.855   1.200  0.00  0.00    +0.201 C 
ATOM     10  C   UNL     1      -5.086  -3.507   1.257  0.00  0.00    +0.098 C 
ENDROOT
BRANCH   1  14
ATOM     11  C   UNL     1      -1.200  -0.637   0.010  0.00  0.00    +0.134 A 
ATOM     12  C   UNL     1      -2.375   0.101   0.019  0.00  0.00    +0.047 A 
ATOM     13  C   UNL     1      -3.596  -0.545   0.028  0.00  0.00    +0.008 A 
ATOM     14  C   UNL     1      -3.648  -1.927   0.027  0.00  0.00    -0.033 A 
ATOM     15  C   UNL     1      -2.480  -2.666   0.017  0.00  0.00    +0.023 A 
ATOM     16  C   UNL     1      -1.256  -2.024   0.003  0.00  0.00    +0.060 A 
ATOM     17 BR   UNL     1       0.342  -3.035  -0.018  0.00  0.00    -0.047 Br
BRANCH  11  19
ATOM     18  C   UNL     1      -0.017   1.425   0.010  0.00  0.00    +0.277 C 
ATOM     19  O   UNL     1       0.002  -0.004   0.002  0.00  0.00    -0.494 OA
ENDBRANCH  11  19
ENDBRANCH   1  14
BRANCH   3  20
ATOM     20  C   UNL     1      -5.417  -1.780  -3.011  0.00  0.00    +0.000 A 
ATOM     21  C   UNL     1      -6.228  -0.851  -2.360  0.00  0.00    +0.010 A 
ATOM     22  C   UNL     1      -6.343   0.430  -2.859  0.00  0.00    +0.001 A 
ATOM     23  C   UNL     1      -5.655   0.794  -4.003  0.00  0.00    +0.000 A 
ATOM     24  C   UNL     1      -4.849  -0.123  -4.654  0.00  0.00    +0.001 A 
ATOM     25  C   UNL     1      -4.721  -1.406  -4.161  0.00  0.00    +0.010 A 
ENDBRANCH   3  20
BRANCH   9  26
ATOM     26  N   UNL     1      -5.121  -5.550   2.379  0.00  0.00    -0.328 N 
ATOM     27  H   UNL     1      -5.078  -6.519   2.376  0.00  0.00    +0.145 HD
ATOM     28  H   UNL     1      -5.237  -5.072   3.215  0.00  0.00    +0.145 HD
ENDBRANCH   9  26
BRANCH  10  29
ATOM     29  C   UNL     1      -5.264  -2.884   2.534  0.00  0.00    +0.101 C 
ATOM     30  N   UNL     1      -5.405  -2.390   3.547  0.00  0.00    -0.191 NA
ENDBRANCH  10  29
TORSDOF 5
