REMARK  Name = ZINC08832868
REMARK  7 active torsions:
REMARK  status: ('A' for Active; 'I' for Inactive)
REMARK    1  A    between atoms: C_1  and  C_2
REMARK    2  A    between atoms: C_4  and  N_20
REMARK    3  A    between atoms: C_7  and  N_8
REMARK    4  A    between atoms: C_9  and  C_11
REMARK    5  A    between atoms: N_20  and  C_21
REMARK    6  A    between atoms: C_21  and  N_23
REMARK    7  A    between atoms: C_24  and  C_26
REMARK                            x       y       z     vdW  Elec       q    Type
REMARK                         _______ _______ _______ _____ _____    ______ ____
ROOT
ATOM      1  C   UNL     1       7.607  -8.090  -0.219  0.00  0.00    +0.046 C 
ATOM      2  C   UNL     1       7.514  -6.587  -0.154  0.00  0.00    -0.027 A 
ATOM      3  C   UNL     1       6.282  -5.968  -0.221  0.00  0.00    +0.028 A 
ATOM      4  C   UNL     1       6.197  -4.583  -0.161  0.00  0.00    +0.033 A 
ATOM      5  C   UNL     1       7.352  -3.821  -0.039  0.00  0.00    +0.025 A 
ATOM      6  C   UNL     1       8.583  -4.440   0.033  0.00  0.00    +0.025 A 
ATOM      7  C   UNL     1       8.669  -5.825  -0.027  0.00  0.00    +0.037 A 
ENDROOT
BRANCH   7   8
ATOM      8  N   UNL     1       9.918  -6.453   0.041  0.00  0.00    -0.279 N 
ATOM      9  C   UNL     1      10.911  -5.901   0.765  0.00  0.00    +0.284 C 
ATOM     10  O   UNL     1      10.739  -4.831   1.318  0.00  0.00    -0.266 OA
ATOM     11  H   UNL     1      10.069  -7.286  -0.433  0.00  0.00    +0.155 HD
BRANCH   9  12
ATOM     12  C   UNL     1      12.203  -6.591   0.888  0.00  0.00    +0.191 A 
ATOM     13  C   UNL     1      13.271  -6.132   1.589  0.00  0.00    +0.063 A 
ATOM     14  C   UNL     1      14.322  -7.136   1.431  0.00  0.00    +0.021 A 
ATOM     15  C   UNL     1      15.634  -7.254   1.895  0.00  0.00    +0.011 A 
ATOM     16  C   UNL     1      16.376  -8.351   1.558  0.00  0.00    +0.001 A 
ATOM     17  C   UNL     1      15.834  -9.348   0.758  0.00  0.00    +0.004 A 
ATOM     18  C   UNL     1      14.541  -9.250   0.290  0.00  0.00    +0.047 A 
ATOM     19  C   UNL     1      13.768  -8.144   0.619  0.00  0.00    +0.136 A 
ATOM     20  O   UNL     1      12.504  -7.780   0.325  0.00  0.00    -0.450 OA
ENDBRANCH   9  12
ENDBRANCH   7   8
BRANCH   4  21
ATOM     21  N   UNL     1       4.947  -3.955  -0.229  0.00  0.00    -0.297 N 
ATOM     22  H   UNL     1       4.830  -3.167  -0.782  0.00  0.00    +0.154 HD
BRANCH  21  23
ATOM     23  C   UNL     1       3.908  -4.445   0.474  0.00  0.00    +0.141 C 
ATOM     24  S   UNL     1       4.089  -5.888   1.378  0.00  0.00    -0.018 S 
BRANCH  23  25
ATOM     25  N   UNL     1       2.724  -3.799   0.466  0.00  0.00    -0.264 N 
ATOM     26  C   UNL     1       1.685  -4.290   1.170  0.00  0.00    +0.250 C 
ATOM     27  O   UNL     1       1.814  -5.314   1.811  0.00  0.00    -0.270 OA
ATOM     28  H   UNL     1       2.622  -2.982  -0.045  0.00  0.00    +0.157 HD
BRANCH  26  29
ATOM     29  C   UNL     1       0.390  -3.583   1.161  0.00  0.00    +0.041 A 
ATOM     30  C   UNL     1       0.239  -2.405   0.424  0.00  0.00    +0.017 A 
ATOM     31  C   UNL     1      -0.971  -1.747   0.419  0.00  0.00    +0.050 A 
ATOM     32  C   UNL     1      -2.045  -2.250   1.145  0.00  0.00    +0.162 A 
ATOM     33  C   UNL     1      -1.903  -3.425   1.879  0.00  0.00    +0.163 A 
ATOM     34  C   UNL     1      -0.690  -4.090   1.889  0.00  0.00    +0.062 A 
ATOM     35  O   UNL     1      -2.947  -3.934   2.587  0.00  0.00    -0.485 OA
ATOM     36  C   UNL     1      -4.037  -3.046   2.855  0.00  0.00    +0.270 C 
ATOM     37  C   UNL     1      -4.385  -2.307   1.556  0.00  0.00    +0.270 C 
ATOM     38  O   UNL     1      -3.228  -1.579   1.131  0.00  0.00    -0.485 OA
ENDBRANCH  26  29
ENDBRANCH  23  25
ENDBRANCH  21  23
ENDBRANCH   4  21
TORSDOF 6
