REMARK  Name = ZINC22066583
REMARK  13 active torsions:
REMARK  status: ('A' for Active; 'I' for Inactive)
REMARK    1  A    between atoms: C_1  and  C_2
REMARK    2  A    between atoms: C_2  and  O_34
REMARK    3  A    between atoms: C_10  and  O_33
REMARK    4  A    between atoms: C_12  and  O_32
REMARK    5  A    between atoms: C_14  and  O_17
REMARK    6  A    between atoms: O_17  and  C_18
REMARK    7  A    between atoms: C_18  and  C_30
REMARK    8  A    between atoms: C_19  and  O_29
REMARK    9  A    between atoms: C_21  and  O_28
REMARK   10  A    between atoms: C_23  and  C_26
REMARK   11  A    between atoms: C_26  and  O_27
REMARK   12  A    between atoms: C_30  and  O_31
REMARK   13  A    between atoms: O_34  and  C_35
REMARK                            x       y       z     vdW  Elec       q    Type
REMARK                         _______ _______ _______ _____ _____    ______ ____
ROOT
ATOM      1  C   UNL     1      -4.256   7.038   5.992  0.00  0.00    +0.110 C 
ATOM      2  C   UNL     1      -3.113   7.578   5.131  0.00  0.00    +0.283 C 
ATOM      3  O   UNL     1      -3.287   7.141   3.781  0.00  0.00    -0.324 OA
ATOM      4  C   UNL     1      -2.247   7.569   2.896  0.00  0.00    +0.200 C 
ATOM      5  C   UNL     1      -0.903   7.048   3.423  0.00  0.00    +0.179 C 
ATOM      6  C   UNL     1      -0.734   7.515   4.872  0.00  0.00    +0.186 C 
ATOM      7  O   UNL     1      -1.866   7.092   5.635  0.00  0.00    -0.318 OA
ATOM      8  C   UNL     1       0.541   6.911   5.461  0.00  0.00    +0.179 C 
ATOM      9  C   UNL     1       0.481   5.385   5.339  0.00  0.00    +0.201 C 
ATOM     10  C   UNL     1       0.286   5.010   3.867  0.00  0.00    +0.285 C 
ATOM     11  O   UNL     1      -0.910   5.620   3.378  0.00  0.00    -0.340 OA
ENDROOT
BRANCH   9  12
ATOM     12  O   UNL     1       1.701   4.818   5.819  0.00  0.00    -0.384 OA
ATOM     13  H   UNL     1       1.842   3.727   5.809  0.00  0.00    +0.210 HD
ENDBRANCH   9  12
BRANCH   8  14
ATOM     14  O   UNL     1       1.677   7.402   4.746  0.00  0.00    -0.386 OA
ATOM     15  H   UNL     1       2.689   7.074   5.029  0.00  0.00    +0.210 HD
ENDBRANCH   8  14
BRANCH   2  16
ATOM     16  O   UNL     1      -3.119   9.007   5.173  0.00  0.00    -0.330 OA
ATOM     17  C   UNL     1      -2.832   9.551   6.463  0.00  0.00    +0.200 C 
ENDBRANCH   2  16
BRANCH  10  18
ATOM     18  O   UNL     1       1.402   5.473   3.105  0.00  0.00    -0.313 OA
BRANCH  18  19
ATOM     19  C   UNL     1       1.470   4.931   1.784  0.00  0.00    +0.225 C 
ATOM     20  C   UNL     1       1.766   3.420   1.853  0.00  0.00    +0.207 C 
ATOM     21  C   UNL     1       0.568   2.765   1.124  0.00  0.00    +0.179 C 
ATOM     22  C   UNL     1       0.026   3.939   0.270  0.00  0.00    +0.178 C 
ATOM     23  O   UNL     1       0.202   5.088   1.126  0.00  0.00    -0.336 OA
BRANCH  21  24
ATOM     24  O   UNL     1      -0.416   2.319   2.060  0.00  0.00    -0.386 OA
ATOM     25  H   UNL     1      -1.334   1.829   1.701  0.00  0.00    +0.210 HD
ENDBRANCH  21  24
BRANCH  20  26
ATOM     26  O   UNL     1       1.827   2.983   3.212  0.00  0.00    -0.384 OA
ATOM     27  H   UNL     1       2.031   1.927   3.442  0.00  0.00    +0.210 HD
ENDBRANCH  20  26
BRANCH  22  28
ATOM     28  C   UNL     1      -1.454   3.731  -0.056  0.00  0.00    +0.190 C 
BRANCH  28  29
ATOM     29  O   UNL     1      -1.924   4.819  -0.853  0.00  0.00    -0.392 OA
ATOM     30  H   UNL     1      -2.972   4.844  -1.187  0.00  0.00    +0.210 HD
ENDBRANCH  28  29
ENDBRANCH  22  28
BRANCH  19  31
ATOM     31  C   UNL     1       2.564   5.639   0.983  0.00  0.00    +0.223 C 
BRANCH  31  32
ATOM     32  O   UNL     1       2.218   7.016   0.819  0.00  0.00    -0.390 OA
ATOM     33  H   UNL     1       2.889   7.689   0.266  0.00  0.00    +0.210 HD
ENDBRANCH  31  32
ENDBRANCH  19  31
ENDBRANCH  18  19
ENDBRANCH  10  18
TORSDOF 11
