REMARK  Name = ZINC39015544
REMARK  7 active torsions:
REMARK  status: ('A' for Active; 'I' for Inactive)
REMARK    1  A    between atoms: C_1  and  C_2
REMARK    2  A    between atoms: C_4  and  C_8
REMARK    3  A    between atoms: N_10  and  N_11
REMARK    4  A    between atoms: C_12  and  C_13
REMARK    5  A    between atoms: C_14  and  O_23
REMARK    6  A    between atoms: C_15  and  O_21
REMARK    7  A    between atoms: O_21  and  C_22
REMARK                            x       y       z     vdW  Elec       q    Type
REMARK                         _______ _______ _______ _____ _____    ______ ____
ROOT
ATOM      1  N   UNL     1      -2.588  -4.173   2.448  0.00  0.00    -0.187 NA
ATOM      2  C   UNL     1      -3.776  -4.691   2.516  0.00  0.00    +0.143 C 
ENDROOT
BRANCH   2   3
ATOM      3  C   UNL     1      -4.193  -5.423   3.725  0.00  0.00    +0.055 A 
ATOM      4  C   UNL     1      -5.472  -5.988   3.799  0.00  0.00    +0.168 A 
ATOM      5  C   UNL     1      -5.856  -6.677   4.943  0.00  0.00    +0.163 A 
ATOM      6  C   UNL     1      -4.974  -6.803   6.005  0.00  0.00    +0.065 A 
ATOM      7  C   UNL     1      -3.709  -6.244   5.934  0.00  0.00    +0.036 A 
ATOM      8  C   UNL     1      -3.311  -5.563   4.801  0.00  0.00    +0.044 A 
ATOM      9 BR   UNL     1      -1.579  -4.811   4.708  0.00  0.00    -0.048 Br
ATOM     10 BR   UNL     1      -2.517  -6.423   7.391  0.00  0.00    -0.049 Br
BRANCH   5  11
ATOM     11  O   UNL     1      -7.097  -7.228   5.021  0.00  0.00    -0.491 OA
ATOM     12  C   UNL     1      -7.424  -7.921   6.227  0.00  0.00    +0.277 C 
ENDBRANCH   5  11
BRANCH   4  13
ATOM     13  O   UNL     1      -6.335  -5.863   2.756  0.00  0.00    -0.503 OA
ATOM     14  H   UNL     1      -6.274  -6.577   2.107  0.00  0.00    +0.292 HD
ENDBRANCH   4  13
ENDBRANCH   2   3
BRANCH   1  17
ATOM     15  C   UNL     1      -0.958  -2.939   1.229  0.00  0.00    +0.262 C 
ATOM     16  O   UNL     1      -0.190  -3.058   2.161  0.00  0.00    -0.271 OA
ATOM     17  N   UNL     1      -2.191  -3.477   1.299  0.00  0.00    -0.205 N 
ATOM     18  H   UNL     1      -2.805  -3.381   0.554  0.00  0.00    +0.177 HD
BRANCH  15  22
ATOM     19  C   UNL     1      -0.018   1.503   0.010  0.00  0.00    +0.067 C 
ATOM     20  C   UNL     1       0.002  -0.004   0.002  0.00  0.00    +0.059 C 
ATOM     21  C   UNL     1      -1.086  -0.777   0.003  0.00  0.00    +0.035 C 
ATOM     22  C   UNL     1      -0.531  -2.190  -0.007  0.00  0.00    +0.240 C 
ATOM     23  N   UNL     1       0.926  -1.973  -0.013  0.00  0.00    -0.170 NA
ATOM     24  N   UNL     1       1.125  -0.756  -0.013  0.00  0.00    -0.159 NA
ENDBRANCH  15  22
ENDBRANCH   1  17
TORSDOF 5
