REMARK  Name = ZINC12077859
REMARK  8 active torsions:
REMARK  status: ('A' for Active; 'I' for Inactive)
REMARK    1  A    between atoms: C_1  and  C_2
REMARK    2  A    between atoms: C_3  and  C_9
REMARK    3  A    between atoms: N_5  and  C_7
REMARK    4  A    between atoms: C_9  and  N_10
REMARK    5  A    between atoms: C_13  and  C_27
REMARK    6  A    between atoms: C_14  and  C_16
REMARK    7  A    between atoms: N_19  and  C_21
REMARK    8  A    between atoms: C_21  and  C_22
REMARK                            x       y       z     vdW  Elec       q    Type
REMARK                         _______ _______ _______ _____ _____    ______ ____
ROOT
ATOM      1  N   UNL     1      -4.636   6.998   0.082  0.00  0.00    -0.319 N 
ATOM      2  C   UNL     1      -3.494   6.216   0.067  0.00  0.00    +0.159 A 
ATOM      3  N   UNL     1      -2.229   6.596   0.059  0.00  0.00    -0.229 NA
ATOM      4  C   UNL     1      -1.250   5.717   0.045  0.00  0.00    +0.057 A 
ATOM      5  C   UNL     1      -1.576   4.388   0.041  0.00  0.00    +0.063 A 
ATOM      6  S   UNL     1      -3.360   4.485   0.050  0.00  0.00    -0.051 S 
ATOM      7  C   UNL     1       0.190   6.161   0.035  0.00  0.00    +0.067 C 
ATOM      8  H   UNL     1      -5.511   6.580   0.086  0.00  0.00    +0.148 HD
ENDROOT
BRANCH   5   9
ATOM      9  C   UNL     1      -0.695   3.200   0.026  0.00  0.00    +0.101 A 
ATOM     10  C   UNL     1      -1.116   1.854   0.017  0.00  0.00    +0.050 A 
ATOM     11  C   UNL     1      -0.013   1.076   0.008  0.00  0.00    +0.109 A 
ATOM     12  N   UNL     1       1.069   1.884   0.002  0.00  0.00    -0.266 N 
ATOM     13  N   UNL     1       0.623   3.212   0.013  0.00  0.00    -0.170 NA
BRANCH  12  14
ATOM     14  C   UNL     1       2.468   1.448  -0.013  0.00  0.00    +0.179 C 
BRANCH  14  15
ATOM     15  C   UNL     1       3.179   2.082  -1.180  0.00  0.00    -0.019 A 
ATOM     16  C   UNL     1       3.807   3.305  -1.039  0.00  0.00    +0.013 A 
ATOM     17  C   UNL     1       4.438   3.848  -2.109  0.00  0.00    +0.045 A 
ATOM     18  S   UNL     1       4.154   2.616  -3.369  0.00  0.00    -0.105 S 
ATOM     19  C   UNL     1       3.218   1.459  -2.383  0.00  0.00    +0.050 A 
ENDBRANCH  14  15
ENDBRANCH  12  14
ENDBRANCH   5   9
BRANCH   1  20
ATOM     20  C   UNL     1      -4.523   8.459   0.089  0.00  0.00    +0.143 C 
BRANCH  20  23
ATOM     21  C   UNL     1      -6.242   9.241  -2.456  0.00  0.00    +0.068 C 
ATOM     22  C   UNL     1      -6.660   9.414  -1.018  0.00  0.00    +0.066 A 
ATOM     23  C   UNL     1      -5.901   9.069   0.104  0.00  0.00    +0.029 A 
ATOM     24  C   UNL     1      -6.620   9.386   1.207  0.00  0.00    +0.132 A 
ATOM     25  N   UNL     1      -7.795   9.907   0.795  0.00  0.00    -0.256 N 
ATOM     26  N   UNL     1      -7.798   9.911  -0.605  0.00  0.00    -0.175 NA
ATOM     27  C   UNL     1      -8.877  10.385   1.661  0.00  0.00    +0.174 C 
ATOM     28 CL   UNL     1      -6.121   9.161   2.855  0.00  0.00    -0.062 Cl
ENDBRANCH  20  23
ENDBRANCH   1  20
TORSDOF 5
