REMARK  Name = ZINC40284494
REMARK  5 active torsions:
REMARK  status: ('A' for Active; 'I' for Inactive)
REMARK    1  A    between atoms: C_1  and  O_2
REMARK    2  A    between atoms: O_2  and  C_3
REMARK    3  A    between atoms: C_3  and  C_5
REMARK    4  A    between atoms: C_10  and  N_11
REMARK    5  A    between atoms: C_23  and  C_25
REMARK                            x       y       z     vdW  Elec       q    Type
REMARK                         _______ _______ _______ _____ _____    ______ ____
ROOT
ATOM      1  N   UNL     1      -3.696  -2.219   0.201  0.00  0.00    -0.269 N 
ATOM      2  C   UNL     1      -4.861  -2.861   0.415  0.00  0.00    +0.307 C 
ATOM      3  O   UNL     1      -4.867  -4.060   0.615  0.00  0.00    -0.252 OA
ATOM      4  N   UNL     1      -6.020  -2.173   0.409  0.00  0.00    -0.272 N 
ATOM      5  C   UNL     1      -6.026  -0.708   0.278  0.00  0.00    +0.116 C 
ATOM      6  C   UNL     1      -6.595  -0.091   1.562  0.00  0.00    +0.074 C 
ATOM      7  C   UNL     1      -7.829  -0.856   1.963  0.00  0.00    +0.040 A 
ATOM      8  C   UNL     1      -8.152  -2.089   1.516  0.00  0.00    +0.062 A 
ATOM      9  N   UNL     1      -9.305  -2.448   2.085  0.00  0.00    -0.348 N 
ATOM     10  C   UNL     1      -9.714  -1.484   2.868  0.00  0.00    +0.171 A 
ATOM     11  N   UNL     1      -8.818  -0.472   2.817  0.00  0.00    -0.349 N 
ATOM     12  H   UNL     1      -8.870   0.369   3.298  0.00  0.00    +0.166 HD
ATOM     13  C   UNL     1      -7.313  -2.871   0.528  0.00  0.00    +0.159 C 
ATOM     14  H   UNL     1      -3.681  -1.252   0.127  0.00  0.00    +0.156 HD
ATOM     15  H   UNL     1      -9.765  -3.290   1.941  0.00  0.00    +0.167 HD
ENDROOT
BRANCH  13  16
ATOM     16  C   UNL     1      -7.998  -2.913  -0.814  0.00  0.00    +0.014 A 
ATOM     17  C   UNL     1      -9.027  -2.034  -1.092  0.00  0.00    +0.010 A 
ATOM     18  C   UNL     1      -9.656  -2.071  -2.322  0.00  0.00    +0.020 A 
ATOM     19  C   UNL     1      -9.256  -2.990  -3.277  0.00  0.00    +0.044 A 
ATOM     20  C   UNL     1      -8.226  -3.870  -3.000  0.00  0.00    +0.058 A 
ATOM     21  C   UNL     1      -7.593  -3.829  -1.770  0.00  0.00    +0.130 A 
ATOM     22  F   UNL     1      -6.583  -4.685  -1.500  0.00  0.00    -0.205 F 
ATOM     23 CL   UNL     1     -10.047  -3.037  -4.821  0.00  0.00    -0.083 Cl
ENDBRANCH  13  16
BRANCH   1  29
ATOM     24  C   UNL     1      -1.308  -2.410   0.573  0.00  0.00    +0.083 A 
ATOM     25  C   UNL     1      -0.128  -3.150   0.457  0.00  0.00    +0.055 A 
ATOM     26  C   UNL     1      -0.152  -4.395  -0.138  0.00  0.00    +0.124 A 
ATOM     27  C   UNL     1      -1.344  -4.916  -0.622  0.00  0.00    +0.040 A 
ATOM     28  C   UNL     1      -2.516  -4.196  -0.514  0.00  0.00    +0.027 A 
ATOM     29  C   UNL     1      -2.511  -2.944   0.086  0.00  0.00    +0.049 A 
ATOM     30  F   UNL     1       0.989  -5.109  -0.249  0.00  0.00    -0.205 F 
BRANCH  24  31
ATOM     31  C   UNL     1      -1.290  -1.081   1.207  0.00  0.00    +0.341 C 
ATOM     32  O   UNL     1      -2.300  -0.405   1.231  0.00  0.00    -0.245 OA
BRANCH  31  34
ATOM     33  C   UNL     1      -0.209   0.683   2.358  0.00  0.00    +0.280 C 
ATOM     34  O   UNL     1      -0.154  -0.613   1.761  0.00  0.00    -0.464 OA
ENDBRANCH  31  34
ENDBRANCH  24  31
ENDBRANCH   1  29
TORSDOF 4
