REMARK  Name = ZINC38726446
REMARK  11 active torsions:
REMARK  status: ('A' for Active; 'I' for Inactive)
REMARK    1  A    between atoms: C_1  and  C_2
REMARK    2  A    between atoms: C_2  and  N_3
REMARK    3  A    between atoms: N_3  and  C_4
REMARK    4  A    between atoms: N_3  and  C_6
REMARK    5  A    between atoms: C_4  and  C_5
REMARK    6  A    between atoms: C_6  and  C_7
REMARK    7  A    between atoms: C_7  and  N_8
REMARK    8  A    between atoms: C_9  and  C_27
REMARK    9  A    between atoms: C_17  and  O_24
REMARK   10  A    between atoms: O_24  and  C_25
REMARK   11  A    between atoms: C_25  and  C_26
REMARK                            x       y       z     vdW  Elec       q    Type
REMARK                         _______ _______ _______ _____ _____    ______ ____
ROOT
ATOM      1  N   UNL     1      -1.382  -3.580  -1.830  0.00  0.00    -0.285 N 
ATOM      2  C   UNL     1      -1.458  -4.247  -3.140  0.00  0.00    +0.144 C 
ATOM      3  C   UNL     1      -1.703  -5.691  -2.848  0.00  0.00    +0.072 A 
ATOM      4  C   UNL     1      -1.878  -6.842  -3.742  0.00  0.00    +0.199 A 
ATOM      5  O   UNL     1      -1.669  -6.792  -4.941  0.00  0.00    -0.287 OA
ATOM      6  C   UNL     1      -2.333  -8.070  -3.047  0.00  0.00    +0.065 A 
ATOM      7  C   UNL     1      -2.736  -9.188  -3.781  0.00  0.00    +0.019 A 
ATOM      8  C   UNL     1      -3.158 -10.311  -3.129  0.00  0.00    +0.046 A 
ATOM      9  C   UNL     1      -3.187 -10.343  -1.736  0.00  0.00    +0.124 A 
ATOM     10  C   UNL     1      -2.789  -9.244  -0.996  0.00  0.00    +0.092 A 
ATOM     11  C   UNL     1      -2.354  -8.090  -1.641  0.00  0.00    +0.143 A 
ATOM     12  O   UNL     1      -1.960  -7.031  -0.897  0.00  0.00    -0.449 OA
ATOM     13  C   UNL     1      -1.757  -5.839  -1.492  0.00  0.00    +0.199 A 
ATOM     14  C   UNL     1      -1.553  -4.517  -0.874  0.00  0.00    +0.283 C 
ATOM     15  O   UNL     1      -1.542  -4.301   0.321  0.00  0.00    -0.267 OA
ENDROOT
BRANCH   2  16
ATOM     16  C   UNL     1      -2.595  -3.678  -3.948  0.00  0.00    -0.022 A 
ATOM     17  C   UNL     1      -3.794  -3.370  -3.332  0.00  0.00    +0.007 A 
ATOM     18  C   UNL     1      -4.838  -2.848  -4.073  0.00  0.00    +0.015 A 
ATOM     19  C   UNL     1      -4.682  -2.634  -5.431  0.00  0.00    +0.018 A 
ATOM     20  C   UNL     1      -3.483  -2.942  -6.046  0.00  0.00    +0.015 A 
ATOM     21  C   UNL     1      -2.438  -3.459  -5.304  0.00  0.00    +0.007 A 
ATOM     22 BR   UNL     1      -6.110  -1.920  -6.445  0.00  0.00    -0.050 Br
ENDBRANCH   2  16
BRANCH   1  23
ATOM     23  C   UNL     1      -1.155  -2.151  -1.603  0.00  0.00    +0.090 C 
BRANCH  23  24
ATOM     24  C   UNL     1       0.348  -1.884  -1.496  0.00  0.00    -0.060 C 
BRANCH  24  25
ATOM     25  N   UNL     1       0.576  -0.451  -1.269  0.00  0.00    +0.380 N 
ATOM     26  H   UNL     1       0.124   0.081  -1.998  0.00  0.00    -0.082 HD
BRANCH  25  28
ATOM     27  C   UNL     1       0.128   1.449   0.210  0.00  0.00    -0.017 C 
ATOM     28  C   UNL     1       0.019  -0.067   0.035  0.00  0.00    -0.082 C 
ENDBRANCH  25  28
BRANCH  25  29
ATOM     29  C   UNL     1       2.019  -0.176  -1.285  0.00  0.00    -0.082 C 
ATOM     30  C   UNL     1       2.573  -0.440  -2.687  0.00  0.00    -0.017 C 
ENDBRANCH  25  29
ENDBRANCH  24  25
ENDBRANCH  23  24
ENDBRANCH   1  23
BRANCH   9  31
ATOM     31  O   UNL     1      -3.610 -11.464  -1.099  0.00  0.00    -0.492 OA
BRANCH  31  32
ATOM     32  C   UNL     1      -4.008 -12.565  -1.919  0.00  0.00    +0.225 C 
ATOM     33  C   UNL     1      -4.450 -13.729  -1.030  0.00  0.00    +0.048 C 
ENDBRANCH  31  32
ENDBRANCH   9  31
TORSDOF 8
