REMARK  Name = ZINC38905254
REMARK  6 active torsions:
REMARK  status: ('A' for Active; 'I' for Inactive)
REMARK    1  A    between atoms: C_4  and  N_11
REMARK    2  A    between atoms: C_5  and  C_7
REMARK    3  A    between atoms: C_12  and  C_14
REMARK    4  A    between atoms: N_19  and  C_21
REMARK    5  A    between atoms: C_21  and  C_22
REMARK    6  A    between atoms: C_24  and  C_27
REMARK                            x       y       z     vdW  Elec       q    Type
REMARK                         _______ _______ _______ _____ _____    ______ ____
ROOT
ATOM      1  C   UNL     1       6.083  -0.701  -0.278  0.00  0.00    +0.059 C 
ATOM      2  C   UNL     1       6.297  -1.584   0.954  0.00  0.00    +0.009 C 
ATOM      3  C   UNL     1       7.663  -2.268   0.848  0.00  0.00    -0.018 C 
ATOM      4  C   UNL     1       8.752  -1.203   0.702  0.00  0.00    -0.078 C 
ATOM      5  N   UNL     1       8.505  -0.409  -0.508  0.00  0.00    +0.386 N 
ATOM      6  C   UNL     1       7.230   0.307  -0.384  0.00  0.00    -0.065 C 
ATOM      7  H   UNL     1       8.468  -1.022  -1.309  0.00  0.00    -0.081 HD
ENDROOT
BRANCH   1   9
ATOM      8  N   UNL     1       3.622  -0.651  -0.037  0.00  0.00    -0.285 N 
ATOM      9  C   UNL     1       4.775   0.037  -0.147  0.00  0.00    +0.219 C 
ATOM     10  O   UNL     1       4.761   1.250  -0.141  0.00  0.00    -0.275 OA
ATOM     11  H   UNL     1       3.638  -1.619   0.023  0.00  0.00    +0.155 HD
BRANCH   8  15
ATOM     12  C   UNL     1      -0.015   1.381   0.041  0.00  0.00    +0.001 A 
ATOM     13  C   UNL     1       1.104   1.945   0.627  0.00  0.00    +0.002 A 
ATOM     14  C   UNL     1       2.311   1.274   0.603  0.00  0.00    +0.024 A 
ATOM     15  C   UNL     1       2.400   0.031  -0.011  0.00  0.00    +0.045 A 
ATOM     16  C   UNL     1       1.275  -0.532  -0.598  0.00  0.00    +0.076 A 
ATOM     17  C   UNL     1       0.071   0.144  -0.570  0.00  0.00    +0.014 A 
BRANCH  16  18
ATOM     18  C   UNL     1       1.368  -1.881  -1.264  0.00  0.00    +0.419 C 
ATOM     19  F   UNL     1       0.115  -2.234  -1.778  0.00  0.00    -0.166 F 
ATOM     20  F   UNL     1       2.299  -1.823  -2.307  0.00  0.00    -0.166 F 
ATOM     21  F   UNL     1       1.775  -2.837  -0.328  0.00  0.00    -0.166 F 
ENDBRANCH  16  18
ENDBRANCH   8  15
ENDBRANCH   1   9
BRANCH   5  22
ATOM     22  C   UNL     1       9.594   0.560  -0.686  0.00  0.00    +0.022 C 
BRANCH  22  23
ATOM     23  C   UNL     1      10.883  -0.175  -0.947  0.00  0.00    +0.211 A 
ATOM     24  N   UNL     1      11.343  -0.514  -2.117  0.00  0.00    -0.193 NA
ATOM     25  C   UNL     1      12.517  -1.156  -1.983  0.00  0.00    +0.202 A 
ATOM     26  N   UNL     1      12.812  -1.228  -0.708  0.00  0.00    -0.056 NA
ATOM     27  O   UNL     1      11.753  -0.584  -0.014  0.00  0.00    -0.340 OA
BRANCH  25  28
ATOM     28  C   UNL     1      13.342  -1.695  -3.093  0.00  0.00    +0.023 A 
ATOM     29  C   UNL     1      12.919  -1.549  -4.412  0.00  0.00    +0.013 A 
ATOM     30  C   UNL     1      13.689  -2.051  -5.441  0.00  0.00    +0.016 A 
ATOM     31  C   UNL     1      14.880  -2.699  -5.164  0.00  0.00    +0.018 A 
ATOM     32  C   UNL     1      15.305  -2.847  -3.855  0.00  0.00    +0.016 A 
ATOM     33  C   UNL     1      14.545  -2.343  -2.820  0.00  0.00    +0.013 A 
ATOM     34 BR   UNL     1      15.931  -3.386  -6.579  0.00  0.00    -0.050 Br
ENDBRANCH  25  28
ENDBRANCH  22  23
ENDBRANCH   5  22
TORSDOF 6
