REMARK  Name = ZINC08914002
REMARK  11 active torsions:
REMARK  status: ('A' for Active; 'I' for Inactive)
REMARK    1  A    between atoms: C_1  and  O_2
REMARK    2  A    between atoms: O_2  and  C_3
REMARK    3  A    between atoms: C_3  and  C_4
REMARK    4  A    between atoms: C_4  and  O_5
REMARK    5  A    between atoms: O_5  and  C_6
REMARK    6  A    between atoms: C_6  and  C_8
REMARK    7  A    between atoms: C_8  and  C_10
REMARK    8  A    between atoms: C_8  and  C_12
REMARK    9  A    between atoms: C_27  and  C_28
REMARK   10  A    between atoms: C_27  and  C_34
REMARK   11  A    between atoms: C_27  and  N_70
REMARK                            x       y       z     vdW  Elec       q    Type
REMARK                         _______ _______ _______ _____ _____    ______ ____
ROOT
ATOM      1  C   UNL     1      -0.921  -0.161  -2.186  0.00  0.00    +0.109 A 
ATOM      2  C   UNL     1      -2.019   0.686  -1.947  0.00  0.00    +0.145 A 
ATOM      3  N   UNL     1      -2.886   0.404  -0.993  0.00  0.00    -0.229 NA
ATOM      4  C   UNL     1      -2.711  -0.690  -0.241  0.00  0.00    +0.091 A 
ATOM      5  C   UNL     1      -3.613  -1.013   0.787  0.00  0.00    +0.030 A 
ATOM      6  C   UNL     1      -3.410  -2.131   1.536  0.00  0.00    +0.002 A 
ATOM      7  C   UNL     1      -2.319  -2.964   1.299  0.00  0.00    +0.002 A 
ATOM      8  C   UNL     1      -1.425  -2.682   0.312  0.00  0.00    +0.030 A 
ATOM      9  C   UNL     1      -1.601  -1.536  -0.482  0.00  0.00    +0.090 A 
ATOM     10  N   UNL     1      -0.736  -1.236  -1.459  0.00  0.00    -0.245 NA
ATOM     11  N   UNL     1      -2.194   1.822  -2.723  0.00  0.00    -0.317 N 
ATOM     12  C   UNL     1      -2.046   3.040  -1.914  0.00  0.00    +0.088 C 
ATOM     13  C   UNL     1      -2.167   4.268  -2.820  0.00  0.00    -0.058 C 
ATOM     14  C   UNL     1      -3.618   3.027  -4.308  0.00  0.00    -0.058 C 
ATOM     15  C   UNL     1      -3.497   1.799  -3.402  0.00  0.00    +0.088 C 
ATOM     16  N   UNL     1      -3.490   4.245  -3.479  0.00  0.00    +0.389 N 
ATOM     17  H   UNL     1      -4.222   4.237  -2.759  0.00  0.00    -0.080 HD
ENDROOT
BRANCH   1  18
ATOM     18  C   UNL     1       0.054   0.175  -3.285  0.00  0.00    +0.251 C 
BRANCH  18  19
ATOM     19  C   UNL     1       0.027  -0.911  -4.330  0.00  0.00    +0.330 C 
ATOM     20  O   UNL     1      -0.709  -1.860  -4.196  0.00  0.00    -0.249 OA
BRANCH  19  21
ATOM     21  O   UNL     1       0.817  -0.821  -5.411  0.00  0.00    -0.461 OA
BRANCH  21  22
ATOM     22  C   UNL     1       0.734  -1.900  -6.379  0.00  0.00    +0.260 C 
BRANCH  22  23
ATOM     23  C   UNL     1       1.699  -1.625  -7.534  0.00  0.00    +0.200 C 
BRANCH  23  25
ATOM     24  C   UNL     1       4.029  -1.408  -8.054  0.00  0.00    +0.194 C 
ATOM     25  O   UNL     1       3.043  -1.655  -7.049  0.00  0.00    -0.380 OA
ENDBRANCH  23  25
ENDBRANCH  22  23
ENDBRANCH  21  22
ENDBRANCH  19  21
ENDBRANCH  18  19
BRANCH  18  26
ATOM     26  C   UNL     1       1.410   0.280  -2.722  0.00  0.00    +0.084 C 
ATOM     27  N   UNL     1       2.457   0.361  -2.287  0.00  0.00    -0.195 NA
ENDBRANCH  18  26
ENDBRANCH   1  18
BRANCH  16  28
ATOM     28  C   UNL     1      -3.656   5.449  -4.321  0.00  0.00    -0.007 C 
BRANCH  28  29
ATOM     29  C   UNL     1      -5.018   5.411  -4.966  0.00  0.00    -0.057 A 
ATOM     30  C   UNL     1      -6.130   5.082  -4.214  0.00  0.00    +0.002 A 
ATOM     31  C   UNL     1      -7.379   5.052  -4.805  0.00  0.00    +0.000 A 
ATOM     32  C   UNL     1      -7.515   5.341  -6.149  0.00  0.00    +0.000 A 
ATOM     33  C   UNL     1      -6.402   5.665  -6.903  0.00  0.00    +0.000 A 
ATOM     34  C   UNL     1      -5.154   5.700  -6.311  0.00  0.00    +0.002 A 
ENDBRANCH  28  29
BRANCH  28  35
ATOM     35  C   UNL     1      -3.546   6.674  -3.451  0.00  0.00    -0.057 A 
ATOM     36  C   UNL     1      -4.184   6.710  -2.225  0.00  0.00    +0.002 A 
ATOM     37  C   UNL     1      -4.079   7.832  -1.424  0.00  0.00    +0.000 A 
ATOM     38  C   UNL     1      -3.345   8.921  -1.854  0.00  0.00    +0.000 A 
ATOM     39  C   UNL     1      -2.712   8.888  -3.082  0.00  0.00    +0.000 A 
ATOM     40  C   UNL     1      -2.813   7.764  -3.881  0.00  0.00    +0.002 A 
ENDBRANCH  28  35
ENDBRANCH  16  28
TORSDOF 10
