REMARK  Name = ZINC16460065
REMARK  12 active torsions:
REMARK  status: ('A' for Active; 'I' for Inactive)
REMARK    1  A    between atoms: C_1  and  C_2
REMARK    2  A    between atoms: C_2  and  N_67
REMARK    3  A    between atoms: C_8  and  C_10
REMARK    4  A    between atoms: C_13  and  C_15
REMARK    5  A    between atoms: C_15  and  N_16
REMARK    6  A    between atoms: N_16  and  C_17
REMARK    7  A    between atoms: C_17  and  C_18
REMARK    8  A    between atoms: C_17  and  C_19
REMARK    9  A    between atoms: N_22  and  C_23
REMARK   10  A    between atoms: C_26  and  C_29
REMARK   11  A    between atoms: C_29  and  C_30
REMARK   12  A    between atoms: C_29  and  C_31
REMARK                            x       y       z     vdW  Elec       q    Type
REMARK                         _______ _______ _______ _____ _____    ______ ____
ROOT
ATOM      1  C   UNL     1      -0.591   0.864   1.488  0.00  0.00    +0.172 C 
ENDROOT
BRANCH   1   5
ATOM      2  C   UNL     1       0.620   2.374  -1.704  0.00  0.00    +0.133 A 
ATOM      3  C   UNL     1      -0.043   1.510  -2.537  0.00  0.00    +0.080 A 
ATOM      4  S   UNL     1      -0.854   0.483  -1.397  0.00  0.00    -0.078 S 
ATOM      5  C   UNL     1      -0.286   1.234   0.059  0.00  0.00    +0.096 A 
ATOM      6  N   UNL     1       0.467   2.204  -0.390  0.00  0.00    -0.238 NA
BRANCH   2  12
ATOM      7  C   UNL     1       4.382   5.324  -1.483  0.00  0.00    -0.060 C 
ATOM      8  C   UNL     1       2.905   5.407  -1.881  0.00  0.00    +0.089 C 
ATOM      9  N   UNL     1       2.224   4.194  -1.406  0.00  0.00    -0.300 N 
ATOM     10  C   UNL     1       2.387   3.811   0.005  0.00  0.00    +0.089 C 
ATOM     11  C   UNL     1       3.890   3.788   0.327  0.00  0.00    -0.060 C 
ATOM     12  C   UNL     1       1.466   3.454  -2.240  0.00  0.00    +0.265 C 
ATOM     13  O   UNL     1       1.480   3.679  -3.435  0.00  0.00    -0.268 OA
ATOM     14  N   UNL     1       4.469   5.103  -0.024  0.00  0.00    +0.382 N 
ATOM     15  H   UNL     1       3.939   5.839   0.457  0.00  0.00    -0.082 HD
BRANCH  14  17
ATOM     16  C   UNL     1       5.923   5.155   1.942  0.00  0.00    -0.017 C 
ATOM     17  C   UNL     1       5.880   5.165   0.413  0.00  0.00    -0.082 C 
ENDBRANCH  14  17
ENDBRANCH   2  12
ENDBRANCH   1   5
BRANCH   1  18
ATOM     18  N   UNL     1      -1.780   1.592   1.938  0.00  0.00    -0.277 N 
ATOM     19  C   UNL     1      -1.651   2.802   2.516  0.00  0.00    +0.307 C 
ATOM     20  O   UNL     1      -2.640   3.449   2.801  0.00  0.00    -0.252 OA
ATOM     21  N   UNL     1      -0.424   3.296   2.778  0.00  0.00    -0.269 N 
ATOM     22  H   UNL     1       0.364   2.830   2.459  0.00  0.00    +0.156 HD
BRANCH  21  23
ATOM     23  C   UNL     1      -0.289   4.481   3.511  0.00  0.00    +0.035 A 
ATOM     24  C   UNL     1      -1.199   4.786   4.514  0.00  0.00    +0.023 A 
ATOM     25  C   UNL     1      -1.060   5.954   5.239  0.00  0.00    +0.006 A 
ATOM     26  C   UNL     1      -0.021   6.823   4.959  0.00  0.00    -0.045 A 
ATOM     27  C   UNL     1       0.884   6.524   3.958  0.00  0.00    +0.006 A 
ATOM     28  C   UNL     1       0.753   5.355   3.233  0.00  0.00    +0.023 A 
BRANCH  26  29
ATOM     29  C   UNL     1       0.125   8.098   5.749  0.00  0.00    +0.013 C 
ATOM     30  C   UNL     1      -1.131   8.954   5.572  0.00  0.00    +0.012 C 
ATOM     31  C   UNL     1       0.309   7.763   7.230  0.00  0.00    +0.012 C 
ENDBRANCH  26  29
ENDBRANCH  21  23
BRANCH  18  32
ATOM     32  C   UNL     1      -3.110   1.004   1.760  0.00  0.00    +0.072 C 
ATOM     33  C   UNL     1      -3.313   0.639   0.288  0.00  0.00    +0.028 C 
ATOM     34  C   UNL     1      -3.230  -0.257   2.619  0.00  0.00    +0.028 C 
ENDBRANCH  18  32
ENDBRANCH   1  18
TORSDOF 7
