REMARK  Name = ZINC12024747
REMARK  4 active torsions:
REMARK  status: ('A' for Active; 'I' for Inactive)
REMARK    1  A    between atoms: C_1  and  C_2
REMARK    2  A    between atoms: N_8  and  C_11
REMARK    3  A    between atoms: C_14  and  C_18
REMARK    4  A    between atoms: N_20  and  C_21
REMARK                            x       y       z     vdW  Elec       q    Type
REMARK                         _______ _______ _______ _____ _____    ______ ____
ROOT
ATOM      1  C   UNL     1       1.304  -2.003  -0.540  0.00  0.00    +0.061 A 
ATOM      2  C   UNL     1       2.583  -2.544  -0.452  0.00  0.00    +0.026 A 
ATOM      3  C   UNL     1       2.765  -3.905  -0.535  0.00  0.00    +0.016 A 
ATOM      4  C   UNL     1       1.663  -4.746  -0.719  0.00  0.00    +0.055 A 
ATOM      5  C   UNL     1       0.379  -4.199  -0.813  0.00  0.00    +0.055 A 
ATOM      6  C   UNL     1       0.204  -2.835  -0.724  0.00  0.00    +0.046 A 
ATOM      7 CL   UNL     1      -0.994  -5.238  -1.041  0.00  0.00    -0.083 Cl
ENDROOT
BRANCH   1  14
ATOM      8  C   UNL     1      -0.730   2.010   1.192  0.00  0.00    +0.019 C 
ATOM      9  C   UNL     1      -0.015   1.502  -0.061  0.00  0.00    +0.097 C 
ATOM     10  C   UNL     1       1.448   2.017  -0.073  0.00  0.00    +0.201 C 
ATOM     11  S   UNL     1       2.268   0.545  -0.812  0.00  0.00    +0.053 S 
ATOM     12  O   UNL     1       3.429   0.187  -0.075  0.00  0.00    -0.155 OA
ATOM     13  O   UNL     1       2.290   0.635  -2.230  0.00  0.00    -0.155 OA
ATOM     14  N   UNL     1       1.124  -0.623  -0.450  0.00  0.00    -0.143 N 
ATOM     15  C   UNL     1       0.004   0.003  -0.058  0.00  0.00    +0.243 C 
ATOM     16  O   UNL     1      -0.970  -0.629   0.292  0.00  0.00    -0.273 OA
ENDBRANCH   1  14
BRANCH   4  17
ATOM     17  C   UNL     1       1.854  -6.205  -0.813  0.00  0.00    +0.250 C 
ATOM     18  O   UNL     1       0.894  -6.935  -0.973  0.00  0.00    -0.270 OA
ATOM     19  N   UNL     1       3.092  -6.730  -0.723  0.00  0.00    -0.279 N 
ATOM     20  H   UNL     1       3.863  -6.145  -0.661  0.00  0.00    +0.155 HD
BRANCH  19  21
ATOM     21  C   UNL     1       3.265  -8.120  -0.718  0.00  0.00    +0.069 A 
ATOM     22  C   UNL     1       2.425  -8.928  -1.472  0.00  0.00    +0.027 A 
ATOM     23  C   UNL     1       2.598 -10.298  -1.466  0.00  0.00    +0.017 A 
ATOM     24  C   UNL     1       3.607 -10.867  -0.711  0.00  0.00    +0.021 A 
ATOM     25  C   UNL     1       4.447 -10.066   0.042  0.00  0.00    +0.055 A 
ATOM     26  C   UNL     1       4.283  -8.693   0.037  0.00  0.00    +0.146 A 
ATOM     27  F   UNL     1       5.106  -7.909   0.767  0.00  0.00    -0.204 F 
ATOM     28 BR   UNL     1       3.840 -12.743  -0.707  0.00  0.00    -0.050 Br
ENDBRANCH  19  21
ENDBRANCH   4  17
TORSDOF 3
