REMARK  Name = ZINC01155130
REMARK  4 active torsions:
REMARK  status: ('A' for Active; 'I' for Inactive)
REMARK    1  A    between atoms: C_8  and  C_10
REMARK    2  A    between atoms: C_13  and  N_17
REMARK    3  A    between atoms: C_15  and  O_16
REMARK    4  A    between atoms: C_18  and  C_20
REMARK                            x       y       z     vdW  Elec       q    Type
REMARK                         _______ _______ _______ _____ _____    ______ ____
ROOT
ATOM      1  C   UNL     1       3.628  -3.355  -0.034  0.00  0.00    +0.078 A 
ATOM      2  C   UNL     1       2.968  -4.574   0.140  0.00  0.00    +0.018 A 
ATOM      3  C   UNL     1       3.680  -5.751   0.120  0.00  0.00    +0.024 A 
ATOM      4  C   UNL     1       5.059  -5.733  -0.073  0.00  0.00    +0.037 A 
ATOM      5  C   UNL     1       5.724  -4.526  -0.248  0.00  0.00    +0.069 A 
ATOM      6  C   UNL     1       5.016  -3.337  -0.235  0.00  0.00    +0.131 A 
ENDROOT
BRANCH   1  14
ATOM      7  C   UNL     1      -0.023   1.365   0.160  0.00  0.00    +0.002 A 
ATOM      8  C   UNL     1       1.146   2.080  -0.058  0.00  0.00    +0.004 A 
ATOM      9  C   UNL     1       2.354   1.424  -0.185  0.00  0.00    +0.048 A 
ATOM     10  C   UNL     1       2.403   0.042  -0.095  0.00  0.00    +0.156 A 
ATOM     11  C   UNL     1       1.222  -0.685   0.125  0.00  0.00    +0.110 A 
ATOM     12  C   UNL     1       0.006  -0.008   0.252  0.00  0.00    +0.031 A 
ATOM     13  N   UNL     1       1.573  -1.997   0.166  0.00  0.00    -0.209 NA
ATOM     14  C   UNL     1       2.868  -2.091  -0.013  0.00  0.00    +0.232 A 
ATOM     15  O   UNL     1       3.401  -0.866  -0.176  0.00  0.00    -0.435 OA
ENDBRANCH   1  14
BRANCH   4  16
ATOM     16  N   UNL     1       5.775  -6.930  -0.092  0.00  0.00    -0.281 N 
ATOM     17  C   UNL     1       5.208  -8.047  -0.590  0.00  0.00    +0.250 C 
ATOM     18  O   UNL     1       4.111  -7.991  -1.110  0.00  0.00    -0.270 OA
ATOM     19  H   UNL     1       6.681  -6.959   0.254  0.00  0.00    +0.155 HD
BRANCH  17  20
ATOM     20  C   UNL     1       5.920  -9.339  -0.503  0.00  0.00    +0.056 A 
ATOM     21  C   UNL     1       5.344 -10.505  -1.022  0.00  0.00    +0.031 A 
ATOM     22  C   UNL     1       6.053 -11.690  -0.916  0.00  0.00    +0.037 A 
ATOM     23  C   UNL     1       7.295 -11.684  -0.306  0.00  0.00    +0.126 A 
ATOM     24  N   UNL     1       7.812 -10.569   0.174  0.00  0.00    -0.261 NA
ATOM     25  C   UNL     1       7.180  -9.416   0.091  0.00  0.00    +0.123 A 
ATOM     26 BR   UNL     1       5.330 -13.300  -1.596  0.00  0.00    -0.049 Br
ENDBRANCH  17  20
ENDBRANCH   4  16
BRANCH   6  27
ATOM     27  O   UNL     1       5.663  -2.157  -0.411  0.00  0.00    -0.506 OA
ATOM     28  H   UNL     1       5.976  -1.754   0.411  0.00  0.00    +0.292 HD
ENDBRANCH   6  27
TORSDOF 4
