REMARK  Name = ZINC63386289
REMARK  10 active torsions:
REMARK  status: ('A' for Active; 'I' for Inactive)
REMARK    1  A    between atoms: C_1  and  C_2
REMARK    2  A    between atoms: C_3  and  C_35
REMARK    3  A    between atoms: C_9  and  C_34
REMARK    4  A    between atoms: C_10  and  C_17
REMARK    5  A    between atoms: C_15  and  C_16
REMARK    6  A    between atoms: C_17  and  C_18
REMARK    7  A    between atoms: N_20  and  C_21
REMARK    8  A    between atoms: C_21  and  C_23
REMARK    9  A    between atoms: C_21  and  C_24
REMARK   10  A    between atoms: C_24  and  C_25
REMARK                            x       y       z     vdW  Elec       q    Type
REMARK                         _______ _______ _______ _____ _____    ______ ____
ROOT
ATOM      1  C   UNL     1      -0.018   1.503   0.010  0.00  0.00    +0.048 C 
ATOM      2  C   UNL     1       0.002  -0.004   0.002  0.00  0.00    -0.002 A 
ATOM      3  C   UNL     1       0.009  -0.802  -1.073  0.00  0.00    +0.106 A 
ATOM      4  O   UNL     1       0.028  -2.093  -0.695  0.00  0.00    -0.459 OA
ATOM      5  C   UNL     1       0.035  -2.202   0.649  0.00  0.00    +0.142 A 
ATOM      6  C   UNL     1       0.025  -0.893   1.172  0.00  0.00    +0.024 A 
ATOM      7  C   UNL     1       0.035  -0.683   2.544  0.00  0.00    +0.023 A 
ATOM      8  C   UNL     1       0.058  -1.782   3.403  0.00  0.00    +0.022 A 
ATOM      9  C   UNL     1       0.068  -1.597   4.857  0.00  0.00    -0.029 A 
ATOM     10  C   UNL     1       0.090  -2.703   5.644  0.00  0.00    +0.049 A 
ATOM     11  C   UNL     1       0.102  -3.985   5.054  0.00  0.00    +0.341 A 
ATOM     12  O   UNL     1       0.121  -4.968   5.772  0.00  0.00    -0.245 OA
ATOM     13  O   UNL     1       0.092  -4.149   3.722  0.00  0.00    -0.422 OA
ATOM     14  C   UNL     1       0.071  -3.092   2.879  0.00  0.00    +0.146 A 
ATOM     15  C   UNL     1       0.053  -3.290   1.510  0.00  0.00    +0.035 A 
ATOM     16  C   UNL     1       0.070  -4.690   0.952  0.00  0.00    +0.051 C 
ATOM     17  C   UNL     1       0.056  -0.217   5.462  0.00  0.00    +0.045 C 
ATOM     18  C   UNL     1      -0.004  -0.323  -2.502  0.00  0.00    +0.086 C 
ENDROOT
BRANCH  10  19
ATOM     19  C   UNL     1       0.102  -2.562   7.144  0.00  0.00    +0.138 C 
BRANCH  19  20
ATOM     20  C   UNL     1      -1.308  -2.658   7.669  0.00  0.00    +0.218 C 
ATOM     21  O   UNL     1      -2.231  -2.823   6.900  0.00  0.00    -0.275 OA
ATOM     22  N   UNL     1      -1.543  -2.558   8.992  0.00  0.00    -0.312 N 
ATOM     23  H   UNL     1      -0.804  -2.426   9.607  0.00  0.00    +0.149 HD
BRANCH  22  24
ATOM     24  C   UNL     1      -2.913  -2.651   9.502  0.00  0.00    +0.074 C 
ATOM     25  C   UNL     1      -3.578  -1.275   9.430  0.00  0.00    +0.028 C 
BRANCH  24  26
ATOM     26  C   UNL     1      -2.885  -3.128  10.956  0.00  0.00    +0.055 C 
BRANCH  26  27
ATOM     27  C   UNL     1      -2.343  -4.533  11.013  0.00  0.00    -0.040 C 
ATOM     28  C   UNL     1      -1.064  -4.902  11.251  0.00  0.00    -0.001 A 
ATOM     29  C   UNL     1       0.159  -4.135  11.518  0.00  0.00    +0.010 A 
ATOM     30  C   UNL     1       1.319  -4.800  11.722  0.00  0.00    +0.001 A 
ATOM     31  C   UNL     1       1.382  -6.200  11.685  0.00  0.00    +0.002 A 
ATOM     32  C   UNL     1       0.302  -6.973  11.446  0.00  0.00    +0.026 A 
ATOM     33  C   UNL     1      -0.970  -6.379  11.218  0.00  0.00    +0.043 A 
ATOM     34  N   UNL     1      -2.146  -6.903  10.968  0.00  0.00    -0.380 N 
ATOM     35  C   UNL     1      -3.120  -5.816  10.821  0.00  0.00    +0.144 C 
ATOM     36  H   UNL     1      -2.340  -7.851  10.897  0.00  0.00    +0.160 HD
ENDBRANCH  26  27
ENDBRANCH  24  26
ENDBRANCH  22  24
ENDBRANCH  19  20
ENDBRANCH  10  19
TORSDOF 5
