REMARK  Name = ZINC38793147
REMARK  5 active torsions:
REMARK  status: ('A' for Active; 'I' for Inactive)
REMARK    1  A    between atoms: C_1  and  C_2
REMARK    2  A    between atoms: C_4  and  C_18
REMARK    3  A    between atoms: C_6  and  C_11
REMARK    4  A    between atoms: C_14  and  C_17
REMARK    5  A    between atoms: C_23  and  C_26
REMARK                            x       y       z     vdW  Elec       q    Type
REMARK                         _______ _______ _______ _____ _____    ______ ____
ROOT
ATOM      1  C   UNL     1      -0.145   0.884  -3.294  0.00  0.00    +0.248 C 
ATOM      2  O   UNL     1      -0.169   1.921  -2.662  0.00  0.00    -0.270 OA
ATOM      3  N   UNL     1      -0.375   0.898  -4.622  0.00  0.00    -0.293 N 
ATOM      4  C   UNL     1      -0.530   2.165  -5.357  0.00  0.00    +0.113 C 
ATOM      5  C   UNL     1       0.605   2.261  -6.380  0.00  0.00    +0.054 C 
ATOM      6  C   UNL     1       0.760   0.961  -7.112  0.00  0.00    -0.043 C 
ATOM      7  C   UNL     1       0.289  -0.201  -6.676  0.00  0.00    -0.004 C 
ATOM      8  C   UNL     1      -0.474  -0.349  -5.394  0.00  0.00    +0.135 C 
ENDROOT
BRANCH   1  12
ATOM      9  C   UNL     1      -2.391   1.117  -1.034  0.00  0.00    +0.070 C 
ATOM     10  C   UNL     1      -1.724  -0.201  -0.738  0.00  0.00    +0.091 A 
ATOM     11  C   UNL     1      -0.615  -0.796  -1.480  0.00  0.00    +0.076 A 
ATOM     12  C   UNL     1       0.135  -0.396  -2.606  0.00  0.00    +0.053 A 
ATOM     13  C   UNL     1       1.147  -1.242  -3.049  0.00  0.00    +0.042 A 
ATOM     14  C   UNL     1       1.377  -2.442  -2.369  0.00  0.00    +0.082 A 
ATOM     15  N   UNL     1       0.653  -2.787  -1.315  0.00  0.00    -0.209 NA
ATOM     16  C   UNL     1      -0.320  -2.020  -0.852  0.00  0.00    +0.260 A 
ATOM     17  O   UNL     1      -1.179  -2.146   0.179  0.00  0.00    -0.334 OA
ATOM     18  N   UNL     1      -2.024  -1.015   0.229  0.00  0.00    -0.080 NA
BRANCH  14  19
ATOM     19  C   UNL     1       2.452  -3.346  -2.837  0.00  0.00    +0.030 C 
ATOM     20  C   UNL     1       2.799  -4.521  -2.313  0.00  0.00    -0.009 C 
ATOM     21  C   UNL     1       3.928  -5.292  -2.919  0.00  0.00    +0.042 C 
ATOM     22  C   UNL     1       4.227  -4.795  -4.357  0.00  0.00    +0.052 C 
ATOM     23  S   UNL     1       3.544  -3.091  -4.224  0.00  0.00    -0.120 S 
ATOM     24  C   UNL     1       5.730  -4.780  -4.643  0.00  0.00    +0.019 C 
ENDBRANCH  14  19
ENDBRANCH   1  12
BRANCH   6  25
ATOM     25  C   UNL     1       1.451   0.975  -8.341  0.00  0.00    -0.015 C 
ATOM     26  C   UNL     1       2.119   2.048  -8.918  0.00  0.00    +0.022 A 
ATOM     27  C   UNL     1       2.319   3.386  -8.508  0.00  0.00    +0.013 A 
ATOM     28  C   UNL     1       3.038   4.210  -9.321  0.00  0.00    +0.020 A 
ATOM     29  C   UNL     1       3.560   3.739 -10.525  0.00  0.00    +0.113 A 
ATOM     30  N   UNL     1       3.393   2.507 -10.934  0.00  0.00    -0.238 NA
ATOM     31  C   UNL     1       2.697   1.611 -10.202  0.00  0.00    +0.135 A 
ATOM     32  N   UNL     1       2.415   0.346 -10.424  0.00  0.00    -0.365 N 
ATOM     33  C   UNL     1       1.628  -0.179  -9.304  0.00  0.00    +0.150 C 
ATOM     34  H   UNL     1       2.688  -0.162 -11.204  0.00  0.00    +0.161 HD
ENDBRANCH   6  25
TORSDOF 3
