REMARK  Name = ZINC09215664
REMARK  3 active torsions:
REMARK  status: ('A' for Active; 'I' for Inactive)
REMARK    1  A    between atoms: C_4  and  N_7
REMARK    2  A    between atoms: C_22  and  C_28
REMARK    3  A    between atoms: C_28  and  C_30
REMARK                            x       y       z     vdW  Elec       q    Type
REMARK                         _______ _______ _______ _____ _____    ______ ____
ROOT
ATOM      1  N   UNL     1       5.146  -3.427   0.139  0.00  0.00    -0.210 N 
ATOM      2  C   UNL     1       3.805  -3.192   0.028  0.00  0.00    +0.232 C 
ATOM      3  O   UNL     1       2.907  -3.813   0.556  0.00  0.00    -0.274 OA
ATOM      4  C   UNL     1       3.637  -1.999  -0.900  0.00  0.00    +0.113 C 
ATOM      5  C   UNL     1       3.679  -0.720  -0.055  0.00  0.00    +0.100 C 
ATOM      6  C   UNL     1       2.341  -0.029  -0.038  0.00  0.00    -0.021 A 
ATOM      7  C   UNL     1       1.167  -0.746  -0.053  0.00  0.00    +0.006 A 
ATOM      8  C   UNL     1      -0.049  -0.084  -0.049  0.00  0.00    +0.000 A 
ATOM      9  C   UNL     1      -0.089   1.299  -0.029  0.00  0.00    +0.001 A 
ATOM     10  C   UNL     1       1.080   2.030  -0.011  0.00  0.00    +0.008 A 
ATOM     11  C   UNL     1       2.311   1.371  -0.013  0.00  0.00    -0.019 A 
ATOM     12  C   UNL     1       3.569   2.143   0.020  0.00  0.00    +0.022 C 
ATOM     13  C   UNL     1       4.723   1.543  -0.334  0.00  0.00    +0.054 C 
ATOM     14  C   UNL     1       5.367  -0.494  -1.742  0.00  0.00    +0.141 C 
ATOM     15  C   UNL     1       4.996  -1.981  -1.664  0.00  0.00    +0.116 C 
ATOM     16  C   UNL     1       5.909  -2.705  -0.698  0.00  0.00    +0.232 C 
ATOM     17  O   UNL     1       7.119  -2.643  -0.682  0.00  0.00    -0.274 OA
ATOM     18  N   UNL     1       4.839   0.041  -0.451  0.00  0.00    -0.384 NA
ATOM     19  H   UNL     1       5.555  -0.201   0.244  0.00  0.00    +0.127 HD
ENDROOT
BRANCH   1  23
ATOM     20  C   UNL     1       6.730  -6.165   2.855  0.00  0.00    +0.000 A 
ATOM     21  C   UNL     1       7.556  -5.552   1.931  0.00  0.00    +0.002 A 
ATOM     22  C   UNL     1       7.035  -4.645   1.030  0.00  0.00    +0.024 A 
ATOM     23  C   UNL     1       5.679  -4.348   1.052  0.00  0.00    +0.044 A 
ATOM     24  C   UNL     1       4.852  -4.962   1.984  0.00  0.00    +0.024 A 
ATOM     25  C   UNL     1       5.378  -5.872   2.879  0.00  0.00    +0.002 A 
ENDBRANCH   1  23
BRANCH  14  26
ATOM     26  C   UNL     1       6.849  -0.325  -1.530  0.00  0.00    +0.183 C 
ATOM     27  O   UNL     1       7.272   0.011  -0.445  0.00  0.00    -0.290 OA
BRANCH  26  28
ATOM     28  C   UNL     1       7.784  -0.569  -2.640  0.00  0.00    +0.019 A 
ATOM     29  C   UNL     1       7.300  -0.964  -3.892  0.00  0.00    +0.012 A 
ATOM     30  C   UNL     1       8.181  -1.185  -4.929  0.00  0.00    +0.016 A 
ATOM     31  C   UNL     1       9.543  -1.029  -4.730  0.00  0.00    +0.018 A 
ATOM     32  C   UNL     1      10.030  -0.645  -3.491  0.00  0.00    +0.016 A 
ATOM     33  C   UNL     1       9.160  -0.414  -2.447  0.00  0.00    +0.012 A 
ATOM     34 BR   UNL     1      10.744  -1.343  -6.157  0.00  0.00    -0.050 Br
ENDBRANCH  26  28
ENDBRANCH  14  26
TORSDOF 3
