REMARK  Name = ZINC09192189
REMARK  6 active torsions:
REMARK  status: ('A' for Active; 'I' for Inactive)
REMARK    1  A    between atoms: C_1  and  C_2
REMARK    2  A    between atoms: C_14  and  C_33
REMARK    3  A    between atoms: N_16  and  C_17
REMARK    4  A    between atoms: C_17  and  C_19
REMARK    5  A    between atoms: N_26  and  C_27
REMARK    6  A    between atoms: C_27  and  C_28
REMARK                            x       y       z     vdW  Elec       q    Type
REMARK                         _______ _______ _______ _____ _____    ______ ____
ROOT
ATOM      1  C   UNL     1       4.489   1.526   0.688  0.00  0.00    +0.047 C 
ATOM      2  C   UNL     1       4.587   0.720   1.957  0.00  0.00    -0.007 A 
ATOM      3  C   UNL     1       5.786   0.585   2.591  0.00  0.00    +0.008 A 
ATOM      4  C   UNL     1       5.864  -0.169   3.770  0.00  0.00    +0.019 A 
ATOM      5  C   UNL     1       4.754  -0.758   4.272  0.00  0.00    +0.096 A 
ATOM      6  N   UNL     1       3.551  -0.628   3.644  0.00  0.00    -0.267 N 
ATOM      7  C   UNL     1       3.442   0.101   2.493  0.00  0.00    +0.145 A 
ATOM      8  N   UNL     1       2.280   0.247   1.856  0.00  0.00    -0.211 NA
ATOM      9  C   UNL     1       1.159  -0.309   2.290  0.00  0.00    +0.150 A 
ATOM     10  C   UNL     1       1.185  -1.075   3.481  0.00  0.00    +0.084 A 
ATOM     11  C   UNL     1       2.463  -1.232   4.177  0.00  0.00    +0.268 A 
ATOM     12  O   UNL     1       2.545  -1.885   5.202  0.00  0.00    -0.267 OA
ATOM     13  C   UNL     1       0.014  -1.665   3.964  0.00  0.00    +0.039 A 
ATOM     14  C   UNL     1      -1.175  -1.483   3.260  0.00  0.00    +0.093 A 
ATOM     15  C   UNL     1      -1.176  -0.707   2.075  0.00  0.00    +0.146 A 
ATOM     16  N   UNL     1      -2.312  -0.532   1.403  0.00  0.00    -0.158 NA
ATOM     17  N   UNL     1      -0.021  -0.136   1.615  0.00  0.00    -0.303 N 
ENDROOT
BRANCH  16  18
ATOM     18  C   UNL     1      -3.356  -1.332   1.636  0.00  0.00    +0.270 C 
ATOM     19  O   UNL     1      -3.222  -2.542   1.577  0.00  0.00    -0.268 OA
BRANCH  18  20
ATOM     20  C   UNL     1      -4.677  -0.748   1.965  0.00  0.00    +0.057 A 
ATOM     21  C   UNL     1      -4.833   0.637   2.033  0.00  0.00    +0.014 A 
ATOM     22  C   UNL     1      -6.066   1.174   2.341  0.00  0.00    +0.001 A 
ATOM     23  C   UNL     1      -7.146   0.344   2.581  0.00  0.00    +0.001 A 
ATOM     24  C   UNL     1      -6.999  -1.029   2.515  0.00  0.00    +0.021 A 
ATOM     25  C   UNL     1      -5.771  -1.581   2.204  0.00  0.00    +0.053 A 
ATOM     26 CL   UNL     1      -5.589  -3.305   2.115  0.00  0.00    -0.083 Cl
ENDBRANCH  18  20
ENDBRANCH  16  18
BRANCH  14  27
ATOM     27  C   UNL     1      -2.390  -2.076   3.734  0.00  0.00    +0.103 C 
ATOM     28  N   UNL     1      -3.353  -2.546   4.109  0.00  0.00    -0.191 NA
ENDBRANCH  14  27
BRANCH  17  29
ATOM     29  C   UNL     1      -0.045   0.662   0.387  0.00  0.00    +0.199 C 
BRANCH  29  30
ATOM     30  C   UNL     1      -0.326   2.103   0.729  0.00  0.00    +0.125 A 
ATOM     31  C   UNL     1       0.599   3.039   1.008  0.00  0.00    +0.046 A 
ATOM     32  C   UNL     1      -0.101   4.240   1.270  0.00  0.00    +0.041 A 
ATOM     33  C   UNL     1      -1.411   3.965   1.136  0.00  0.00    +0.195 A 
ATOM     34  O   UNL     1      -1.541   2.670   0.803  0.00  0.00    -0.466 OA
ENDBRANCH  29  30
ENDBRANCH  17  29
TORSDOF 5
