REMARK  Name = ZINC60063293
REMARK  5 active torsions:
REMARK  status: ('A' for Active; 'I' for Inactive)
REMARK    1  A    between atoms: C_3  and  C_18
REMARK    2  A    between atoms: C_5  and  N_7
REMARK    3  A    between atoms: N_7  and  S_8
REMARK    4  A    between atoms: S_8  and  C_11
REMARK    5  A    between atoms: N_20  and  C_21
REMARK                            x       y       z     vdW  Elec       q    Type
REMARK                         _______ _______ _______ _____ _____    ______ ____
ROOT
ATOM      1  C   UNL     1      -0.017   1.378   0.010  0.00  0.00    +0.003 A 
ATOM      2  C   UNL     1       1.166   2.089   0.002  0.00  0.00    +0.013 A 
ATOM      3  C   UNL     1       2.387   1.412  -0.013  0.00  0.00    +0.039 A 
ATOM      4  C   UNL     1       2.406   0.018  -0.021  0.00  0.00    +0.039 A 
ATOM      5  C   UNL     1       1.213  -0.688  -0.013  0.00  0.00    +0.075 A 
ATOM      6  C   UNL     1       0.002  -0.004   0.002  0.00  0.00    +0.027 A 
ENDROOT
BRANCH   3   7
ATOM      7  C   UNL     1       3.656   2.172  -0.022  0.00  0.00    +0.249 C 
ATOM      8  O   UNL     1       4.718   1.580  -0.035  0.00  0.00    -0.270 OA
ATOM      9  N   UNL     1       3.635   3.519  -0.015  0.00  0.00    -0.267 N 
ATOM     10  H   UNL     1       2.787   3.991  -0.004  0.00  0.00    +0.157 HD
BRANCH   9  11
ATOM     11  C   UNL     1       4.830   4.235  -0.023  0.00  0.00    +0.120 A 
ATOM     12  C   UNL     1       6.085   3.707  -0.038  0.00  0.00    +0.064 A 
ATOM     13  C   UNL     1       6.996   4.766  -0.041  0.00  0.00    +0.136 A 
ATOM     14  N   UNL     1       6.325   5.889  -0.029  0.00  0.00    -0.181 NA
ATOM     15  H   UNL     1       4.230   6.229  -0.018  0.00  0.00    +0.190 HD
ATOM     16  N   UNL     1       4.957   5.587  -0.023  0.00  0.00    -0.264 N 
ENDBRANCH   9  11
ENDBRANCH   3   7
BRANCH   5  17
ATOM     17  N   UNL     1       1.226  -2.084  -0.021  0.00  0.00    -0.098 NA
BRANCH  17  18
ATOM     18  S   UNL     1      -0.200  -2.926  -0.012  0.00  0.00    +0.092 S 
ATOM     19  O   UNL     1      -0.817  -2.666   1.241  0.00  0.00    -0.148 OA
ATOM     20  O   UNL     1      -0.842  -2.651  -1.250  0.00  0.00    -0.148 OA
BRANCH  18  21
ATOM     21  C   UNL     1       0.207  -4.641  -0.026  0.00  0.00    +0.110 A 
ATOM     22  C   UNL     1       0.361  -5.305  -1.229  0.00  0.00    +0.030 A 
ATOM     23  C   UNL     1       0.681  -6.649  -1.240  0.00  0.00    +0.017 A 
ATOM     24  C   UNL     1       0.847  -7.331  -0.048  0.00  0.00    +0.018 A 
ATOM     25  C   UNL     1       0.693  -6.666   1.155  0.00  0.00    +0.017 A 
ATOM     26  C   UNL     1       0.379  -5.320   1.166  0.00  0.00    +0.030 A 
ATOM     27 BR   UNL     1       1.284  -9.170  -0.062  0.00  0.00    -0.050 Br
ENDBRANCH  18  21
ENDBRANCH  17  18
ENDBRANCH   5  17
TORSDOF 5
