REMARK  Name = ZINC48695724
REMARK  5 active torsions:
REMARK  status: ('A' for Active; 'I' for Inactive)
REMARK    1  A    between atoms: C_1  and  C_2
REMARK    2  A    between atoms: C_4  and  C_16
REMARK    3  A    between atoms: C_6  and  S_8
REMARK    4  A    between atoms: S_8  and  C_9
REMARK    5  A    between atoms: C_9  and  C_10
REMARK                            x       y       z     vdW  Elec       q    Type
REMARK                         _______ _______ _______ _____ _____    ______ ____
ROOT
ATOM      1  C   UNL     1      -0.018   1.503   0.010  0.00  0.00    +0.066 C 
ATOM      2  C   UNL     1       0.002  -0.004   0.002  0.00  0.00    +0.043 A 
ATOM      3  C   UNL     1       0.006  -0.699  -1.198  0.00  0.00    +0.046 A 
ATOM      4  C   UNL     1       0.025  -2.084  -1.161  0.00  0.00    +0.043 A 
ATOM      5  N   UNL     1       0.039  -2.699   0.010  0.00  0.00    -0.227 NA
ATOM      6  C   UNL     1       0.035  -2.005   1.140  0.00  0.00    +0.189 A 
ATOM      7  N   UNL     1       0.022  -0.679   1.139  0.00  0.00    -0.227 NA
ATOM      8  C   UNL     1       0.029  -2.881  -2.440  0.00  0.00    +0.066 C 
ENDROOT
BRANCH   6   9
ATOM      9  S   UNL     1       0.053  -2.864   2.678  0.00  0.00    -0.080 S 
BRANCH   9  10
ATOM     10  C   UNL     1       0.041  -1.542   3.919  0.00  0.00    +0.136 C 
BRANCH  10  11
ATOM     11  C   UNL     1       0.056  -2.148   5.299  0.00  0.00    +0.101 A 
ATOM     12  C   UNL     1      -1.083  -2.463   5.971  0.00  0.00    +0.122 A 
ATOM     13  S   UNL     1      -0.479  -3.086   7.409  0.00  0.00    +0.048 S 
ATOM     14  N   UNL     1       1.105  -2.933   7.120  0.00  0.00    -0.109 NA
ATOM     15  N   UNL     1       1.173  -2.418   5.941  0.00  0.00    -0.144 NA
ATOM     16 CL   UNL     1      -2.735  -2.270   5.472  0.00  0.00    -0.072 Cl
ENDBRANCH  10  11
ENDBRANCH   9  10
ENDBRANCH   6   9
TORSDOF 3
