REMARK  Name = ZINC39530605
REMARK  10 active torsions:
REMARK  status: ('A' for Active; 'I' for Inactive)
REMARK    1  A    between atoms: C_1  and  C_2
REMARK    2  A    between atoms: C_2  and  O_3
REMARK    3  A    between atoms: O_3  and  C_4
REMARK    4  A    between atoms: C_7  and  N_20
REMARK    5  A    between atoms: C_8  and  S_10
REMARK    6  A    between atoms: S_10  and  O_13
REMARK    7  A    between atoms: O_13  and  C_14
REMARK    8  A    between atoms: C_24  and  S_27
REMARK    9  A    between atoms: S_27  and  O_30
REMARK   10  A    between atoms: O_30  and  C_31
REMARK                            x       y       z     vdW  Elec       q    Type
REMARK                         _______ _______ _______ _____ _____    ______ ____
ROOT
ATOM      1  C   UNL     1      -1.643  -1.706  -0.204  0.00  0.00    +0.123 A 
ATOM      2  C   UNL     1      -0.502  -2.478  -0.369  0.00  0.00    +0.047 A 
ATOM      3  C   UNL     1      -0.600  -3.854  -0.418  0.00  0.00    +0.029 A 
ATOM      4  C   UNL     1      -1.842  -4.466  -0.302  0.00  0.00    +0.058 A 
ATOM      5  C   UNL     1      -2.983  -3.692  -0.138  0.00  0.00    +0.152 A 
ATOM      6  C   UNL     1      -2.882  -2.316  -0.083  0.00  0.00    +0.078 A 
ENDROOT
BRANCH   4   7
ATOM      7  N   UNL     1      -1.943  -5.860  -0.353  0.00  0.00    -0.330 N 
ATOM      8  C   UNL     1      -2.135  -6.559  -1.633  0.00  0.00    +0.086 C 
ATOM      9  C   UNL     1      -1.093  -7.678  -1.737  0.00  0.00    -0.061 C 
ATOM     10  N   UNL     1      -1.185  -8.543  -0.554  0.00  0.00    +0.398 N 
ATOM     11  C   UNL     1      -0.830  -7.783   0.651  0.00  0.00    +0.133 C 
ATOM     12  C   UNL     1      -1.853  -6.670   0.872  0.00  0.00    +0.115 C 
ATOM     13  H   UNL     1      -2.129  -8.890  -0.466  0.00  0.00    -0.083 HD
ATOM     14  H   UNL     1      -0.552  -9.322  -0.658  0.00  0.00    -0.083 HD
BRANCH  11  15
ATOM     15  S   UNL     1      -0.820  -8.893   2.085  0.00  0.00    +0.109 S 
ATOM     16  O   UNL     1      -0.307  -8.216   3.224  0.00  0.00    -0.138 OA
ATOM     17  O   UNL     1      -2.046  -9.608   2.159  0.00  0.00    -0.138 OA
BRANCH  15  18
ATOM     18  O   UNL     1       0.226  -9.948   1.756  0.00  0.00    -0.347 OA
BRANCH  18  19
ATOM     19  C   UNL     1       1.508  -9.511   1.873  0.00  0.00    +0.156 A 
ATOM     20  C   UNL     1       2.148  -8.937   0.784  0.00  0.00    +0.048 A 
ATOM     21  C   UNL     1       3.450  -8.493   0.905  0.00  0.00    +0.004 A 
ATOM     22  C   UNL     1       4.116  -8.620   2.110  0.00  0.00    +0.000 A 
ATOM     23  C   UNL     1       3.481  -9.193   3.197  0.00  0.00    +0.004 A 
ATOM     24  C   UNL     1       2.176  -9.633   3.082  0.00  0.00    +0.048 A 
ENDBRANCH  18  19
ENDBRANCH  15  18
ENDBRANCH  11  15
ENDBRANCH   4   7
BRANCH   5  25
ATOM     25  S   UNL     1      -4.559  -4.467   0.009  0.00  0.00    +0.153 S 
ATOM     26  O   UNL     1      -5.126  -4.485  -1.294  0.00  0.00    -0.131 OA
ATOM     27  O   UNL     1      -4.361  -5.650   0.770  0.00  0.00    -0.131 OA
BRANCH  25  28
ATOM     28  O   UNL     1      -5.434  -3.550   0.852  0.00  0.00    -0.342 OA
BRANCH  28  29
ATOM     29  C   UNL     1      -5.152  -3.584   2.181  0.00  0.00    +0.157 A 
ATOM     30  C   UNL     1      -5.714  -4.565   2.985  0.00  0.00    +0.048 A 
ATOM     31  C   UNL     1      -5.426  -4.598   4.336  0.00  0.00    +0.004 A 
ATOM     32  C   UNL     1      -4.578  -3.654   4.886  0.00  0.00    +0.000 A 
ATOM     33  C   UNL     1      -4.017  -2.675   4.087  0.00  0.00    +0.004 A 
ATOM     34  C   UNL     1      -4.298  -2.642   2.734  0.00  0.00    +0.048 A 
ENDBRANCH  28  29
ENDBRANCH  25  28
ENDBRANCH   5  25
BRANCH   1  35
ATOM     35  O   UNL     1      -1.545  -0.350  -0.156  0.00  0.00    -0.492 OA
BRANCH  35  37
ATOM     36  C   UNL     1      -0.327   1.736  -0.210  0.00  0.00    +0.048 C 
ATOM     37  C   UNL     1      -0.237   0.211  -0.288  0.00  0.00    +0.225 C 
ENDBRANCH  35  37
ENDBRANCH   1  35
TORSDOF 9
