REMARK  Name = ZINC16503320
REMARK  11 active torsions:
REMARK  status: ('A' for Active; 'I' for Inactive)
REMARK    1  A    between atoms: C_1  and  C_2
REMARK    2  A    between atoms: C_5  and  C_11
REMARK    3  A    between atoms: C_7  and  N_8
REMARK    4  A    between atoms: N_13  and  C_14
REMARK    5  A    between atoms: N_13  and  C_37
REMARK    6  A    between atoms: C_14  and  C_15
REMARK    7  A    between atoms: C_25  and  C_27
REMARK    8  A    between atoms: C_30  and  C_33
REMARK    9  A    between atoms: C_33  and  C_34
REMARK   10  A    between atoms: C_33  and  C_35
REMARK   11  A    between atoms: C_33  and  C_36
REMARK                            x       y       z     vdW  Elec       q    Type
REMARK                         _______ _______ _______ _____ _____    ______ ____
ROOT
ATOM      1  C   UNL     1      -0.869  -1.423   0.869  0.00  0.00    +0.234 C 
ATOM      2  O   UNL     1      -0.973  -1.638  -0.320  0.00  0.00    -0.274 OA
ATOM      3  N   UNL     1      -1.806  -1.882   1.722  0.00  0.00    -0.289 N 
ATOM      4  C   UNL     1      -1.727  -1.568   3.156  0.00  0.00    +0.114 C 
ATOM      5  C   UNL     1      -2.943  -0.694   3.521  0.00  0.00    +0.062 C 
ATOM      6  C   UNL     1      -4.157  -1.262   2.860  0.00  0.00    -0.003 A 
ATOM      7  C   UNL     1      -4.210  -2.157   1.837  0.00  0.00    -0.012 A 
ATOM      8  C   UNL     1      -5.478  -2.526   1.393  0.00  0.00    +0.013 A 
ATOM      9  C   UNL     1      -6.579  -2.001   1.978  0.00  0.00    +0.046 A 
ATOM     10  S   UNL     1      -5.862  -0.931   3.216  0.00  0.00    -0.101 S 
ATOM     11  C   UNL     1      -2.919  -2.707   1.232  0.00  0.00    +0.137 C 
ENDROOT
BRANCH  11  12
ATOM     12  C   UNL     1      -2.987  -2.632  -0.271  0.00  0.00    -0.023 A 
ATOM     13  C   UNL     1      -3.367  -1.455  -0.888  0.00  0.00    +0.006 A 
ATOM     14  C   UNL     1      -3.424  -1.384  -2.268  0.00  0.00    +0.004 A 
ATOM     15  C   UNL     1      -3.112  -2.494  -3.030  0.00  0.00    -0.042 A 
ATOM     16  C   UNL     1      -2.738  -3.674  -2.413  0.00  0.00    +0.004 A 
ATOM     17  C   UNL     1      -2.675  -3.742  -1.034  0.00  0.00    +0.006 A 
BRANCH  15  18
ATOM     18  C   UNL     1      -3.180  -2.419  -4.533  0.00  0.00    -0.013 C 
ATOM     19  C   UNL     1      -4.191  -3.444  -5.050  0.00  0.00    +0.015 C 
ATOM     20  C   UNL     1      -3.616  -1.015  -4.955  0.00  0.00    +0.015 C 
ATOM     21  C   UNL     1      -1.800  -2.723  -5.122  0.00  0.00    +0.015 C 
ENDBRANCH  15  18
ENDBRANCH  11  12
BRANCH   1  22
ATOM     22  C   UNL     1       0.310  -0.644   1.393  0.00  0.00    +0.204 C 
BRANCH  22  25
ATOM     23  C   UNL     1       1.210   1.018  -0.144  0.00  0.00    +0.247 C 
ATOM     24  O   UNL     1       1.953   1.342  -1.050  0.00  0.00    -0.270 OA
ATOM     25  N   UNL     1       1.178  -0.262   0.276  0.00  0.00    -0.286 N 
BRANCH  23  30
ATOM     26  C   UNL     1      -2.153   4.958   2.364  0.00  0.00    +0.046 C 
ATOM     27  C   UNL     1      -1.272   3.926   1.707  0.00  0.00    -0.020 A 
ATOM     28  C   UNL     1      -1.679   2.604   1.658  0.00  0.00    +0.006 A 
ATOM     29  C   UNL     1      -0.880   1.656   1.053  0.00  0.00    +0.013 A 
ATOM     30  C   UNL     1       0.346   2.030   0.501  0.00  0.00    +0.039 A 
ATOM     31  C   UNL     1       0.750   3.365   0.554  0.00  0.00    +0.046 A 
ATOM     32  C   UNL     1      -0.061   4.305   1.157  0.00  0.00    +0.130 A 
BRANCH  32  33
ATOM     33  N   UNL     1       0.366   5.721   1.215  0.00  0.00    +0.057 N 
ATOM     34  O   UNL     1       1.433   6.055   0.732  0.00  0.00    -0.126 OA
ATOM     35  O   UNL     1      -0.349   6.551   1.746  0.00  0.00    -0.126 OA
ENDBRANCH  32  33
ENDBRANCH  23  30
BRANCH  25  36
ATOM     36  C   UNL     1       2.010  -1.270  -0.383  0.00  0.00    +0.077 C 
ATOM     37  C   UNL     1       3.163  -0.773  -1.257  0.00  0.00    +0.024 C 
ATOM     38  C   UNL     1       1.917  -1.378  -1.906  0.00  0.00    +0.024 C 
ENDBRANCH  25  36
ENDBRANCH  22  25
ENDBRANCH   1  22
TORSDOF 7
