REMARK  Name = ZINC02955751
REMARK  8 active torsions:
REMARK  status: ('A' for Active; 'I' for Inactive)
REMARK    1  A    between atoms: C_1  and  C_2
REMARK    2  A    between atoms: C_2  and  C_3
REMARK    3  A    between atoms: C_8  and  N_9
REMARK    4  A    between atoms: C_11  and  C_23
REMARK    5  A    between atoms: C_14  and  C_21
REMARK    6  A    between atoms: C_17  and  C_20
REMARK    7  A    between atoms: C_21  and  O_22
REMARK    8  A    between atoms: N_25  and  C_26
REMARK                            x       y       z     vdW  Elec       q    Type
REMARK                         _______ _______ _______ _____ _____    ______ ____
ROOT
ATOM      1  N   UNL     1      -1.763  -0.053  -2.284  0.00  0.00    -0.325 N 
ATOM      2  C   UNL     1      -2.159  -0.532  -3.442  0.00  0.00    +0.212 A 
ATOM      3  C   UNL     1      -1.230  -0.610  -4.588  0.00  0.00    +0.098 A 
ATOM      4  C   UNL     1      -1.480  -1.577  -5.537  0.00  0.00    +0.030 A 
ATOM      5  C   UNL     1      -2.645  -2.438  -5.328  0.00  0.00    +0.027 A 
ATOM      6  C   UNL     1      -2.843  -3.604  -6.077  0.00  0.00    +0.007 A 
ATOM      7  C   UNL     1      -3.964  -4.368  -5.822  0.00  0.00    +0.117 A 
ATOM      8  N   UNL     1      -4.834  -4.016  -4.894  0.00  0.00    -0.256 NA
ATOM      9  C   UNL     1      -4.692  -2.928  -4.163  0.00  0.00    +0.081 A 
ATOM     10  C   UNL     1      -3.598  -2.096  -4.350  0.00  0.00    +0.159 A 
ATOM     11  O   UNL     1      -3.431  -0.974  -3.615  0.00  0.00    -0.437 OA
ATOM     12  C   UNL     1      -5.725  -2.585  -3.121  0.00  0.00    +0.069 C 
ATOM     13  H   UNL     1      -0.832   0.184  -2.149  0.00  0.00    +0.169 HD
ENDROOT
BRANCH   1  19
ATOM     14  C   UNL     1      -2.393  -0.406   0.001  0.00  0.00    -0.024 A 
ATOM     15  C   UNL     1      -3.304  -0.231   1.022  0.00  0.00    +0.005 A 
ATOM     16  C   UNL     1      -4.485   0.452   0.790  0.00  0.00    +0.000 A 
ATOM     17  C   UNL     1      -4.762   0.963  -0.466  0.00  0.00    +0.002 A 
ATOM     18  C   UNL     1      -3.861   0.796  -1.496  0.00  0.00    +0.026 A 
ATOM     19  C   UNL     1      -2.663   0.113  -1.268  0.00  0.00    +0.045 A 
BRANCH  14  21
ATOM     20  C   UNL     1       0.002  -0.149   0.589  0.00  0.00    +0.009 C 
ATOM     21  C   UNL     1      -1.107  -1.149   0.255  0.00  0.00    +0.034 C 
ENDBRANCH  14  21
ENDBRANCH   1  19
BRANCH   3  22
ATOM     22  C   UNL     1      -0.084   0.308  -4.710  0.00  0.00    +0.253 C 
ATOM     23  O   UNL     1       0.731   0.148  -5.599  0.00  0.00    -0.270 OA
ATOM     24  N   UNL     1       0.061   1.325  -3.838  0.00  0.00    -0.281 N 
ATOM     25  H   UNL     1      -0.593   1.458  -3.135  0.00  0.00    +0.155 HD
BRANCH  24  26
ATOM     26  C   UNL     1       1.157   2.188  -3.946  0.00  0.00    +0.034 A 
ATOM     27  C   UNL     1       1.690   2.483  -5.194  0.00  0.00    +0.024 A 
ATOM     28  C   UNL     1       2.771   3.336  -5.298  0.00  0.00    +0.017 A 
ATOM     29  C   UNL     1       3.324   3.896  -4.160  0.00  0.00    +0.018 A 
ATOM     30  C   UNL     1       2.795   3.604  -2.915  0.00  0.00    +0.017 A 
ATOM     31  C   UNL     1       1.710   2.757  -2.806  0.00  0.00    +0.024 A 
ATOM     32 BR   UNL     1       4.805   5.062  -4.306  0.00  0.00    -0.050 Br
ENDBRANCH  24  26
ENDBRANCH   3  22
BRANCH   6  33
ATOM     33  C   UNL     1      -1.856  -4.016  -7.139  0.00  0.00    +0.193 C 
BRANCH  33  34
ATOM     34  O   UNL     1      -2.292  -5.233  -7.748  0.00  0.00    -0.390 OA
ATOM     35  H   UNL     1      -1.702  -5.558  -8.443  0.00  0.00    +0.210 HD
ENDBRANCH  33  34
ENDBRANCH   6  33
TORSDOF 6
