REMARK  Name = ZINC09424387
REMARK  3 active torsions:
REMARK  status: ('A' for Active; 'I' for Inactive)
REMARK    1  A    between atoms: C_4  and  N_7
REMARK    2  A    between atoms: C_8  and  C_27
REMARK    3  A    between atoms: N_17  and  C_20
REMARK                            x       y       z     vdW  Elec       q    Type
REMARK                         _______ _______ _______ _____ _____    ______ ____
ROOT
ATOM      1  N   UNL     1      -4.805  -0.353  -0.243  0.00  0.00    -0.244 N 
ATOM      2  C   UNL     1      -4.953   1.120   0.032  0.00  0.00    +0.160 C 
ATOM      3  C   UNL     1      -5.532   1.079   1.392  0.00  0.00    +0.146 C 
ATOM      4  C   UNL     1      -6.598  -0.077   1.222  0.00  0.00    +0.249 C 
ATOM      5  O   UNL     1      -5.742  -1.063   0.653  0.00  0.00    -0.257 OA
ATOM      6  C   UNL     1      -6.997  -0.140   2.672  0.00  0.00    +0.259 C 
ATOM      7  O   UNL     1      -7.308  -1.127   3.304  0.00  0.00    -0.272 OA
ATOM      8  N   UNL     1      -6.937   1.146   3.128  0.00  0.00    -0.208 N 
ATOM      9  C   UNL     1      -6.238   1.966   2.289  0.00  0.00    +0.235 C 
ATOM     10  O   UNL     1      -6.215   3.178   2.299  0.00  0.00    -0.274 OA
ENDROOT
BRANCH   2  11
ATOM     11  C   UNL     1      -3.615   1.813   0.029  0.00  0.00    +0.016 A 
ATOM     12  C   UNL     1      -2.464   1.078   0.020  0.00  0.00    +0.018 A 
ATOM     13  C   UNL     1      -1.236   1.765   0.018  0.00  0.00    +0.001 A 
ATOM     14  C   UNL     1      -0.013   1.076   0.008  0.00  0.00    +0.010 A 
ATOM     15  C   UNL     1       1.155   1.776   0.001  0.00  0.00    +0.001 A 
ATOM     16  C   UNL     1       1.152   3.170   0.008  0.00  0.00    +0.002 A 
ATOM     17  C   UNL     1      -0.015   3.870   0.022  0.00  0.00    +0.028 A 
ATOM     18  C   UNL     1      -1.241   3.182   0.030  0.00  0.00    +0.073 A 
ATOM     19  N   UNL     1      -2.402   3.843   0.044  0.00  0.00    -0.235 NA
ATOM     20  C   UNL     1      -3.550   3.206   0.036  0.00  0.00    +0.135 A 
ATOM     21 CL   UNL     1      -5.025   4.121   0.049  0.00  0.00    -0.062 Cl
ENDBRANCH   2  11
BRANCH   8  22
ATOM     22  C   UNL     1      -7.537   1.576   4.321  0.00  0.00    +0.044 A 
ATOM     23  C   UNL     1      -7.422   2.902   4.717  0.00  0.00    +0.027 A 
ATOM     24  C   UNL     1      -8.018   3.325   5.889  0.00  0.00    +0.040 A 
ATOM     25  C   UNL     1      -8.720   2.426   6.674  0.00  0.00    +0.124 A 
ATOM     26  C   UNL     1      -8.830   1.102   6.284  0.00  0.00    +0.040 A 
ATOM     27  C   UNL     1      -8.240   0.676   5.109  0.00  0.00    +0.027 A 
ATOM     28  F   UNL     1      -9.297   2.841   7.823  0.00  0.00    -0.205 F 
ENDBRANCH   8  22
BRANCH   1  32
ATOM     29  C   UNL     1      -5.650  -1.218  -4.228  0.00  0.00    +0.000 A 
ATOM     30  C   UNL     1      -6.399  -1.800  -3.221  0.00  0.00    +0.002 A 
ATOM     31  C   UNL     1      -6.121  -1.516  -1.899  0.00  0.00    +0.028 A 
ATOM     32  C   UNL     1      -5.088  -0.643  -1.580  0.00  0.00    +0.065 A 
ATOM     33  C   UNL     1      -4.342  -0.056  -2.593  0.00  0.00    +0.028 A 
ATOM     34  C   UNL     1      -4.621  -0.349  -3.914  0.00  0.00    +0.002 A 
ENDBRANCH   1  32
TORSDOF 3
