REMARK  Name = ZINC20450946
REMARK  4 active torsions:
REMARK  status: ('A' for Active; 'I' for Inactive)
REMARK    1  A    between atoms: C_1  and  C_2
REMARK    2  A    between atoms: C_5  and  C_28
REMARK    3  A    between atoms: C_6  and  C_12
REMARK    4  A    between atoms: N_17  and  C_20
REMARK                            x       y       z     vdW  Elec       q    Type
REMARK                         _______ _______ _______ _____ _____    ______ ____
ROOT
ATOM      1  C   UNL     1       0.066  -5.578  -2.252  0.00  0.00    +0.282 C 
ATOM      2  O   UNL     1       0.018  -5.625  -3.467  0.00  0.00    -0.267 OA
ATOM      3  N   UNL     1       0.188  -6.714  -1.538  0.00  0.00    -0.293 N 
ATOM      4  C   UNL     1       0.174  -6.687  -0.068  0.00  0.00    +0.123 C 
ATOM      5  C   UNL     1       1.395  -7.457   0.445  0.00  0.00    +0.104 C 
ATOM      6  N   UNL     1       1.409  -8.800  -0.151  0.00  0.00    -0.295 NA
ATOM      7  C   UNL     1       1.553  -8.733  -1.612  0.00  0.00    +0.104 C 
ATOM      8  C   UNL     1       0.332  -8.015  -2.209  0.00  0.00    +0.123 C 
ENDROOT
BRANCH   1  14
ATOM      9  C   UNL     1      -0.246   1.477   0.155  0.00  0.00    +0.044 C 
ATOM     10  C   UNL     1      -0.215  -0.029   0.121  0.00  0.00    -0.048 A 
ATOM     11  C   UNL     1      -0.115  -0.679  -1.077  0.00  0.00    +0.015 A 
ATOM     12  C   UNL     1      -0.086  -2.075  -1.107  0.00  0.00    +0.026 A 
ATOM     13  C   UNL     1       0.012  -3.069  -2.175  0.00  0.00    +0.008 A 
ATOM     14  C   UNL     1      -0.009  -4.282  -1.564  0.00  0.00    +0.194 A 
ATOM     15  O   UNL     1      -0.110  -4.117  -0.228  0.00  0.00    -0.448 OA
ATOM     16  C   UNL     1      -0.159  -2.809   0.091  0.00  0.00    +0.154 A 
ATOM     17  C   UNL     1      -0.261  -2.126   1.299  0.00  0.00    +0.084 A 
ATOM     18  C   UNL     1      -0.282  -0.747   1.307  0.00  0.00    +0.027 A 
ATOM     19 CL   UNL     1      -0.353  -3.007   2.792  0.00  0.00    -0.080 Cl
ATOM     20  C   UNL     1       0.115  -2.803  -3.655  0.00  0.00    +0.048 C 
ENDBRANCH   1  14
BRANCH   6  21
ATOM     21  C   UNL     1       2.466  -9.629   0.444  0.00  0.00    +0.079 C 
ATOM     22  C   UNL     1       2.496 -11.004  -0.244  0.00  0.00    +0.043 C 
ATOM     23  C   UNL     1       3.371 -11.984   0.574  0.00  0.00    +0.167 C 
ATOM     24  S   UNL     1       3.210 -11.335   2.287  0.00  0.00    -0.029 S 
ATOM     25  O   UNL     1       4.487 -10.913   2.743  0.00  0.00    -0.174 OA
ATOM     26  O   UNL     1       2.461 -12.261   3.064  0.00  0.00    -0.174 OA
ATOM     27  C   UNL     1       2.170  -9.851   1.955  0.00  0.00    +0.184 C 
ENDBRANCH   6  21
TORSDOF 2
