REMARK  Name = ZINC64598954
REMARK  7 active torsions:
REMARK  status: ('A' for Active; 'I' for Inactive)
REMARK    1  A    between atoms: C_1  and  C_2
REMARK    2  A    between atoms: C_2  and  N_3
REMARK    3  A    between atoms: C_11  and  C_15
REMARK    4  A    between atoms: C_15  and  N_16
REMARK    5  A    between atoms: N_16  and  S_17
REMARK    6  A    between atoms: S_17  and  C_20
REMARK    7  A    between atoms: C_23  and  C_25
REMARK                            x       y       z     vdW  Elec       q    Type
REMARK                         _______ _______ _______ _____ _____    ______ ____
ROOT
ATOM      1  N   UNL     1       0.679  -0.491  -1.208  0.00  0.00    +0.382 N 
ATOM      2  C   UNL     1       2.087  -0.080  -1.143  0.00  0.00    -0.060 C 
ATOM      3  C   UNL     1       2.789  -0.458  -2.451  0.00  0.00    +0.088 C 
ATOM      4  N   UNL     1       2.587  -1.895  -2.691  0.00  0.00    -0.320 N 
ATOM      5  C   UNL     1       1.217  -2.425  -2.612  0.00  0.00    +0.088 C 
ATOM      6  C   UNL     1       0.589  -1.954  -1.296  0.00  0.00    -0.060 C 
ATOM      7  C   UNL     1       3.660  -2.729  -2.982  0.00  0.00    +0.099 A 
ATOM      8  C   UNL     1       3.459  -4.101  -3.086  0.00  0.00    +0.046 A 
ATOM      9  C   UNL     1       4.535  -4.919  -3.377  0.00  0.00    -0.027 A 
ATOM     10  C   UNL     1       5.783  -4.335  -3.555  0.00  0.00    +0.022 A 
ATOM     11  C   UNL     1       5.911  -2.966  -3.438  0.00  0.00    +0.084 A 
ATOM     12  N   UNL     1       4.864  -2.209  -3.165  0.00  0.00    -0.350 N 
ATOM     13  H   UNL     1       4.981  -1.249  -3.092  0.00  0.00    +0.166 HD
ATOM     14  H   UNL     1       0.248  -0.079  -2.022  0.00  0.00    -0.082 HD
ENDROOT
BRANCH   1  16
ATOM     15  C   UNL     1      -0.035   1.498   0.029  0.00  0.00    -0.017 C 
ATOM     16  C   UNL     1      -0.019  -0.031   0.000  0.00  0.00    -0.082 C 
ENDBRANCH   1  16
BRANCH   9  17
ATOM     17  C   UNL     1       4.359  -6.411  -3.497  0.00  0.00    +0.141 C 
BRANCH  17  18
ATOM     18  N   UNL     1       4.043  -6.755  -4.886  0.00  0.00    -0.185 NA
ATOM     19  H   UNL     1       3.765  -6.063  -5.505  0.00  0.00    +0.148 HD
BRANCH  18  20
ATOM     20  S   UNL     1       4.161  -8.326  -5.396  0.00  0.00    +0.065 S 
ATOM     21  O   UNL     1       3.769  -8.339  -6.762  0.00  0.00    -0.153 OA
ATOM     22  O   UNL     1       5.428  -8.801  -4.963  0.00  0.00    -0.153 OA
BRANCH  20  23
ATOM     23  C   UNL     1       2.948  -9.252  -4.516  0.00  0.00    +0.143 A 
ATOM     24  C   UNL     1       1.661  -9.511  -4.853  0.00  0.00    +0.036 A 
ATOM     25  C   UNL     1       0.884 -10.271  -3.998  0.00  0.00    +0.013 A 
ATOM     26  C   UNL     1       1.432 -10.735  -2.849  0.00  0.00    -0.011 A 
ATOM     27  S   UNL     1       3.098 -10.101  -2.952  0.00  0.00    -0.074 S 
ATOM     28  C   UNL     1       0.801 -11.573  -1.767  0.00  0.00    +0.051 C 
ENDBRANCH  20  23
ENDBRANCH  18  20
ENDBRANCH  17  18
ENDBRANCH   9  17
TORSDOF 5
