REMARK  Name = ZINC59264268
REMARK  9 active torsions:
REMARK  status: ('A' for Active; 'I' for Inactive)
REMARK    1  A    between atoms: C_1  and  C_2
REMARK    2  A    between atoms: C_2  and  O_3
REMARK    3  A    between atoms: O_3  and  C_4
REMARK    4  A    between atoms: C_6  and  N_12
REMARK    5  A    between atoms: C_9  and  O_10
REMARK    6  A    between atoms: O_10  and  C_11
REMARK    7  A    between atoms: N_15  and  C_16
REMARK    8  A    between atoms: C_16  and  C_18
REMARK    9  A    between atoms: C_16  and  C_19
REMARK                            x       y       z     vdW  Elec       q    Type
REMARK                         _______ _______ _______ _____ _____    ______ ____
ROOT
ATOM      1  N   UNL     1      -0.174  -4.905  -0.460  0.00  0.00    -0.269 N 
ATOM      2  C   UNL     1       0.022  -6.235  -0.367  0.00  0.00    +0.304 C 
ATOM      3  O   UNL     1       0.595  -6.699   0.600  0.00  0.00    -0.252 OA
ATOM      4  N   UNL     1      -0.418  -7.051  -1.346  0.00  0.00    -0.293 N 
ATOM      5  H   UNL     1      -0.689  -4.541  -1.197  0.00  0.00    +0.156 HD
ATOM      6  H   UNL     1      -0.875  -6.681  -2.117  0.00  0.00    +0.151 HD
ENDROOT
BRANCH   1   9
ATOM      7  C   UNL     1       1.362  -1.945   1.100  0.00  0.00    +0.164 A 
ATOM      8  C   UNL     1       0.828  -2.791   0.142  0.00  0.00    +0.072 A 
ATOM      9  C   UNL     1       0.366  -4.048   0.508  0.00  0.00    +0.038 A 
ATOM     10  C   UNL     1       0.440  -4.455   1.833  0.00  0.00    +0.027 A 
ATOM     11  C   UNL     1       0.973  -3.611   2.789  0.00  0.00    +0.051 A 
ATOM     12  C   UNL     1       1.440  -2.358   2.426  0.00  0.00    +0.162 A 
BRANCH  12  13
ATOM     13  O   UNL     1       1.969  -1.531   3.367  0.00  0.00    -0.491 OA
ATOM     14  C   UNL     1       2.018  -2.021   4.709  0.00  0.00    +0.277 C 
ENDBRANCH  12  13
BRANCH   7  15
ATOM     15  O   UNL     1       1.815  -0.713   0.744  0.00  0.00    -0.489 OA
BRANCH  15  17
ATOM     16  C   UNL     1       2.260   1.055  -0.843  0.00  0.00    +0.048 C 
ATOM     17  C   UNL     1       1.704  -0.354  -0.635  0.00  0.00    +0.226 C 
ENDBRANCH  15  17
ENDBRANCH   7  15
ENDBRANCH   1   9
BRANCH   4  18
ATOM     18  C   UNL     1      -0.205  -8.497  -1.245  0.00  0.00    +0.102 C 
ATOM     19  C   UNL     1       1.186  -8.846  -1.779  0.00  0.00    +0.033 C 
BRANCH  18  20
ATOM     20  C   UNL     1      -1.250  -9.216  -2.057  0.00  0.00    -0.026 A 
ATOM     21  C   UNL     1      -1.631  -8.719  -3.290  0.00  0.00    +0.007 A 
ATOM     22  C   UNL     1      -2.590  -9.378  -4.035  0.00  0.00    +0.022 A 
ATOM     23  C   UNL     1      -3.170 -10.536  -3.549  0.00  0.00    +0.059 A 
ATOM     24  C   UNL     1      -2.788 -11.034  -2.315  0.00  0.00    +0.060 A 
ATOM     25  C   UNL     1      -1.824 -10.376  -1.572  0.00  0.00    +0.027 A 
ATOM     26 CL   UNL     1      -3.515 -12.487  -1.702  0.00  0.00    -0.082 Cl
ATOM     27 CL   UNL     1      -4.375 -11.363  -4.485  0.00  0.00    -0.082 Cl
ENDBRANCH  18  20
ENDBRANCH   4  18
TORSDOF 6
