REMARK  Name = ZINC13448418
REMARK  12 active torsions:
REMARK  status: ('A' for Active; 'I' for Inactive)
REMARK    1  A    between atoms: C_1  and  C_2
REMARK    2  A    between atoms: C_3  and  C_25
REMARK    3  A    between atoms: C_7  and  S_9
REMARK    4  A    between atoms: S_9  and  C_10
REMARK    5  A    between atoms: C_10  and  C_12
REMARK    6  A    between atoms: C_10  and  C_13
REMARK    7  A    between atoms: N_15  and  C_16
REMARK    8  A    between atoms: C_16  and  C_17
REMARK    9  A    between atoms: C_20  and  O_23
REMARK   10  A    between atoms: O_23  and  C_24
REMARK   11  A    between atoms: C_25  and  C_26
REMARK   12  A    between atoms: C_26  and  C_27
REMARK                            x       y       z     vdW  Elec       q    Type
REMARK                         _______ _______ _______ _____ _____    ______ ____
ROOT
ATOM      1  C   UNL     1      -1.034   3.142  -6.074  0.00  0.00    +0.137 C 
ATOM      2  C   UNL     1      -1.612   4.477  -5.601  0.00  0.00    +0.029 C 
ENDROOT
BRANCH   1   3
ATOM      3  C   UNL     1      -0.392   3.323  -7.425  0.00  0.00    +0.226 C 
ATOM      4  O   UNL     1       0.811   3.447  -7.513  0.00  0.00    -0.275 OA
ATOM      5  N   UNL     1      -1.155   3.348  -8.536  0.00  0.00    -0.310 N 
ATOM      6  H   UNL     1      -2.117   3.249  -8.465  0.00  0.00    +0.149 HD
BRANCH   5   7
ATOM      7  C   UNL     1      -0.531   3.524  -9.850  0.00  0.00    +0.139 C 
BRANCH   7   8
ATOM      8  C   UNL     1      -1.596   3.516 -10.916  0.00  0.00    -0.030 A 
ATOM      9  C   UNL     1      -1.973   2.324 -11.506  0.00  0.00    +0.009 A 
ATOM     10  C   UNL     1      -2.948   2.313 -12.484  0.00  0.00    +0.046 A 
ATOM     11  C   UNL     1      -3.549   3.501 -12.875  0.00  0.00    +0.120 A 
ATOM     12  C   UNL     1      -3.170   4.696 -12.281  0.00  0.00    +0.046 A 
ATOM     13  C   UNL     1      -2.197   4.700 -11.300  0.00  0.00    +0.009 A 
BRANCH  11  14
ATOM     14  O   UNL     1      -4.508   3.494 -13.838  0.00  0.00    -0.495 OA
ATOM     15  C   UNL     1      -5.084   4.753 -14.189  0.00  0.00    +0.277 C 
ENDBRANCH  11  14
ENDBRANCH   7   8
ENDBRANCH   5   7
ENDBRANCH   1   3
BRANCH   1  16
ATOM     16  S   UNL     1       0.211   2.566  -4.886  0.00  0.00    -0.073 S 
BRANCH  16  23
ATOM     17  C   UNL     1      -0.013   1.086   0.008  0.00  0.00    +0.066 C 
ATOM     18  C   UNL     1      -0.742   1.585  -1.213  0.00  0.00    +0.049 A 
ATOM     19  C   UNL     1      -2.106   1.799  -1.173  0.00  0.00    +0.040 A 
ATOM     20  C   UNL     1      -2.742   2.262  -2.325  0.00  0.00    +0.277 A 
ATOM     21  O   UNL     1      -4.078   2.486  -2.329  0.00  0.00    -0.265 OA
ATOM     22  N   UNL     1      -2.019   2.481  -3.416  0.00  0.00    -0.183 NA
ATOM     23  C   UNL     1      -0.712   2.263  -3.415  0.00  0.00    +0.193 A 
ATOM     24  N   UNL     1      -0.080   1.829  -2.334  0.00  0.00    -0.227 NA
BRANCH  19  25
ATOM     25  C   UNL     1      -2.890   1.538   0.087  0.00  0.00    +0.054 C 
BRANCH  25  26
ATOM     26  C   UNL     1      -2.930   2.810   0.936  0.00  0.00    +0.130 C 
BRANCH  26  27
ATOM     27  C   UNL     1      -3.714   2.549   2.197  0.00  0.00    +0.356 C 
ATOM     28  O   UNL     1      -4.197   1.447   2.397  0.00  0.00    -0.246 OA
ATOM     29  O   UNL     1      -3.866   3.439   3.016  0.00  0.00    -0.246 OA
ENDBRANCH  26  27
ENDBRANCH  25  26
ENDBRANCH  19  25
ENDBRANCH  16  23
ENDBRANCH   1  16
TORSDOF 9
