REMARK  Name = ZINC40011020
REMARK  10 active torsions:
REMARK  status: ('A' for Active; 'I' for Inactive)
REMARK    1  A    between atoms: C_1  and  C_2
REMARK    2  A    between atoms: C_9  and  C_14
REMARK    3  A    between atoms: C_18  and  O_37
REMARK    4  A    between atoms: C_19  and  O_35
REMARK    5  A    between atoms: N_24  and  C_25
REMARK    6  A    between atoms: C_25  and  N_27
REMARK    7  A    between atoms: N_27  and  C_28
REMARK    8  A    between atoms: C_28  and  C_29
REMARK    9  A    between atoms: O_35  and  C_36
REMARK   10  A    between atoms: O_37  and  C_38
REMARK                            x       y       z     vdW  Elec       q    Type
REMARK                         _______ _______ _______ _____ _____    ______ ____
ROOT
ATOM      1  C   UNL     1       1.308  -4.861   2.923  0.00  0.00    +0.121 C 
ATOM      2  C   UNL     1       1.198  -6.354   3.111  0.00  0.00    -0.019 A 
ATOM      3  C   UNL     1       0.265  -6.823   4.026  0.00  0.00    +0.055 A 
ATOM      4  C   UNL     1       0.107  -8.180   4.236  0.00  0.00    +0.162 A 
ATOM      5  C   UNL     1       0.892  -9.081   3.522  0.00  0.00    +0.162 A 
ATOM      6  C   UNL     1       1.822  -8.609   2.615  0.00  0.00    +0.053 A 
ATOM      7  C   UNL     1       1.982  -7.243   2.411  0.00  0.00    -0.037 A 
ATOM      8  C   UNL     1       3.035  -6.805   1.427  0.00  0.00    +0.054 C 
ATOM      9  C   UNL     1       2.777  -5.376   0.954  0.00  0.00    +0.112 C 
ATOM     10  N   UNL     1       2.509  -4.549   2.141  0.00  0.00    -0.304 N 
ENDROOT
BRANCH   1  19
ATOM     11  C   UNL     1      -5.423  -4.104   5.188  0.00  0.00    +0.044 C 
ATOM     12  C   UNL     1      -4.174  -3.623   4.495  0.00  0.00    -0.050 A 
ATOM     13  C   UNL     1      -3.956  -2.253   4.352  0.00  0.00    +0.005 A 
ATOM     14  C   UNL     1      -2.855  -1.745   3.740  0.00  0.00    +0.024 A 
ATOM     15  C   UNL     1      -1.870  -2.603   3.216  0.00  0.00    +0.040 A 
ATOM     16  N   UNL     1      -0.793  -2.094   2.619  0.00  0.00    -0.284 N 
ATOM     17  C   UNL     1       0.169  -2.841   2.104  0.00  0.00    +0.226 C 
ATOM     18  O   UNL     1       1.129  -2.319   1.570  0.00  0.00    -0.275 OA
ATOM     19  C   UNL     1       0.071  -4.348   2.183  0.00  0.00    +0.123 C 
ATOM     20  C   UNL     1      -1.152  -4.933   2.863  0.00  0.00    -0.003 C 
ATOM     21  C   UNL     1      -2.074  -4.055   3.353  0.00  0.00    -0.007 A 
ATOM     22  C   UNL     1      -3.281  -4.534   4.028  0.00  0.00    +0.012 A 
ATOM     23  H   UNL     1      -0.711  -1.129   2.558  0.00  0.00    +0.155 HD
ENDBRANCH   1  19
BRANCH  10  24
ATOM     24  C   UNL     1       3.334  -3.544   2.495  0.00  0.00    +0.133 C 
ATOM     25  S   UNL     1       4.648  -3.118   1.482  0.00  0.00    -0.019 S 
BRANCH  24  26
ATOM     26  N   UNL     1       3.126  -2.874   3.645  0.00  0.00    -0.324 N 
ATOM     27  H   UNL     1       2.429  -3.163   4.255  0.00  0.00    +0.148 HD
BRANCH  26  28
ATOM     28  C   UNL     1       3.951  -1.709   3.975  0.00  0.00    +0.134 C 
BRANCH  28  29
ATOM     29  C   UNL     1       3.511  -1.137   5.324  0.00  0.00    +0.135 C 
ATOM     30  C   UNL     1       4.292   0.160   5.623  0.00  0.00    +0.035 C 
ATOM     31  C   UNL     1       4.566   0.037   7.147  0.00  0.00    +0.031 C 
ATOM     32  C   UNL     1       4.747  -1.495   7.290  0.00  0.00    +0.160 C 
ATOM     33  O   UNL     1       3.807  -2.073   6.368  0.00  0.00    -0.375 OA
ENDBRANCH  28  29
ENDBRANCH  26  28
ENDBRANCH  24  26
ENDBRANCH  10  24
BRANCH   5  34
ATOM     34  O   UNL     1       0.744 -10.419   3.716  0.00  0.00    -0.491 OA
ATOM     35  C   UNL     1       1.585 -11.282   2.947  0.00  0.00    +0.277 C 
ENDBRANCH   5  34
BRANCH   4  36
ATOM     36  O   UNL     1      -0.807  -8.632   5.135  0.00  0.00    -0.491 OA
ATOM     37  C   UNL     1      -1.575  -7.647   5.830  0.00  0.00    +0.277 C 
ENDBRANCH   4  36
TORSDOF 7
