REMARK  Name = ZINC33021686
REMARK  5 active torsions:
REMARK  status: ('A' for Active; 'I' for Inactive)
REMARK    1  A    between atoms: C_1  and  C_2
REMARK    2  A    between atoms: C_5  and  N_9
REMARK    3  A    between atoms: N_15  and  S_18
REMARK    4  A    between atoms: S_18  and  C_21
REMARK    5  A    between atoms: C_30  and  C_33
REMARK                            x       y       z     vdW  Elec       q    Type
REMARK                         _______ _______ _______ _____ _____    ______ ____
ROOT
ATOM      1  N   UNL     1      -2.831  -0.264  -6.157  0.00  0.00    -0.269 N 
ATOM      2  C   UNL     1      -1.630  -0.727  -5.755  0.00  0.00    +0.307 C 
ATOM      3  O   UNL     1      -0.879  -1.247  -6.557  0.00  0.00    -0.252 OA
ATOM      4  N   UNL     1      -1.263  -0.612  -4.463  0.00  0.00    -0.283 N 
ATOM      5  C   UNL     1      -0.006  -1.207  -3.987  0.00  0.00    +0.126 C 
ATOM      6  C   UNL     1      -0.320  -2.138  -2.810  0.00  0.00    +0.128 C 
ATOM      7  N   UNL     1      -1.168  -1.415  -1.852  0.00  0.00    -0.174 NA
ATOM      8  C   UNL     1      -2.428  -0.825  -2.327  0.00  0.00    +0.128 C 
ATOM      9  C   UNL     1      -2.111   0.112  -3.506  0.00  0.00    +0.126 C 
ATOM     10  H   UNL     1      -3.456   0.319  -5.465  0.00  0.00    +0.156 HD
ENDROOT
BRANCH   1  15
ATOM     11  C   UNL     1      -4.656  -1.324 -11.424  0.00  0.00    +0.045 C 
ATOM     12  C   UNL     1      -4.171  -1.042 -10.025  0.00  0.00    -0.032 A 
ATOM     13  C   UNL     1      -3.378  -1.967  -9.371  0.00  0.00    +0.006 A 
ATOM     14  C   UNL     1      -2.927  -1.709  -8.091  0.00  0.00    +0.024 A 
ATOM     15  C   UNL     1      -3.281  -0.525  -7.457  0.00  0.00    +0.036 A 
ATOM     16  C   UNL     1      -4.078   0.402  -8.116  0.00  0.00    +0.043 A 
ATOM     17  C   UNL     1      -4.521   0.141  -9.399  0.00  0.00    +0.046 A 
ATOM     18 CL   UNL     1      -5.518   1.298 -10.224  0.00  0.00    -0.083 Cl
ENDBRANCH   1  15
BRANCH   7  19
ATOM     19  S   UNL     1      -0.717  -1.274  -0.266  0.00  0.00    +0.061 S 
ATOM     20  O   UNL     1       0.164  -2.356   0.004  0.00  0.00    -0.153 OA
ATOM     21  O   UNL     1      -1.908  -1.058   0.478  0.00  0.00    -0.153 OA
BRANCH  19  22
ATOM     22  C   UNL     1       0.239   0.200  -0.125  0.00  0.00    +0.107 A 
ATOM     23  C   UNL     1       1.610   0.151  -0.298  0.00  0.00    +0.032 A 
ATOM     24  C   UNL     1       2.368   1.304  -0.189  0.00  0.00    +0.049 A 
ATOM     25  C   UNL     1       1.751   2.510   0.094  0.00  0.00    +0.143 A 
ATOM     26  C   UNL     1       0.369   2.558   0.269  0.00  0.00    +0.078 A 
ATOM     27  C   UNL     1      -0.384   1.401   0.158  0.00  0.00    +0.055 A 
ATOM     28  N   UNL     1      -0.243   3.787   0.556  0.00  0.00    -0.279 N 
ATOM     29  C   UNL     1       0.449   4.928   0.348  0.00  0.00    +0.258 C 
ATOM     30  O   UNL     1      -0.049   6.000   0.617  0.00  0.00    -0.271 OA
ATOM     31  C   UNL     1       1.844   4.862  -0.221  0.00  0.00    +0.256 C 
ATOM     32  O   UNL     1       2.479   3.653   0.203  0.00  0.00    -0.478 OA
ATOM     33  C   UNL     1       2.653   6.063   0.274  0.00  0.00    +0.062 C 
ATOM     34  H   UNL     1      -1.272   3.811   0.945  0.00  0.00    +0.155 HD
ENDBRANCH  19  22
ENDBRANCH   7  19
TORSDOF 3
