REMARK  Name = ZINC00896517
REMARK  5 active torsions:
REMARK  status: ('A' for Active; 'I' for Inactive)
REMARK    1  A    between atoms: C_15  and  C_17
REMARK    2  A    between atoms: C_17  and  S_18
REMARK    3  A    between atoms: S_18  and  C_19
REMARK    4  A    between atoms: C_22  and  C_31
REMARK    5  A    between atoms: N_23  and  C_24
REMARK                            x       y       z     vdW  Elec       q    Type
REMARK                         _______ _______ _______ _____ _____    ______ ____
ROOT
ATOM      1  S   UNL     1      -3.626   7.309   1.645  0.00  0.00    -0.076 S 
ENDROOT
BRANCH   1   2
ATOM      2  C   UNL     1      -5.210   8.044   1.407  0.00  0.00    +0.197 A 
ATOM      3  N   UNL     1      -6.206   7.541   0.713  0.00  0.00    -0.122 NA
ATOM      4  N   UNL     1      -7.215   8.337   0.747  0.00  0.00    -0.128 NA
ATOM      5  C   UNL     1      -6.926   9.398   1.465  0.00  0.00    +0.171 A 
ATOM      6  N   UNL     1      -5.634   9.241   1.915  0.00  0.00    -0.270 N 
BRANCH   6   7
ATOM      7  C   UNL     1      -4.904  10.126   2.723  0.00  0.00    +0.051 A 
ATOM      8  C   UNL     1      -5.312  10.375   4.026  0.00  0.00    +0.029 A 
ATOM      9  C   UNL     1      -4.590  11.243   4.821  0.00  0.00    +0.040 A 
ATOM     10  C   UNL     1      -3.465  11.872   4.316  0.00  0.00    +0.124 A 
ATOM     11  C   UNL     1      -3.058  11.629   3.014  0.00  0.00    +0.040 A 
ATOM     12  C   UNL     1      -3.776  10.758   2.218  0.00  0.00    +0.029 A 
ATOM     13  F   UNL     1      -2.762  12.725   5.094  0.00  0.00    -0.205 F 
ENDBRANCH   6   7
BRANCH   5  14
ATOM     14  C   UNL     1      -7.821  10.541   1.743  0.00  0.00    +0.038 A 
ATOM     15  C   UNL     1      -9.197  10.443   1.502  0.00  0.00    +0.014 A 
ATOM     16  C   UNL     1      -9.991  11.541   1.778  0.00  0.00    +0.020 A 
ATOM     17  C   UNL     1      -9.406  12.691   2.279  0.00  0.00    +0.111 A 
ATOM     18  N   UNL     1      -8.107  12.755   2.497  0.00  0.00    -0.263 NA
ATOM     19  C   UNL     1      -7.310  11.734   2.255  0.00  0.00    +0.122 A 
ENDBRANCH   5  14
ENDBRANCH   1   2
BRANCH   1  20
ATOM     20  C   UNL     1      -3.841   5.784   0.696  0.00  0.00    +0.174 C 
BRANCH  20  35
ATOM     21  C   UNL     1       0.949   2.822  -0.067  0.00  0.00    +0.002 A 
ATOM     22  C   UNL     1       0.984   1.513   0.376  0.00  0.00    +0.001 A 
ATOM     23  C   UNL     1      -0.169   0.908   0.846  0.00  0.00    +0.017 A 
ATOM     24  C   UNL     1      -1.356   1.618   0.866  0.00  0.00    +0.035 A 
ATOM     25  C   UNL     1      -1.396   2.942   0.423  0.00  0.00    +0.055 A 
ATOM     26  C   UNL     1      -0.235   3.537  -0.046  0.00  0.00    +0.025 A 
ATOM     27  N   UNL     1      -2.599   3.660   0.444  0.00  0.00    -0.237 N 
ATOM     28  C   UNL     1      -3.826   3.053   0.149  0.00  0.00    +0.055 A 
ATOM     29  C   UNL     1      -4.795   3.745  -0.561  0.00  0.00    +0.025 A 
ATOM     30  C   UNL     1      -6.005   3.140  -0.850  0.00  0.00    +0.002 A 
ATOM     31  C   UNL     1      -6.257   1.845  -0.436  0.00  0.00    +0.001 A 
ATOM     32  C   UNL     1      -5.297   1.145   0.274  0.00  0.00    +0.017 A 
ATOM     33  C   UNL     1      -4.086   1.745   0.565  0.00  0.00    +0.035 A 
ATOM     34  S   UNL     1      -2.841   0.877   1.468  0.00  0.00    -0.086 S 
ATOM     35  C   UNL     1      -2.574   4.970   0.758  0.00  0.00    +0.234 C 
ATOM     36  O   UNL     1      -1.532   5.495   1.092  0.00  0.00    -0.274 OA
ENDBRANCH  20  35
ENDBRANCH   1  20
TORSDOF 5
