REMARK  Name = ZINC21326977
REMARK  11 active torsions:
REMARK  status: ('A' for Active; 'I' for Inactive)
REMARK    1  A    between atoms: C_1  and  O_2
REMARK    2  A    between atoms: O_2  and  C_3
REMARK    3  A    between atoms: C_5  and  C_13
REMARK    4  A    between atoms: C_7  and  N_10
REMARK    5  A    between atoms: N_14  and  N_15
REMARK    6  A    between atoms: C_19  and  S_22
REMARK    7  A    between atoms: N_20  and  N_21
REMARK    8  A    between atoms: S_22  and  C_23
REMARK    9  A    between atoms: C_23  and  C_24
REMARK   10  A    between atoms: N_26  and  C_27
REMARK   11  A    between atoms: C_31  and  N_33
REMARK                            x       y       z     vdW  Elec       q    Type
REMARK                         _______ _______ _______ _____ _____    ______ ____
ROOT
ATOM      1  N   UNL     1     -13.374   0.080   0.810  0.00  0.00    -0.204 N 
ATOM      2  C   UNL     1     -12.051   0.241   0.688  0.00  0.00    +0.254 A 
ATOM      3  N   UNL     1     -11.133  -0.738   0.600  0.00  0.00    -0.109 NA
ATOM      4  N   UNL     1      -9.961  -0.221   0.488  0.00  0.00    -0.119 NA
ATOM      5  C   UNL     1     -10.055   1.122   0.507  0.00  0.00    +0.210 A 
ATOM      6  N   UNL     1     -11.378   1.437   0.631  0.00  0.00    -0.211 N 
ATOM      7  H   UNL     1     -14.031   0.959   0.875  0.00  0.00    +0.177 HD
ENDROOT
BRANCH   6   8
ATOM      8  N   UNL     1     -11.923   2.689   0.687  0.00  0.00    -0.294 N 
ATOM      9  H   UNL     1     -11.273   3.574   0.630  0.00  0.00    +0.163 HD
ATOM     10  H   UNL     1     -13.011   2.811   0.788  0.00  0.00    +0.163 HD
ENDBRANCH   6   8
BRANCH   1  12
ATOM     11  C   UNL     1     -15.180  -1.266   0.972  0.00  0.00    +0.138 C 
ATOM     12  N   UNL     1     -13.877  -1.107   0.852  0.00  0.00    -0.188 NA
BRANCH  11  15
ATOM     13  C   UNL     1     -17.651  -4.014   1.190  0.00  0.00    +0.169 A 
ATOM     14  C   UNL     1     -17.123  -2.742   1.146  0.00  0.00    +0.059 A 
ATOM     15  C   UNL     1     -15.733  -2.570   1.018  0.00  0.00    +0.000 A 
ATOM     16  C   UNL     1     -14.894  -3.697   0.930  0.00  0.00    +0.046 A 
ATOM     17  C   UNL     1     -15.428  -4.951   0.979  0.00  0.00    +0.177 A 
ATOM     18  C   UNL     1     -16.804  -5.125   1.106  0.00  0.00    +0.250 A 
ATOM     19  O   UNL     1     -17.325  -6.376   1.149  0.00  0.00    -0.282 OA
BRANCH  17  20
ATOM     20  N   UNL     1     -14.541  -6.133   0.891  0.00  0.00    +0.060 N 
ATOM     21  O   UNL     1     -13.239  -5.971   0.771  0.00  0.00    -0.126 OA
ATOM     22  O   UNL     1     -15.053  -7.345   0.933  0.00  0.00    -0.126 OA
ENDBRANCH  17  20
BRANCH  13  24
ATOM     23  C   UNL     1     -19.798  -3.010   1.392  0.00  0.00    +0.277 C 
ATOM     24  O   UNL     1     -18.994  -4.189   1.313  0.00  0.00    -0.491 OA
ENDBRANCH  13  24
ENDBRANCH  11  15
ENDBRANCH   1  12
BRANCH   5  25
ATOM     25  S   UNL     1      -8.755   2.231   0.392  0.00  0.00    -0.075 S 
BRANCH  25  26
ATOM     26  C   UNL     1      -7.368   1.076   0.259  0.00  0.00    +0.173 C 
BRANCH  26  27
ATOM     27  C   UNL     1      -6.080   1.849   0.143  0.00  0.00    +0.227 C 
ATOM     28  O   UNL     1      -6.098   3.062   0.150  0.00  0.00    -0.275 OA
ATOM     29  N   UNL     1      -4.907   1.194   0.032  0.00  0.00    -0.285 N 
ATOM     30  H   UNL     1      -4.897   0.098  -0.061  0.00  0.00    +0.155 HD
BRANCH  29  31
ATOM     31  C   UNL     1      -3.704   1.907   0.036  0.00  0.00    +0.036 A 
ATOM     32  C   UNL     1      -2.626   1.457  -0.716  0.00  0.00    +0.023 A 
ATOM     33  C   UNL     1      -1.440   2.164  -0.711  0.00  0.00    +0.004 A 
ATOM     34  C   UNL     1      -1.325   3.321   0.037  0.00  0.00    +0.033 A 
ATOM     35  C   UNL     1      -2.394   3.768   0.792  0.00  0.00    +0.128 A 
ATOM     36  C   UNL     1      -3.584   3.066   0.791  0.00  0.00    +0.056 A 
BRANCH  35  37
ATOM     37  N   UNL     1      -2.266   5.004   1.596  0.00  0.00    +0.056 N 
ATOM     38  O   UNL     1      -3.209   5.401   2.257  0.00  0.00    -0.126 OA
ATOM     39  O   UNL     1      -1.216   5.621   1.601  0.00  0.00    -0.126 OA
ENDBRANCH  35  37
ENDBRANCH  29  31
ENDBRANCH  26  27
ENDBRANCH  25  26
ENDBRANCH   5  25
TORSDOF 10
