REMARK  Name = ZINC20086279
REMARK  8 active torsions:
REMARK  status: ('A' for Active; 'I' for Inactive)
REMARK    1  A    between atoms: C_1  and  N_2
REMARK    2  A    between atoms: C_13  and  C_21
REMARK    3  A    between atoms: C_15  and  C_19
REMARK    4  A    between atoms: C_16  and  N_18
REMARK    5  A    between atoms: C_23  and  O_30
REMARK    6  A    between atoms: C_24  and  O_28
REMARK    7  A    between atoms: O_28  and  C_29
REMARK    8  A    between atoms: O_30  and  C_31
REMARK                            x       y       z     vdW  Elec       q    Type
REMARK                         _______ _______ _______ _____ _____    ______ ____
ROOT
ATOM      1  C   UNL     1      -2.420  -0.389   0.019  0.00  0.00    +0.152 C 
ATOM      2  N   UNL     1      -2.424   1.076   0.029  0.00  0.00    -0.311 N 
ATOM      3  C   UNL     1      -1.225   1.758   0.017  0.00  0.00    +0.055 A 
ATOM      4  C   UNL     1      -0.013   1.076   0.008  0.00  0.00    +0.026 A 
ATOM      5  C   UNL     1       1.170   1.784   0.001  0.00  0.00    +0.002 A 
ATOM      6  C   UNL     1       1.164   3.172   0.007  0.00  0.00    +0.001 A 
ATOM      7  C   UNL     1      -0.016   3.862   0.023  0.00  0.00    +0.013 A 
ATOM      8  C   UNL     1      -1.226   3.163   0.031  0.00  0.00    +0.041 A 
ATOM      9  C   UNL     1      -2.513   3.873   0.049  0.00  0.00    +0.148 A 
ATOM     10  C   UNL     1      -3.661   3.138   0.057  0.00  0.00    +0.072 A 
ATOM     11  C   UNL     1      -3.596   1.733   0.045  0.00  0.00    +0.259 A 
ATOM     12  O   UNL     1      -4.634   1.092   0.050  0.00  0.00    -0.267 OA
ATOM     13  C   UNL     1      -5.005   3.818   0.078  0.00  0.00    +0.103 C 
ATOM     14  C   UNL     1      -4.864   5.261  -0.319  0.00  0.00    +0.098 C 
ATOM     15  C   UNL     1      -3.656   5.874  -0.306  0.00  0.00    +0.199 C 
ATOM     16  O   UNL     1      -2.539   5.220   0.059  0.00  0.00    -0.440 OA
ENDROOT
BRANCH  13  17
ATOM     17  C   UNL     1      -5.581   3.740   1.469  0.00  0.00    -0.030 A 
ATOM     18  C   UNL     1      -6.790   3.102   1.680  0.00  0.00    +0.054 A 
ATOM     19  C   UNL     1      -7.321   3.029   2.957  0.00  0.00    +0.163 A 
ATOM     20  C   UNL     1      -6.636   3.598   4.026  0.00  0.00    +0.175 A 
ATOM     21  C   UNL     1      -5.425   4.236   3.808  0.00  0.00    +0.063 A 
ATOM     22  C   UNL     1      -4.897   4.301   2.531  0.00  0.00    +0.023 A 
ATOM     23 BR   UNL     1      -4.489   5.011   5.258  0.00  0.00    -0.046 Br
BRANCH  20  24
ATOM     24  O   UNL     1      -7.153   3.529   5.282  0.00  0.00    -0.490 OA
ATOM     25  C   UNL     1      -6.787   2.396   6.073  0.00  0.00    +0.277 C 
ENDBRANCH  20  24
BRANCH  19  26
ATOM     26  O   UNL     1      -8.509   2.402   3.166  0.00  0.00    -0.491 OA
ATOM     27  C   UNL     1      -9.157   1.841   2.022  0.00  0.00    +0.277 C 
ENDBRANCH  19  26
ENDBRANCH  13  17
BRANCH  15  28
ATOM     28  N   UNL     1      -3.571   7.193  -0.675  0.00  0.00    -0.328 N 
ATOM     29  H   UNL     1      -2.596   7.704  -0.670  0.00  0.00    +0.145 HD
ATOM     30  H   UNL     1      -4.476   7.740  -0.976  0.00  0.00    +0.145 HD
ENDBRANCH  15  28
BRANCH  14  31
ATOM     31  C   UNL     1      -6.025   5.999  -0.716  0.00  0.00    +0.101 C 
ATOM     32  N   UNL     1      -6.947   6.584  -1.031  0.00  0.00    -0.191 NA
ENDBRANCH  14  31
TORSDOF 5
