REMARK  Name = ZINC59935416
REMARK  6 active torsions:
REMARK  status: ('A' for Active; 'I' for Inactive)
REMARK    1  A    between atoms: C_3  and  C_20
REMARK    2  A    between atoms: C_5  and  N_7
REMARK    3  A    between atoms: C_8  and  C_10
REMARK    4  A    between atoms: C_13  and  C_15
REMARK    5  A    between atoms: C_20  and  N_21
REMARK    6  A    between atoms: C_25  and  C_27
REMARK                            x       y       z     vdW  Elec       q    Type
REMARK                         _______ _______ _______ _____ _____    ______ ____
ROOT
ATOM      1  C   UNL     1      -0.028   1.373  -0.013  0.00  0.00    +0.002 A 
ATOM      2  C   UNL     1       1.157   2.086  -0.017  0.00  0.00    +0.002 A 
ATOM      3  C   UNL     1       2.368   1.419  -0.023  0.00  0.00    -0.062 A 
ATOM      4  C   UNL     1       2.398   0.038  -0.025  0.00  0.00    +0.025 A 
ATOM      5  C   UNL     1       1.210  -0.681  -0.020  0.00  0.00    +0.034 A 
ATOM      6  C   UNL     1      -0.005  -0.008  -0.014  0.00  0.00    +0.023 A 
ENDROOT
BRANCH   5   7
ATOM      7  N   UNL     1       1.238  -2.079  -0.022  0.00  0.00    -0.280 N 
ATOM      8  C   UNL     1       0.299  -2.772   0.653  0.00  0.00    +0.267 C 
ATOM      9  O   UNL     1      -0.619  -2.185   1.193  0.00  0.00    -0.268 OA
ATOM     10  H   UNL     1       1.932  -2.550  -0.508  0.00  0.00    +0.155 HD
BRANCH   8  11
ATOM     11  C   UNL     1       0.385  -4.240   0.736  0.00  0.00    +0.134 A 
ATOM     12  C   UNL     1      -0.566  -4.954   1.415  0.00  0.00    +0.080 A 
ATOM     13  S   UNL     1      -0.038  -6.540   1.225  0.00  0.00    -0.072 S 
ATOM     14  C   UNL     1       1.422  -6.207   0.255  0.00  0.00    +0.144 A 
ATOM     15  N   UNL     1       1.383  -4.889   0.150  0.00  0.00    -0.231 NA
BRANCH  14  16
ATOM     16  C   UNL     1       2.409  -7.152  -0.291  0.00  0.00    +0.160 A 
ATOM     17  C   UNL     1       2.381  -8.507  -0.152  0.00  0.00    +0.052 A 
ATOM     18  C   UNL     1       3.510  -9.007  -0.828  0.00  0.00    +0.042 A 
ATOM     19  C   UNL     1       4.167  -7.947  -1.341  0.00  0.00    +0.196 A 
ATOM     20  O   UNL     1       3.496  -6.829  -1.020  0.00  0.00    -0.461 OA
ENDBRANCH  14  16
ENDBRANCH   8  11
ENDBRANCH   5   7
BRANCH   3  21
ATOM     21  C   UNL     1       3.657   2.200  -0.029  0.00  0.00    -0.042 C 
BRANCH  21  22
ATOM     22  N   UNL     1       4.082   2.453   1.355  0.00  0.00    +0.390 N 
ATOM     23  C   UNL     1       4.494   1.183   2.004  0.00  0.00    -0.077 C 
ATOM     24  C   UNL     1       5.405   1.657   3.164  0.00  0.00    -0.020 C 
ATOM     25  C   UNL     1       6.161   2.854   2.543  0.00  0.00    -0.008 C 
ATOM     26  C   UNL     1       5.280   3.321   1.370  0.00  0.00    +0.019 C 
ATOM     27  H   UNL     1       3.333   2.885   1.876  0.00  0.00    -0.080 HD
BRANCH  26  28
ATOM     28  C   UNL     1       4.871   4.757   1.575  0.00  0.00    +0.197 C 
ATOM     29  O   UNL     1       3.699   5.042   1.697  0.00  0.00    -0.278 OA
ATOM     30  N   UNL     1       5.808   5.724   1.621  0.00  0.00    -0.331 N 
ATOM     31  H   UNL     1       6.746   5.496   1.523  0.00  0.00    +0.145 HD
ATOM     32  H   UNL     1       5.545   6.648   1.753  0.00  0.00    +0.145 HD
ENDBRANCH  26  28
ENDBRANCH  21  22
ENDBRANCH   3  21
TORSDOF 6
