REMARK  Name = ZINC12504521
REMARK  12 active torsions:
REMARK  status: ('A' for Active; 'I' for Inactive)
REMARK    1  A    between atoms: C_3  and  O_10
REMARK    2  A    between atoms: C_6  and  N_7
REMARK    3  A    between atoms: O_10  and  C_11
REMARK    4  A    between atoms: C_13  and  O_39
REMARK    5  A    between atoms: C_15  and  O_38
REMARK    6  A    between atoms: C_17  and  O_37
REMARK    7  A    between atoms: C_19  and  C_22
REMARK    8  A    between atoms: C_22  and  S_23
REMARK    9  A    between atoms: S_23  and  C_24
REMARK   10  A    between atoms: C_26  and  O_36
REMARK   11  A    between atoms: C_28  and  O_35
REMARK   12  A    between atoms: C_30  and  O_34
REMARK                            x       y       z     vdW  Elec       q    Type
REMARK                         _______ _______ _______ _____ _____    ______ ____
ROOT
ATOM      1  C   UNL     1      -1.262  -0.670   0.011  0.00  0.00    +0.339 C 
ATOM      2  C   UNL     1      -1.045  -2.179  -0.126  0.00  0.00    +0.214 C 
ATOM      3  C   UNL     1      -2.400  -2.891  -0.055  0.00  0.00    +0.180 C 
ATOM      4  C   UNL     1      -3.091  -2.519   1.260  0.00  0.00    +0.175 C 
ATOM      5  C   UNL     1      -3.230  -0.997   1.343  0.00  0.00    +0.163 C 
ATOM      6  O   UNL     1      -1.937  -0.396   1.240  0.00  0.00    -0.333 OA
ENDROOT
BRANCH   4   7
ATOM      7  O   UNL     1      -4.387  -3.120   1.305  0.00  0.00    -0.387 OA
ATOM      8  H   UNL     1      -4.375  -4.086   1.253  0.00  0.00    +0.210 HD
ENDBRANCH   4   7
BRANCH   3   9
ATOM      9  O   UNL     1      -2.201  -4.305  -0.110  0.00  0.00    -0.386 OA
ATOM     10  H   UNL     1      -1.761  -4.609  -0.915  0.00  0.00    +0.210 HD
ENDBRANCH   3   9
BRANCH   2  11
ATOM     11  O   UNL     1      -0.422  -2.461  -1.381  0.00  0.00    -0.383 OA
ATOM     12  H   UNL     1       0.439  -2.038  -1.496  0.00  0.00    +0.210 HD
ENDBRANCH   2  11
BRANCH   1  13
ATOM     13  O   UNL     1       0.002  -0.004   0.002  0.00  0.00    -0.461 OA
BRANCH  13  16
ATOM     14  C   UNL     1       1.153   3.447   0.010  0.00  0.00    +0.036 A 
ATOM     15  C   UNL     1       1.175   2.066   0.002  0.00  0.00    +0.048 A 
ATOM     16  C   UNL     1      -0.016   1.355   0.009  0.00  0.00    +0.124 A 
ATOM     17  C   UNL     1      -1.226   2.033   0.019  0.00  0.00    +0.048 A 
ATOM     18  C   UNL     1      -1.242   3.414   0.032  0.00  0.00    +0.036 A 
ATOM     19  C   UNL     1      -0.054   4.121   0.025  0.00  0.00    +0.126 A 
BRANCH  19  20
ATOM     20  N   UNL     1      -0.074   5.601   0.034  0.00  0.00    +0.056 N 
ATOM     21  O   UNL     1       0.973   6.224   0.027  0.00  0.00    -0.126 OA
ATOM     22  O   UNL     1      -1.137   6.195   0.047  0.00  0.00    -0.126 OA
ENDBRANCH  19  20
ENDBRANCH  13  16
ENDBRANCH   1  13
BRANCH   5  23
ATOM     23  C   UNL     1      -3.866  -0.614   2.680  0.00  0.00    +0.106 C 
BRANCH  23  24
ATOM     24  S   UNL     1      -4.165   1.175   2.718  0.00  0.00    -0.124 S 
BRANCH  24  25
ATOM     25  C   UNL     1      -4.911   1.462   4.346  0.00  0.00    +0.207 C 
ATOM     26  C   UNL     1      -5.444   2.894   4.419  0.00  0.00    +0.184 C 
ATOM     27  C   UNL     1      -6.018   3.147   5.816  0.00  0.00    +0.177 C 
ATOM     28  C   UNL     1      -4.929   2.879   6.859  0.00  0.00    +0.171 C 
ATOM     29  C   UNL     1      -4.415   1.447   6.693  0.00  0.00    +0.195 C 
ATOM     30  O   UNL     1      -3.924   1.270   5.362  0.00  0.00    -0.361 OA
BRANCH  28  31
ATOM     31  O   UNL     1      -3.852   3.799   6.672  0.00  0.00    -0.387 OA
ATOM     32  H   UNL     1      -3.125   3.687   7.300  0.00  0.00    +0.210 HD
ENDBRANCH  28  31
BRANCH  27  33
ATOM     33  O   UNL     1      -7.125   2.272   6.044  0.00  0.00    -0.386 OA
ATOM     34  H   UNL     1      -7.537   2.378   6.912  0.00  0.00    +0.210 HD
ENDBRANCH  27  33
BRANCH  26  35
ATOM     35  O   UNL     1      -4.380   3.814   4.166  0.00  0.00    -0.386 OA
ATOM     36  H   UNL     1      -3.966   3.707   3.298  0.00  0.00    +0.210 HD
ENDBRANCH  26  35
ENDBRANCH  24  25
ENDBRANCH  23  24
ENDBRANCH   5  23
TORSDOF 12
