REMARK  Name = ZINC64185916
REMARK  5 active torsions:
REMARK  status: ('A' for Active; 'I' for Inactive)
REMARK    1  A    between atoms: C_1  and  N_2
REMARK    2  A    between atoms: N_2  and  S_3
REMARK    3  A    between atoms: S_3  and  C_6
REMARK    4  A    between atoms: C_10  and  C_12
REMARK    5  A    between atoms: C_17  and  C_20
REMARK                            x       y       z     vdW  Elec       q    Type
REMARK                         _______ _______ _______ _____ _____    ______ ____
ROOT
ATOM      1  C   UNL     1      -3.084  -1.925   4.649  0.00  0.00    +0.248 C 
ATOM      2  O   UNL     1      -3.657  -1.771   5.710  0.00  0.00    -0.270 OA
ATOM      3  N   UNL     1      -3.463  -2.916   3.817  0.00  0.00    -0.293 N 
ATOM      4  C   UNL     1      -4.629  -3.764   4.117  0.00  0.00    +0.113 C 
ATOM      5  C   UNL     1      -5.668  -3.549   3.014  0.00  0.00    +0.054 C 
ATOM      6  C   UNL     1      -5.015  -3.591   1.665  0.00  0.00    -0.043 C 
ATOM      7  C   UNL     1      -3.713  -3.425   1.461  0.00  0.00    -0.004 C 
ATOM      8  C   UNL     1      -2.732  -3.187   2.571  0.00  0.00    +0.135 C 
ENDROOT
BRANCH   6   9
ATOM      9  C   UNL     1      -5.835  -3.821   0.541  0.00  0.00    -0.016 C 
ATOM     10  C   UNL     1      -7.222  -3.889   0.514  0.00  0.00    +0.003 A 
ATOM     11  C   UNL     1      -8.205  -3.762   1.523  0.00  0.00    +0.010 A 
ATOM     12  C   UNL     1      -9.517  -3.878   1.202  0.00  0.00    +0.001 A 
ATOM     13  C   UNL     1      -9.932  -4.121  -0.112  0.00  0.00    +0.002 A 
ATOM     14  C   UNL     1      -9.048  -4.254  -1.129  0.00  0.00    +0.026 A 
ATOM     15  C   UNL     1      -7.654  -4.146  -0.872  0.00  0.00    +0.043 A 
ATOM     16  N   UNL     1      -6.612  -4.235  -1.670  0.00  0.00    -0.380 N 
ATOM     17  C   UNL     1      -5.388  -4.038  -0.888  0.00  0.00    +0.149 C 
ATOM     18  H   UNL     1      -6.649  -4.400  -2.625  0.00  0.00    +0.160 HD
ENDBRANCH   6   9
BRANCH   1  23
ATOM     19  C   UNL     1       0.283  -0.717   3.508  0.00  0.00    +0.106 A 
ATOM     20  C   UNL     1       0.110   0.655   3.564  0.00  0.00    +0.029 A 
ATOM     21  C   UNL     1      -1.098   1.191   3.971  0.00  0.00    +0.018 A 
ATOM     22  C   UNL     1      -2.141   0.358   4.326  0.00  0.00    +0.030 A 
ATOM     23  C   UNL     1      -1.973  -1.028   4.271  0.00  0.00    +0.053 A 
ATOM     24  C   UNL     1      -0.752  -1.560   3.853  0.00  0.00    +0.042 A 
ATOM     25 BR   UNL     1      -3.792   1.091   4.884  0.00  0.00    -0.050 Br
BRANCH  19  26
ATOM     26  S   UNL     1       1.827  -1.387   2.987  0.00  0.00    +0.058 S 
ATOM     27  O   UNL     1       1.908  -2.695   3.538  0.00  0.00    -0.153 OA
ATOM     28  O   UNL     1       2.809  -0.392   3.241  0.00  0.00    -0.153 OA
BRANCH  26  30
ATOM     29  C   UNL     1       1.636  -0.392   0.480  0.00  0.00    +0.127 C 
ATOM     30  N   UNL     1       1.752  -1.570   1.343  0.00  0.00    -0.193 NA
ATOM     31  H   UNL     1       1.786  -2.456   0.951  0.00  0.00    +0.148 HD
ENDBRANCH  26  30
ENDBRANCH  19  26
ENDBRANCH   1  23
TORSDOF 4
