REMARK  Name = ZINC63708505
REMARK  7 active torsions:
REMARK  status: ('A' for Active; 'I' for Inactive)
REMARK    1  A    between atoms: C_5  and  C_7
REMARK    2  A    between atoms: C_7  and  S_8
REMARK    3  A    between atoms: S_8  and  C_9
REMARK    4  A    between atoms: N_20  and  N_21
REMARK    5  A    between atoms: C_22  and  C_24
REMARK    6  A    between atoms: C_24  and  C_25
REMARK    7  A    between atoms: C_25  and  C_26
REMARK                            x       y       z     vdW  Elec       q    Type
REMARK                         _______ _______ _______ _____ _____    ______ ____
ROOT
ATOM      1  C   UNL     1       1.276  -4.605   1.502  0.00  0.00    +0.241 C 
ATOM      2  N   UNL     1       2.478  -5.003   0.759  0.00  0.00    -0.316 N 
ATOM      3  C   UNL     1       2.502  -4.824  -0.620  0.00  0.00    +0.041 A 
ATOM      4  C   UNL     1       3.685  -4.603  -1.306  0.00  0.00    +0.024 A 
ATOM      5  C   UNL     1       3.660  -4.442  -2.678  0.00  0.00    +0.002 A 
ATOM      6  C   UNL     1       2.463  -4.501  -3.372  0.00  0.00    +0.001 A 
ATOM      7  C   UNL     1       1.275  -4.716  -2.704  0.00  0.00    +0.015 A 
ATOM      8  C   UNL     1       1.285  -4.875  -1.320  0.00  0.00    +0.059 A 
ATOM      9  C   UNL     1       0.041  -5.083  -0.558  0.00  0.00    +0.267 C 
ATOM     10  O   UNL     1      -1.006  -5.297  -1.139  0.00  0.00    -0.268 OA
ATOM     11  N   UNL     1       0.075  -5.034   0.785  0.00  0.00    -0.186 N 
ATOM     12  H   UNL     1       3.241  -5.383   1.221  0.00  0.00    +0.149 HD
ENDROOT
BRANCH  11  13
ATOM     13  N   UNL     1      -1.065  -5.401   1.511  0.00  0.00    -0.229 N 
ATOM     14  C   UNL     1      -2.123  -4.567   1.572  0.00  0.00    +0.230 C 
ATOM     15  O   UNL     1      -2.087  -3.499   0.997  0.00  0.00    -0.274 OA
ATOM     16  H   UNL     1      -1.094  -6.254   1.971  0.00  0.00    +0.173 HD
BRANCH  14  17
ATOM     17  C   UNL     1      -3.349  -4.961   2.353  0.00  0.00    +0.102 C 
BRANCH  17  18
ATOM     18  C   UNL     1      -4.393  -3.847   2.260  0.00  0.00    +0.042 C 
BRANCH  18  19
ATOM     19  C   UNL     1      -5.620  -4.241   3.042  0.00  0.00    -0.041 C 
ATOM     20  C   UNL     1      -5.912  -3.907   4.319  0.00  0.00    -0.001 A 
ATOM     21  C   UNL     1      -5.202  -3.109   5.326  0.00  0.00    +0.010 A 
ATOM     22  C   UNL     1      -5.759  -2.949   6.548  0.00  0.00    +0.001 A 
ATOM     23  C   UNL     1      -6.994  -3.525   6.877  0.00  0.00    +0.002 A 
ATOM     24  C   UNL     1      -7.705  -4.271   6.006  0.00  0.00    +0.026 A 
ATOM     25  C   UNL     1      -7.215  -4.505   4.691  0.00  0.00    +0.043 A 
ATOM     26  N   UNL     1      -7.709  -5.181   3.683  0.00  0.00    -0.380 N 
ATOM     27  C   UNL     1      -6.777  -5.084   2.554  0.00  0.00    +0.144 C 
ATOM     28  H   UNL     1      -8.551  -5.662   3.682  0.00  0.00    +0.160 HD
ENDBRANCH  18  19
ENDBRANCH  17  18
ENDBRANCH  14  17
ENDBRANCH  11  13
BRANCH   1  29
ATOM     29  S   UNL     1       1.254  -2.800   1.685  0.00  0.00    -0.113 S 
BRANCH  29  30
ATOM     30  C   UNL     1       1.229  -2.186  -0.022  0.00  0.00    +0.109 C 
BRANCH  30  35
ATOM     31  C   UNL     1      -0.017   1.378   0.010  0.00  0.00    +0.000 A 
ATOM     32  C   UNL     1       1.171   2.086   0.002  0.00  0.00    +0.001 A 
ATOM     33  C   UNL     1       2.377   1.412  -0.013  0.00  0.00    +0.020 A 
ATOM     34  C   UNL     1       2.397   0.029  -0.021  0.00  0.00    +0.045 A 
ATOM     35  C   UNL     1       1.208  -0.679  -0.013  0.00  0.00    -0.019 A 
ATOM     36  C   UNL     1       0.002  -0.004   0.002  0.00  0.00    +0.006 A 
ATOM     37 CL   UNL     1       3.912  -0.818  -0.041  0.00  0.00    -0.083 Cl
ENDBRANCH  30  35
ENDBRANCH  29  30
ENDBRANCH   1  29
TORSDOF 7
