REMARK  Name = ZINC08708446
REMARK  10 active torsions:
REMARK  status: ('A' for Active; 'I' for Inactive)
REMARK    1  A    between atoms: C_1  and  C_2
REMARK    2  A    between atoms: N_5  and  S_8
REMARK    3  A    between atoms: S_8  and  C_11
REMARK    4  A    between atoms: C_14  and  N_20
REMARK    5  A    between atoms: C_15  and  N_17
REMARK    6  A    between atoms: N_20  and  C_21
REMARK    7  A    between atoms: C_23  and  C_28
REMARK    8  A    between atoms: C_23  and  C_29
REMARK    9  A    between atoms: C_24  and  C_26
REMARK   10  A    between atoms: C_24  and  C_27
REMARK                            x       y       z     vdW  Elec       q    Type
REMARK                         _______ _______ _______ _____ _____    ______ ____
ROOT
ATOM      1  C   UNL     1       1.833   4.064  -3.370  0.00  0.00    +0.108 A 
ATOM      2  C   UNL     1       1.162   3.946  -4.574  0.00  0.00    +0.030 A 
ATOM      3  C   UNL     1       1.822   3.475  -5.691  0.00  0.00    +0.027 A 
ATOM      4  C   UNL     1       3.162   3.118  -5.605  0.00  0.00    +0.058 A 
ATOM      5  C   UNL     1       3.833   3.237  -4.395  0.00  0.00    +0.149 A 
ATOM      6  C   UNL     1       3.168   3.715  -3.283  0.00  0.00    +0.063 A 
ENDROOT
BRANCH   1   7
ATOM      7  S   UNL     1       0.987   4.666  -1.947  0.00  0.00    +0.061 S 
ATOM      8  O   UNL     1      -0.104   5.443  -2.422  0.00  0.00    -0.153 OA
ATOM      9  O   UNL     1       1.979   5.197  -1.079  0.00  0.00    -0.153 OA
BRANCH   7  14
ATOM     10  C   UNL     1      -0.256  -0.857  -1.032  0.00  0.00    +0.007 C 
ATOM     11  C   UNL     1      -0.292   0.637  -0.703  0.00  0.00    -0.012 C 
ATOM     12  C   UNL     1      -0.954   1.397  -1.854  0.00  0.00    +0.020 C 
ATOM     13  C   UNL     1      -1.019   2.888  -1.506  0.00  0.00    +0.110 C 
ATOM     14  N   UNL     1       0.334   3.355  -1.175  0.00  0.00    -0.177 NA
ATOM     15  C   UNL     1       1.096   2.638  -0.143  0.00  0.00    +0.110 C 
ATOM     16  C   UNL     1       1.137   1.150  -0.507  0.00  0.00    +0.020 C 
ENDBRANCH   7  14
ENDBRANCH   1   7
BRANCH   5  17
ATOM     17  N   UNL     1       5.261   2.858  -4.299  0.00  0.00    +0.058 N 
ATOM     18  O   UNL     1       5.677   1.893  -4.914  0.00  0.00    -0.126 OA
ATOM     19  O   UNL     1       6.019   3.511  -3.604  0.00  0.00    -0.126 OA
ENDBRANCH   5  17
BRANCH   4  20
ATOM     20  N   UNL     1       3.833   2.640  -6.734  0.00  0.00    -0.339 N 
ATOM     21  H   UNL     1       4.787   2.469  -6.694  0.00  0.00    +0.146 HD
BRANCH  20  22
ATOM     22  C   UNL     1       3.094   2.396  -7.979  0.00  0.00    +0.068 C 
ATOM     23  C   UNL     1       2.490   0.993  -7.939  0.00  0.00    +0.009 C 
ATOM     24  C   UNL     1       1.732   0.704  -9.232  0.00  0.00    -0.072 C 
ATOM     25  C   UNL     1       3.322   2.204 -10.470  0.00  0.00    -0.072 C 
ATOM     26  C   UNL     1       4.059   2.476  -9.161  0.00  0.00    +0.009 C 
ATOM     27  C   UNL     1       2.488   3.432 -10.853  0.00  0.00    -0.010 C 
ATOM     28  C   UNL     1       4.387   2.012 -11.572  0.00  0.00    -0.010 C 
ATOM     29  C   UNL     1       0.399   1.462  -9.226  0.00  0.00    -0.010 C 
ATOM     30  C   UNL     1       1.400  -0.805  -9.250  0.00  0.00    -0.010 C 
ATOM     31  N   UNL     1       2.500   0.964 -10.480  0.00  0.00    +0.386 N 
ATOM     32  H   UNL     1       1.832   1.031 -11.256  0.00  0.00    -0.084 HD
ATOM     33  H   UNL     1       3.129   0.167 -10.638  0.00  0.00    -0.084 HD
ENDBRANCH  20  22
ENDBRANCH   4  20
TORSDOF 5
