REMARK  Name = ZINC18173949
REMARK  4 active torsions:
REMARK  status: ('A' for Active; 'I' for Inactive)
REMARK    1  A    between atoms: C_1  and  C_2
REMARK    2  A    between atoms: C_5  and  N_9
REMARK    3  A    between atoms: N_12  and  C_13
REMARK    4  A    between atoms: C_22  and  C_24
REMARK                            x       y       z     vdW  Elec       q    Type
REMARK                         _______ _______ _______ _____ _____    ______ ____
ROOT
ATOM      1  N   UNL     1      -4.402   0.944  -0.442  0.00  0.00    -0.269 N 
ATOM      2  C   UNL     1      -3.268   1.666  -0.352  0.00  0.00    +0.308 C 
ATOM      3  O   UNL     1      -3.260   2.832  -0.698  0.00  0.00    -0.252 OA
ATOM      4  N   UNL     1      -2.142   1.096   0.120  0.00  0.00    -0.269 N 
ATOM      5  H   UNL     1      -4.429   0.038  -0.097  0.00  0.00    +0.156 HD
ATOM      6  H   UNL     1      -2.127   0.148   0.326  0.00  0.00    +0.156 HD
ENDROOT
BRANCH   4   7
ATOM      7  C   UNL     1      -0.992   1.872   0.316  0.00  0.00    +0.035 A 
ATOM      8  C   UNL     1      -1.105   3.203   0.698  0.00  0.00    +0.025 A 
ATOM      9  C   UNL     1       0.026   3.967   0.885  0.00  0.00    +0.025 A 
ATOM     10  C   UNL     1       1.293   3.412   0.697  0.00  0.00    +0.040 A 
ATOM     11  C   UNL     1       1.399   2.082   0.321  0.00  0.00    -0.023 A 
ATOM     12  C   UNL     1       0.266   1.314   0.133  0.00  0.00    +0.028 A 
ATOM     13  C   UNL     1       2.864   1.734   0.187  0.00  0.00    +0.056 C 
ATOM     14  C   UNL     1       3.605   3.035   0.535  0.00  0.00    +0.118 C 
ATOM     15  N   UNL     1       2.552   4.009   0.834  0.00  0.00    -0.271 N 
ATOM     16  C   UNL     1       2.764   5.292   1.190  0.00  0.00    +0.217 C 
ATOM     17  O   UNL     1       1.828   5.996   1.507  0.00  0.00    -0.276 OA
ATOM     18  C   UNL     1       4.163   5.851   1.194  0.00  0.00    +0.109 C 
ENDBRANCH   4   7
BRANCH   1  23
ATOM     19  C   UNL     1      -9.024   3.206  -2.833  0.00  0.00    +0.045 C 
ATOM     20  C   UNL     1      -7.796   2.605  -2.199  0.00  0.00    -0.032 A 
ATOM     21  C   UNL     1      -7.928   1.708  -1.155  0.00  0.00    +0.006 A 
ATOM     22  C   UNL     1      -6.805   1.151  -0.575  0.00  0.00    +0.024 A 
ATOM     23  C   UNL     1      -5.542   1.502  -1.032  0.00  0.00    +0.036 A 
ATOM     24  C   UNL     1      -5.411   2.404  -2.080  0.00  0.00    +0.043 A 
ATOM     25  C   UNL     1      -6.539   2.953  -2.661  0.00  0.00    +0.046 A 
ATOM     26 CL   UNL     1      -6.378   4.080  -3.971  0.00  0.00    -0.083 Cl
ENDBRANCH   1  23
TORSDOF 2
