REMARK  Name = ZINC28371429
REMARK  3 active torsions:
REMARK  status: ('A' for Active; 'I' for Inactive)
REMARK    1  A    between atoms: C_5  and  C_7
REMARK    2  A    between atoms: C_7  and  C_8
REMARK    3  A    between atoms: N_11  and  C_14
REMARK                            x       y       z     vdW  Elec       q    Type
REMARK                         _______ _______ _______ _____ _____    ______ ____
ROOT
ATOM      1  C   UNL     1       0.655   6.285   5.027  0.00  0.00    -0.068 C 
ATOM      2  C   UNL     1       1.954   5.833   5.697  0.00  0.00    -0.011 C 
ATOM      3  C   UNL     1       2.044   6.444   7.098  0.00  0.00    +0.051 C 
ATOM      4  C   UNL     1       0.847   5.986   7.930  0.00  0.00    +0.139 C 
ATOM      5  C   UNL     1      -0.455   6.428   7.262  0.00  0.00    +0.051 C 
ATOM      6  C   UNL     1      -0.540   5.817   5.861  0.00  0.00    -0.011 C 
ATOM      7  C   UNL     1       0.867   4.487   8.082  0.00  0.00    +0.014 A 
ATOM      8  C   UNL     1       0.811   3.447   7.187  0.00  0.00    +0.012 A 
ATOM      9  C   UNL     1       0.852   2.136   7.637  0.00  0.00    +0.050 A 
ATOM     10  C   UNL     1       0.948   1.866   8.992  0.00  0.00    +0.167 A 
ATOM     11  C   UNL     1       1.005   2.912   9.910  0.00  0.00    +0.181 A 
ATOM     12  C   UNL     1       0.963   4.235   9.456  0.00  0.00    +0.111 A 
ATOM     13  C   UNL     1       1.000   5.529  10.155  0.00  0.00    +0.344 C 
ATOM     14  O   UNL     1       1.083   5.665  11.360  0.00  0.00    -0.245 OA
ATOM     15  O   UNL     1       0.931   6.539   9.271  0.00  0.00    -0.450 OA
ATOM     16  O   UNL     1       1.097   2.388  11.164  0.00  0.00    -0.452 OA
ATOM     17  C   UNL     1       1.508   1.020  10.981  0.00  0.00    +0.466 C 
ATOM     18  O   UNL     1       1.005   0.684   9.675  0.00  0.00    -0.453 OA
ENDROOT
BRANCH   1  22
ATOM     19  C   UNL     1       1.407   4.099   1.431  0.00  0.00    -0.010 C 
ATOM     20  C   UNL     1       0.251   3.676   2.341  0.00  0.00    -0.015 C 
ATOM     21  C   UNL     1       0.482   4.239   3.746  0.00  0.00    -0.078 C 
ATOM     22  N   UNL     1       0.570   5.703   3.681  0.00  0.00    +0.382 N 
ATOM     23  C   UNL     1       1.703   6.131   2.851  0.00  0.00    -0.078 C 
ATOM     24  C   UNL     1       1.507   5.627   1.419  0.00  0.00    -0.015 C 
ATOM     25  H   UNL     1      -0.351   6.074   3.208  0.00  0.00    -0.081 HD
BRANCH  19  26
ATOM     26  C   UNL     1       1.150   3.592   0.010  0.00  0.00    +0.039 C 
BRANCH  26  31
ATOM     27  C   UNL     1       0.002  -0.004   0.002  0.00  0.00    +0.000 A 
ATOM     28  C   UNL     1       1.208  -0.679  -0.014  0.00  0.00    +0.001 A 
ATOM     29  C   UNL     1       2.396   0.027  -0.021  0.00  0.00    +0.015 A 
ATOM     30  C   UNL     1       2.378   1.411  -0.013  0.00  0.00    +0.021 A 
ATOM     31  C   UNL     1       1.171   2.086   0.002  0.00  0.00    -0.033 A 
ATOM     32  C   UNL     1      -0.017   1.378   0.010  0.00  0.00    +0.005 A 
ATOM     33 BR   UNL     1       4.003   2.378  -0.022  0.00  0.00    -0.050 Br
ENDBRANCH  26  31
ENDBRANCH  19  26
ENDBRANCH   1  22
TORSDOF 3
