REMARK  Name = ZINC04659720
REMARK  2 active torsions:
REMARK  status: ('A' for Active; 'I' for Inactive)
REMARK    1  A    between atoms: N_10  and  N_14
REMARK    2  A    between atoms: C_15  and  C_17
REMARK                            x       y       z     vdW  Elec       q    Type
REMARK                         _______ _______ _______ _____ _____    ______ ____
ROOT
ATOM      1  N   UNL     1      -2.112   5.794  -0.958  0.00  0.00    -0.209 N 
ATOM      2  C   UNL     1      -1.510   5.123   0.044  0.00  0.00    +0.235 C 
ATOM      3  O   UNL     1      -0.985   5.731   0.952  0.00  0.00    -0.274 OA
ATOM      4  H   UNL     1      -2.533   5.307  -1.684  0.00  0.00    +0.173 HD
ENDROOT
BRANCH   1  14
ATOM      5  C   UNL     1      -1.606  12.275  -1.275  0.00  0.00    +0.002 A 
ATOM      6  C   UNL     1      -2.796  12.255  -0.572  0.00  0.00    +0.002 A 
ATOM      7  C   UNL     1      -3.370  11.048  -0.229  0.00  0.00    +0.030 A 
ATOM      8  C   UNL     1      -2.760   9.851  -0.585  0.00  0.00    +0.135 A 
ATOM      9  C   UNL     1      -1.575   9.871  -1.285  0.00  0.00    +0.135 A 
ATOM     10  C   UNL     1      -0.999  11.088  -1.629  0.00  0.00    +0.030 A 
ATOM     11  S   UNL     1      -1.013   8.231  -1.612  0.00  0.00    +0.097 S 
ATOM     12  O   UNL     1       0.188   8.058  -0.873  0.00  0.00    -0.150 OA
ATOM     13  O   UNL     1      -1.076   8.049  -3.020  0.00  0.00    -0.150 OA
ATOM     14  N   UNL     1      -2.131   7.195  -0.950  0.00  0.00    +0.046 NA
ATOM     15  S   UNL     1      -3.281   8.193  -0.283  0.00  0.00    +0.097 S 
ATOM     16  O   UNL     1      -4.473   7.995  -1.030  0.00  0.00    -0.150 OA
ATOM     17  O   UNL     1      -3.218   8.001   1.124  0.00  0.00    -0.150 OA
ENDBRANCH   1  14
BRANCH   2  18
ATOM     18  C   UNL     1      -1.490   3.616   0.036  0.00  0.00    +0.049 C 
ATOM     19  C   UNL     1      -0.773   3.123  -1.223  0.00  0.00    +0.019 C 
ATOM     20  C   UNL     1      -0.753   1.593  -1.232  0.00  0.00    -0.009 C 
ATOM     21  C   UNL     1      -0.013   1.086   0.008  0.00  0.00    +0.007 C 
ATOM     22  C   UNL     1      -0.729   1.579   1.267  0.00  0.00    -0.009 C 
ATOM     23  C   UNL     1      -0.750   3.109   1.275  0.00  0.00    +0.019 C 
ATOM     24  C   UNL     1      -2.164   1.050   1.278  0.00  0.00    +0.007 C 
ATOM     25  C   UNL     1      -2.904   1.556   0.038  0.00  0.00    -0.009 C 
ATOM     26  C   UNL     1      -2.188   1.063  -1.221  0.00  0.00    +0.007 C 
ATOM     27  C   UNL     1      -2.925   3.086   0.047  0.00  0.00    +0.019 C 
ENDBRANCH   2  18
TORSDOF 2
