REMARK  Name = ZINC12597504
REMARK  5 active torsions:
REMARK  status: ('A' for Active; 'I' for Inactive)
REMARK    1  A    between atoms: C_1  and  N_2
REMARK    2  A    between atoms: N_2  and  C_3
REMARK    3  A    between atoms: C_13  and  N_48
REMARK    4  A    between atoms: C_15  and  C_16
REMARK    5  A    between atoms: C_15  and  N_48
REMARK                            x       y       z     vdW  Elec       q    Type
REMARK                         _______ _______ _______ _____ _____    ______ ____
ROOT
ATOM      1  N   UNL     1      -3.199  -3.086  -0.434  0.00  0.00    +0.386 N 
ATOM      2  H   UNL     1      -3.158  -3.106  -1.459  0.00  0.00    -0.085 HD
ATOM      3  H   UNL     1      -2.346  -3.509  -0.049  0.00  0.00    -0.085 HD
ENDROOT
BRANCH   1  16
ATOM      4  C   UNL     1      -3.733 -10.256   0.060  0.00  0.00    +0.132 C 
ATOM      5  N   UNL     1      -2.844  -9.184   0.515  0.00  0.00    -0.306 N 
ATOM      6  C   UNL     1      -1.545  -9.511   1.107  0.00  0.00    +0.132 C 
ATOM      7  C   UNL     1      -3.232  -7.862   0.385  0.00  0.00    +0.218 A 
ATOM      8  N   UNL     1      -2.417  -6.903   0.801  0.00  0.00    -0.223 NA
ATOM      9  C   UNL     1      -2.763  -5.633   0.691  0.00  0.00    +0.118 A 
ATOM     10  C   UNL     1      -3.994  -5.306   0.133  0.00  0.00    -0.022 A 
ATOM     11  C   UNL     1      -4.816  -6.326  -0.294  0.00  0.00    +0.048 A 
ATOM     12  N   UNL     1      -4.409  -7.582  -0.152  0.00  0.00    -0.219 NA
ATOM     13  C   UNL     1      -6.159  -6.074  -0.923  0.00  0.00    +0.056 C 
ATOM     14  C   UNL     1      -6.636  -4.656  -0.615  0.00  0.00    +0.005 C 
ATOM     15  C   UNL     1      -5.514  -3.675  -0.977  0.00  0.00    -0.011 C 
ATOM     16  C   UNL     1      -4.372  -3.855   0.022  0.00  0.00    -0.037 C 
ENDBRANCH   1  16
BRANCH   1  17
ATOM     17  C   UNL     1      -3.295  -1.686   0.022  0.00  0.00    -0.046 C 
BRANCH  17  18
ATOM     18  C   UNL     1      -2.028  -0.959  -0.346  0.00  0.00    -0.061 A 
ATOM     19  C   UNL     1      -0.965  -0.934   0.537  0.00  0.00    +0.005 A 
ATOM     20  C   UNL     1       0.199  -0.266   0.204  0.00  0.00    +0.049 A 
ATOM     21  C   UNL     1       0.302   0.381  -1.019  0.00  0.00    +0.162 A 
ATOM     22  C   UNL     1      -0.765   0.354  -1.908  0.00  0.00    +0.162 A 
ATOM     23  C   UNL     1      -1.930  -0.317  -1.566  0.00  0.00    +0.051 A 
ATOM     24  O   UNL     1      -0.683   0.979  -3.114  0.00  0.00    -0.485 OA
ATOM     25  C   UNL     1       0.354   1.954  -3.264  0.00  0.00    +0.270 C 
ATOM     26  C   UNL     1       1.656   1.360  -2.711  0.00  0.00    +0.270 C 
ATOM     27  O   UNL     1       1.452   1.040  -1.330  0.00  0.00    -0.485 OA
ENDBRANCH  17  18
ENDBRANCH   1  17
TORSDOF 3
