REMARK  Name = ZINC20722207
REMARK  6 active torsions:
REMARK  status: ('A' for Active; 'I' for Inactive)
REMARK    1  A    between atoms: C_1  and  C_2
REMARK    2  A    between atoms: C_4  and  C_24
REMARK    3  A    between atoms: C_6  and  S_10
REMARK    4  A    between atoms: C_7  and  C_8
REMARK    5  A    between atoms: S_10  and  C_11
REMARK    6  A    between atoms: C_22  and  O_23
REMARK                            x       y       z     vdW  Elec       q    Type
REMARK                         _______ _______ _______ _____ _____    ______ ____
ROOT
ATOM      1  C   UNL     1       0.078  -4.794   2.067  0.00  0.00    +0.138 C 
ATOM      2  C   UNL     1       0.251  -5.701   3.261  0.00  0.00    +0.029 C 
ATOM      3  C   UNL     1       0.627  -7.102   2.888  0.00  0.00    +0.039 C 
ATOM      4  C   UNL     1      -0.485  -7.943   2.347  0.00  0.00    -0.022 A 
ATOM      5  C   UNL     1      -0.442  -9.294   2.684  0.00  0.00    +0.006 A 
ATOM      6  C   UNL     1      -1.402 -10.177   2.241  0.00  0.00    +0.000 A 
ATOM      7  C   UNL     1      -2.435  -9.718   1.443  0.00  0.00    +0.002 A 
ATOM      8  C   UNL     1      -2.494  -8.390   1.105  0.00  0.00    +0.028 A 
ATOM      9  C   UNL     1      -1.520  -7.472   1.555  0.00  0.00    +0.071 A 
ATOM     10  N   UNL     1      -1.717  -6.199   1.165  0.00  0.00    -0.216 NA
ATOM     11  C   UNL     1      -1.183  -5.076   1.331  0.00  0.00    +0.201 C 
ENDROOT
BRANCH  11  12
ATOM     12  O   UNL     1      -1.816  -4.018   0.783  0.00  0.00    -0.495 OA
ATOM     13  H   UNL     1      -2.630  -4.246   0.315  0.00  0.00    +0.293 HD
ENDBRANCH  11  12
BRANCH   1  14
ATOM     14  S   UNL     1       0.057  -3.071   2.633  0.00  0.00    -0.092 S 
BRANCH  14  20
ATOM     15  C   UNL     1      -0.018   1.503   0.010  0.00  0.00    +0.045 C 
ATOM     16  C   UNL     1       0.002  -0.004   0.002  0.00  0.00    -0.029 A 
ATOM     17  C   UNL     1       0.006  -0.707  -1.191  0.00  0.00    +0.027 A 
ATOM     18  C   UNL     1       0.025  -2.089  -1.167  0.00  0.00    +0.040 A 
ATOM     19  N   UNL     1       0.040  -2.754  -0.028  0.00  0.00    -0.244 NA
ATOM     20  C   UNL     1       0.037  -2.133   1.142  0.00  0.00    +0.116 A 
ATOM     21  C   UNL     1       0.023  -0.727   1.200  0.00  0.00    +0.086 A 
ATOM     22  C   UNL     1       0.029  -2.851  -2.467  0.00  0.00    +0.065 C 
BRANCH  21  23
ATOM     23  C   UNL     1       0.026  -0.049   2.461  0.00  0.00    +0.102 C 
ATOM     24  N   UNL     1       0.028   0.489   3.462  0.00  0.00    -0.191 NA
ENDBRANCH  21  23
ENDBRANCH  14  20
ENDBRANCH   1  14
TORSDOF 4
