REMARK  Name = ZINC03261783
REMARK  5 active torsions:
REMARK  status: ('A' for Active; 'I' for Inactive)
REMARK    1  A    between atoms: C_5  and  N_7
REMARK    2  A    between atoms: C_11  and  S_13
REMARK    3  A    between atoms: S_13  and  C_14
REMARK    4  A    between atoms: C_14  and  C_15
REMARK    5  A    between atoms: N_17  and  C_18
REMARK                            x       y       z     vdW  Elec       q    Type
REMARK                         _______ _______ _______ _____ _____    ______ ____
ROOT
ATOM      1  N   UNL     1       0.974   3.600   1.521  0.00  0.00    -0.290 N 
ATOM      2  C   UNL     1      -0.221   4.262   1.264  0.00  0.00    +0.187 A 
ATOM      3  N   UNL     1      -1.349   3.789   0.770  0.00  0.00    -0.125 NA
ATOM      4  N   UNL     1      -2.426   4.628   0.598  0.00  0.00    -0.133 NA
ATOM      5  C   UNL     1      -2.322   5.904   0.918  0.00  0.00    +0.160 A 
ATOM      6  S   UNL     1      -0.637   5.982   1.507  0.00  0.00    -0.024 S 
ATOM      7  H   UNL     1       1.704   4.069   1.954  0.00  0.00    +0.154 HD
ENDROOT
BRANCH   1  12
ATOM      8  C   UNL     1       0.187   0.221   0.303  0.00  0.00    +0.002 A 
ATOM      9  C   UNL     1       1.417  -0.398   0.432  0.00  0.00    +0.003 A 
ATOM     10  C   UNL     1       2.501   0.306   0.922  0.00  0.00    +0.040 A 
ATOM     11  C   UNL     1       2.358   1.633   1.285  0.00  0.00    +0.144 A 
ATOM     12  C   UNL     1       1.123   2.258   1.156  0.00  0.00    +0.068 A 
ATOM     13  C   UNL     1       0.037   1.546   0.663  0.00  0.00    +0.026 A 
ATOM     14  F   UNL     1       3.418   2.321   1.764  0.00  0.00    -0.204 F 
ENDBRANCH   1  12
BRANCH   5  15
ATOM     15  S   UNL     1      -3.523   7.187   0.797  0.00  0.00    -0.088 S 
BRANCH  15  16
ATOM     16  C   UNL     1      -4.986   6.356   0.116  0.00  0.00    +0.172 C 
BRANCH  16  17
ATOM     17  C   UNL     1      -6.103   7.355  -0.040  0.00  0.00    +0.228 C 
ATOM     18  O   UNL     1      -5.931   8.513   0.277  0.00  0.00    -0.275 OA
ATOM     19  N   UNL     1      -7.295   6.961  -0.531  0.00  0.00    -0.280 N 
ATOM     20  H   UNL     1      -7.448   6.026  -0.741  0.00  0.00    +0.155 HD
BRANCH  19  21
ATOM     21  C   UNL     1      -8.313   7.902  -0.740  0.00  0.00    +0.105 A 
ATOM     22  C   UNL     1      -9.643   7.541  -0.559  0.00  0.00    +0.147 A 
ATOM     23  C   UNL     1     -10.644   8.474  -0.760  0.00  0.00    +0.040 A 
ATOM     24  C   UNL     1     -10.324   9.761  -1.151  0.00  0.00    +0.006 A 
ATOM     25  C   UNL     1      -9.002  10.123  -1.337  0.00  0.00    +0.040 A 
ATOM     26  C   UNL     1      -7.995   9.197  -1.133  0.00  0.00    +0.147 A 
ATOM     27  F   UNL     1      -6.704   9.550  -1.316  0.00  0.00    -0.203 F 
ATOM     28  F   UNL     1      -9.957   6.283  -0.182  0.00  0.00    -0.203 F 
ENDBRANCH  19  21
ENDBRANCH  16  17
ENDBRANCH  15  16
ENDBRANCH   5  15
TORSDOF 5
