REMARK  Name = ZINC32594608
REMARK  3 active torsions:
REMARK  status: ('A' for Active; 'I' for Inactive)
REMARK    1  A    between atoms: C_1  and  C_2
REMARK    2  A    between atoms: C_2  and  C_27
REMARK    3  A    between atoms: N_17  and  C_20
REMARK                            x       y       z     vdW  Elec       q    Type
REMARK                         _______ _______ _______ _____ _____    ______ ____
ROOT
ATOM      1  C   UNL     1      -0.019   1.526   0.010  0.00  0.00    +0.017 C 
ATOM      2  C   UNL     1       0.002  -0.004   0.002  0.00  0.00    +0.012 C 
ATOM      3  C   UNL     1       0.726  -0.492  -1.221  0.00  0.00    +0.031 A 
ATOM      4  C   UNL     1       1.593  -1.520  -1.353  0.00  0.00    +0.088 A 
ATOM      5  N   UNL     1       2.099  -1.695  -2.617  0.00  0.00    -0.311 N 
ATOM      6  H   UNL     1       2.737  -2.405  -2.790  0.00  0.00    +0.170 HD
ATOM      7  C   UNL     1       1.711  -0.879  -3.616  0.00  0.00    +0.289 A 
ATOM      8  O   UNL     1       2.056  -0.898  -4.784  0.00  0.00    -0.260 OA
ATOM      9  S   UNL     1       0.634   0.171  -2.863  0.00  0.00    -0.030 S 
ATOM     10  S   UNL     1       2.009  -2.560   0.040  0.00  0.00    -0.093 S 
ATOM     11  C   UNL     1       0.714  -2.066   1.205  0.00  0.00    +0.152 C 
ATOM     12  C   UNL     1       0.731  -0.508   1.223  0.00  0.00    +0.109 C 
ATOM     13  C   UNL     1       0.156  -0.243   2.578  0.00  0.00    +0.232 C 
ATOM     14  O   UNL     1      -0.502   0.718   2.916  0.00  0.00    -0.274 OA
ATOM     15  N   UNL     1       0.521  -1.297   3.355  0.00  0.00    -0.209 N 
ATOM     16  C   UNL     1       1.017  -2.365   2.648  0.00  0.00    +0.240 C 
ATOM     17  O   UNL     1       1.591  -3.340   3.083  0.00  0.00    -0.274 OA
ATOM     18  C   UNL     1      -1.432  -0.538   0.003  0.00  0.00    +0.017 C 
ENDROOT
BRANCH  15  19
ATOM     19  C   UNL     1       0.387  -1.305   4.751  0.00  0.00    +0.044 A 
ATOM     20  C   UNL     1      -0.146  -0.202   5.404  0.00  0.00    +0.027 A 
ATOM     21  C   UNL     1      -0.278  -0.212   6.779  0.00  0.00    +0.040 A 
ATOM     22  C   UNL     1       0.121  -1.321   7.506  0.00  0.00    +0.124 A 
ATOM     23  C   UNL     1       0.654  -2.422   6.856  0.00  0.00    +0.040 A 
ATOM     24  C   UNL     1       0.781  -2.418   5.480  0.00  0.00    +0.027 A 
ATOM     25  F   UNL     1      -0.007  -1.329   8.851  0.00  0.00    -0.205 F 
ENDBRANCH  15  19
TORSDOF 1
