REMARK  Name = ZINC09712953
REMARK  7 active torsions:
REMARK  status: ('A' for Active; 'I' for Inactive)
REMARK    1  A    between atoms: C_1  and  C_2
REMARK    2  A    between atoms: C_2  and  C_3
REMARK    3  A    between atoms: C_2  and  N_4
REMARK    4  A    between atoms: C_9  and  C_16
REMARK    5  A    between atoms: C_11  and  C_13
REMARK    6  A    between atoms: N_21  and  C_24
REMARK    7  A    between atoms: C_27  and  C_29
REMARK                            x       y       z     vdW  Elec       q    Type
REMARK                         _______ _______ _______ _____ _____    ______ ____
ROOT
ATOM      1  C   UNL     1      -1.134  -2.436   0.029  0.00  0.00    +0.247 C 
ATOM      2  O   UNL     1      -0.161  -3.164   0.054  0.00  0.00    -0.270 OA
ATOM      3  N   UNL     1      -2.372  -2.961   0.126  0.00  0.00    -0.295 N 
ATOM      4  C   UNL     1      -3.565  -2.112  -0.012  0.00  0.00    +0.127 C 
ATOM      5  C   UNL     1      -4.496  -2.756  -1.051  0.00  0.00    +0.125 C 
ATOM      6  N   UNL     1      -4.766  -4.147  -0.664  0.00  0.00    -0.313 N 
ATOM      7  C   UNL     1      -3.535  -4.950  -0.670  0.00  0.00    +0.125 C 
ATOM      8  C   UNL     1      -2.564  -4.397   0.379  0.00  0.00    +0.127 C 
ENDROOT
BRANCH   1  14
ATOM      9  N   UNL     1       0.952   1.209  -2.164  0.00  0.00    -0.244 N 
ATOM     10  C   UNL     1       0.049   0.971  -1.161  0.00  0.00    +0.159 A 
ATOM     11  C   UNL     1      -0.082  -0.430  -1.070  0.00  0.00    +0.051 A 
ATOM     12  C   UNL     1       0.768  -0.991  -2.046  0.00  0.00    +0.145 A 
ATOM     13  N   UNL     1       1.367  -0.024  -2.680  0.00  0.00    -0.177 NA
ATOM     14  C   UNL     1      -0.960  -0.974  -0.106  0.00  0.00    +0.051 A 
ATOM     15  C   UNL     1      -1.657  -0.087   0.712  0.00  0.00    +0.037 A 
ATOM     16  C   UNL     1      -1.467   1.277   0.554  0.00  0.00    +0.047 A 
ATOM     17  N   UNL     1      -0.640   1.759  -0.348  0.00  0.00    -0.232 NA
BRANCH   9  19
ATOM     18  C   UNL     1       2.919   2.637  -2.435  0.00  0.00    +0.032 C 
ATOM     19  C   UNL     1       1.404   2.527  -2.617  0.00  0.00    +0.103 C 
ATOM     20  C   UNL     1       1.054   2.705  -4.096  0.00  0.00    +0.032 C 
ENDBRANCH   9  19
BRANCH  16  21
ATOM     21  C   UNL     1      -2.223   2.232   1.441  0.00  0.00    +0.038 C 
ATOM     22  C   UNL     1      -3.430   1.682   2.204  0.00  0.00    +0.010 C 
ATOM     23  C   UNL     1      -3.639   2.623   1.014  0.00  0.00    +0.010 C 
ENDBRANCH  16  21
ENDBRANCH   1  14
BRANCH   6  24
ATOM     24  C   UNL     1      -5.734  -4.714  -1.486  0.00  0.00    +0.118 A 
ATOM     25  C   UNL     1      -6.921  -5.184  -0.930  0.00  0.00    +0.079 A 
ATOM     26  C   UNL     1      -7.878  -5.741  -1.761  0.00  0.00    +0.037 A 
ATOM     27  C   UNL     1      -7.610  -5.819  -3.121  0.00  0.00    +0.072 A 
ATOM     28  C   UNL     1      -6.410  -5.339  -3.603  0.00  0.00    +0.096 A 
ATOM     29 CL   UNL     1      -7.200  -5.067   0.779  0.00  0.00    -0.080 Cl
ATOM     30  N   UNL     1      -5.449  -4.781  -2.818  0.00  0.00    -0.348 N 
ATOM     31  H   UNL     1      -4.564  -4.432  -3.204  0.00  0.00    +0.167 HD
BRANCH  27  32
ATOM     32  C   UNL     1      -8.621  -6.423  -4.062  0.00  0.00    +0.419 C 
ATOM     33  F   UNL     1      -8.121  -6.387  -5.369  0.00  0.00    -0.166 F 
ATOM     34  F   UNL     1      -8.867  -7.750  -3.694  0.00  0.00    -0.166 F 
ATOM     35  F   UNL     1      -9.812  -5.693  -3.998  0.00  0.00    -0.166 F 
ENDBRANCH  27  32
ENDBRANCH   6  24
TORSDOF 5
