REMARK  Name = ZINC39480312
REMARK  5 active torsions:
REMARK  status: ('A' for Active; 'I' for Inactive)
REMARK    1  A    between atoms: C_1  and  N_2
REMARK    2  A    between atoms: C_8  and  O_9
REMARK    3  A    between atoms: O_9  and  C_10
REMARK    4  A    between atoms: C_13  and  S_22
REMARK    5  A    between atoms: S_22  and  C_23
REMARK                            x       y       z     vdW  Elec       q    Type
REMARK                         _______ _______ _______ _____ _____    ______ ____
ROOT
ATOM      1  C   UNL     1       0.326   1.382  -0.051  0.00  0.00    +0.137 C 
ATOM      2  N   UNL     1       0.408  -0.080   0.005  0.00  0.00    -0.283 N 
ATOM      3  C   UNL     1      -0.806  -0.719  -0.099  0.00  0.00    +0.081 A 
ATOM      4  C   UNL     1      -1.882   0.003   0.373  0.00  0.00    -0.015 A 
ATOM      5  C   UNL     1      -3.151  -0.139  -0.067  0.00  0.00    +0.020 A 
ATOM      6  C   UNL     1      -3.417  -1.297  -0.806  0.00  0.00    +0.017 A 
ATOM      7  C   UNL     1      -2.400  -2.207  -1.045  0.00  0.00    +0.062 A 
ATOM      8  C   UNL     1      -1.081  -1.936  -0.701  0.00  0.00    +0.143 A 
ATOM      9  I   UNL     1      -5.345  -1.654  -1.545  0.00  0.00    -0.044 I 
ATOM     10  C   UNL     1      -1.589   0.546   1.800  0.00  0.00    +0.099 C 
ATOM     11  C   UNL     1      -0.199  -0.017   2.053  0.00  0.00    +0.079 C 
ATOM     12  N   UNL     1       0.938   0.600   1.994  0.00  0.00    -0.239 NA
ATOM     13  C   UNL     1       2.001  -0.107   1.513  0.00  0.00    +0.142 A 
ATOM     14  C   UNL     1       1.675  -0.567   0.145  0.00  0.00    +0.156 A 
ATOM     15  N   UNL     1       2.542  -1.238  -0.513  0.00  0.00    -0.218 NA
ATOM     16  C   UNL     1       3.723  -1.530   0.024  0.00  0.00    +0.225 A 
ATOM     17  N   UNL     1       4.056  -1.151   1.242  0.00  0.00    -0.222 NA
ATOM     18  C   UNL     1       3.215  -0.441   2.017  0.00  0.00    +0.160 A 
ATOM     19 CL   UNL     1       3.673   0.045   3.619  0.00  0.00    -0.060 Cl
ENDROOT
BRANCH   8  20
ATOM     20  O   UNL     1      -0.092  -2.836  -0.949  0.00  0.00    -0.493 OA
ATOM     21  C   UNL     1      -0.473  -4.064  -1.573  0.00  0.00    +0.277 C 
ENDBRANCH   8  20
BRANCH  11  22
ATOM     22  S   UNL     1      -0.127  -1.725   2.481  0.00  0.00    -0.113 S 
ATOM     23  C   UNL     1      -1.867  -2.213   2.637  0.00  0.00    +0.091 C 
ENDBRANCH  11  22
TORSDOF 2
