REMARK  Name = ZINC58112300
REMARK  8 active torsions:
REMARK  status: ('A' for Active; 'I' for Inactive)
REMARK    1  A    between atoms: C_1  and  C_2
REMARK    2  A    between atoms: N_5  and  C_24
REMARK    3  A    between atoms: C_6  and  N_7
REMARK    4  A    between atoms: C_8  and  C_10
REMARK    5  A    between atoms: C_12  and  N_20
REMARK    6  A    between atoms: C_14  and  N_16
REMARK    7  A    between atoms: C_17  and  C_19
REMARK    8  A    between atoms: C_21  and  C_23
REMARK                            x       y       z     vdW  Elec       q    Type
REMARK                         _______ _______ _______ _____ _____    ______ ____
ROOT
ATOM      1  N   UNL     1       0.795  -0.379   2.641  0.00  0.00    -0.266 N 
ATOM      2  C   UNL     1       0.875   0.944   2.885  0.00  0.00    +0.249 C 
ATOM      3  O   UNL     1       1.072   1.720   1.971  0.00  0.00    -0.270 OA
ATOM      4  H   UNL     1       0.681  -1.002   3.376  0.00  0.00    +0.157 HD
ENDROOT
BRANCH   1  10
ATOM      5  C   UNL     1      -0.484   0.998   0.208  0.00  0.00    +0.049 C 
ATOM      6  C   UNL     1       0.326  -0.273   0.231  0.00  0.00    +0.009 A 
ATOM      7  C   UNL     1       0.649  -1.063  -0.875  0.00  0.00    +0.139 A 
ATOM      8  N   UNL     1       1.361  -2.080  -0.464  0.00  0.00    -0.177 NA
ATOM      9  N   UNL     1       1.519  -1.978   0.924  0.00  0.00    -0.243 N 
ATOM     10  C   UNL     1       0.877  -0.853   1.333  0.00  0.00    +0.127 A 
BRANCH   9  11
ATOM     11  C   UNL     1       2.250  -2.914   1.781  0.00  0.00    +0.139 C 
ATOM     12  C   UNL     1       1.684  -4.319   1.590  0.00  0.00    +0.032 C 
ATOM     13  C   UNL     1       2.595  -5.312   2.322  0.00  0.00    +0.007 C 
ATOM     14  C   UNL     1       3.921  -5.395   1.567  0.00  0.00    +0.035 C 
ATOM     15  C   UNL     1       4.480  -4.017   1.327  0.00  0.00    -0.042 A 
ATOM     16  C   UNL     1       3.712  -2.879   1.421  0.00  0.00    -0.020 A 
ATOM     17  C   UNL     1       4.290  -1.639   1.180  0.00  0.00    +0.006 A 
ATOM     18  C   UNL     1       5.626  -1.540   0.850  0.00  0.00    +0.000 A 
ATOM     19  C   UNL     1       6.397  -2.683   0.759  0.00  0.00    +0.000 A 
ATOM     20  C   UNL     1       5.826  -3.915   0.998  0.00  0.00    +0.004 A 
ENDBRANCH   9  11
ENDBRANCH   1  10
BRANCH   2  21
ATOM     21  C   UNL     1       0.723   1.451   4.266  0.00  0.00    +0.041 A 
ATOM     22  C   UNL     1       0.503   0.561   5.317  0.00  0.00    +0.036 A 
ATOM     23  C   UNL     1       0.361   1.041   6.611  0.00  0.00    +0.036 A 
ATOM     24  C   UNL     1       0.438   2.405   6.860  0.00  0.00    +0.046 A 
ATOM     25  C   UNL     1       0.657   3.293   5.815  0.00  0.00    +0.036 A 
ATOM     26  C   UNL     1       0.805   2.820   4.520  0.00  0.00    +0.036 A 
BRANCH  25  27
ATOM     27  N   UNL     1       0.733   4.667   6.071  0.00  0.00    -0.286 N 
ATOM     28  C   UNL     1       0.280   5.549   5.158  0.00  0.00    +0.214 C 
ATOM     29  O   UNL     1      -0.282   5.152   4.159  0.00  0.00    -0.276 OA
ATOM     30  C   UNL     1       0.469   7.027   5.379  0.00  0.00    +0.109 C 
ATOM     31  H   UNL     1       1.113   4.985   6.905  0.00  0.00    +0.155 HD
ENDBRANCH  25  27
BRANCH  23  32
ATOM     32  N   UNL     1       0.139   0.149   7.666  0.00  0.00    -0.286 N 
ATOM     33  C   UNL     1       0.659   0.403   8.883  0.00  0.00    +0.214 C 
ATOM     34  O   UNL     1       1.247   1.444   9.086  0.00  0.00    -0.276 OA
ATOM     35  C   UNL     1       0.510  -0.606   9.992  0.00  0.00    +0.109 C 
ATOM     36  H   UNL     1      -0.389  -0.652   7.522  0.00  0.00    +0.155 HD
ENDBRANCH  23  32
ENDBRANCH   2  21
TORSDOF 5
