REMARK  Name = ZINC13244423
REMARK  12 active torsions:
REMARK  status: ('A' for Active; 'I' for Inactive)
REMARK    1  A    between atoms: C_1  and  C_2
REMARK    2  A    between atoms: C_4  and  C_32
REMARK    3  A    between atoms: C_5  and  C_9
REMARK    4  A    between atoms: C_7  and  C_8
REMARK    5  A    between atoms: C_9  and  C_11
REMARK    6  A    between atoms: C_9  and  N_12
REMARK    7  A    between atoms: C_13  and  C_15
REMARK    8  A    between atoms: C_15  and  N_16
REMARK    9  A    between atoms: N_19  and  CA_20
REMARK   10  A    between atoms: CA_20  and  C_22
REMARK   11  A    between atoms: CA_20  and  C_30
REMARK   12  A    between atoms: C_22  and  C_23
REMARK                            x       y       z     vdW  Elec       q    Type
REMARK                         _______ _______ _______ _____ _____    ______ ____
ROOT
ATOM      1  N   UNL     1       6.632   4.121   2.450  0.00  0.00    -0.291 N 
ATOM      2  C   UNL     1       7.710   3.575   3.047  0.00  0.00    +0.301 C 
ATOM      3  O   UNL     1       7.857   2.368   3.048  0.00  0.00    -0.253 OA
ATOM      4  N   UNL     1       8.625   4.365   3.642  0.00  0.00    -0.286 N 
ATOM      5  H   UNL     1       6.515   5.084   2.450  0.00  0.00    +0.151 HD
ATOM      6  H   UNL     1       8.507   5.328   3.641  0.00  0.00    +0.151 HD
ENDROOT
BRANCH   1   7
ATOM      7  C   UNL     1       5.638   3.261   1.804  0.00  0.00    +0.201 C 
BRANCH   7   9
ATOM      8  N   UNL     1       3.511   3.535   0.570  0.00  0.00    -0.307 N 
ATOM      9  C   UNL     1       4.541   4.114   1.218  0.00  0.00    +0.231 C 
ATOM     10  O   UNL     1       4.586   5.321   1.330  0.00  0.00    -0.274 OA
ATOM     11  H   UNL     1       3.475   2.570   0.481  0.00  0.00    +0.149 HD
BRANCH   8  12
ATOM     12  C   UNL     1       2.445   4.363   0.001  0.00  0.00    +0.100 C 
ATOM     13  C   UNL     1       2.813   4.754  -1.432  0.00  0.00    +0.033 C 
BRANCH  12  18
ATOM     14  C   UNL     1      -2.506   1.384  -0.038  0.00  0.00    +0.044 C 
ATOM     15  C   UNL     1      -1.214   2.160  -0.025  0.00  0.00    -0.047 A 
ATOM     16  C   UNL     1      -1.239   3.542   0.037  0.00  0.00    +0.007 A 
ATOM     17  C   UNL     1      -0.055   4.254   0.044  0.00  0.00    -0.045 A 
ATOM     18  C   UNL     1       1.154   3.586  -0.006  0.00  0.00    -0.024 A 
ATOM     19  C   UNL     1       1.179   2.205  -0.062  0.00  0.00    +0.009 A 
ATOM     20  C   UNL     1      -0.005   1.492  -0.069  0.00  0.00    -0.047 A 
ATOM     21  C   UNL     1       0.022  -0.013  -0.130  0.00  0.00    +0.044 C 
ATOM     22  C   UNL     1      -0.082   5.760   0.104  0.00  0.00    +0.044 C 
ENDBRANCH  12  18
ENDBRANCH   8  12
ENDBRANCH   7   9
ENDBRANCH   1   7
BRANCH   4  23
ATOM     23  CA  UNL     1       9.796   3.771   4.290  0.00  0.00    +0.196 C 
BRANCH  23  24
ATOM     24  C   UNL     1      10.875   3.541   3.263  0.00  0.00    +0.376 C 
ATOM     25  O   UNL     1      10.685   3.842   2.109  0.00  0.00    -0.244 OA
ATOM     26  OXT UNL     1      12.048   3.001   3.632  0.00  0.00    -0.244 OA
ENDBRANCH  23  24
BRANCH  23  27
ATOM     27  C   UNL     1      10.316   4.719   5.372  0.00  0.00    +0.130 C 
BRANCH  27  28
ATOM     28  C   UNL     1       9.284   4.853   6.461  0.00  0.00    +0.218 C 
ATOM     29  O   UNL     1       8.235   4.250   6.380  0.00  0.00    -0.276 OA
ATOM     30  N   UNL     1       9.525   5.644   7.526  0.00  0.00    -0.301 N 
ATOM     31  C   UNL     1      10.751   6.423   7.753  0.00  0.00    +0.108 C 
ATOM     32  C   UNL     1      10.587   7.150   9.105  0.00  0.00    +0.020 C 
ATOM     33  C   UNL     1       9.522   6.288   9.834  0.00  0.00    +0.020 C 
ATOM     34  C   UNL     1       8.607   5.865   8.658  0.00  0.00    +0.108 C 
ENDBRANCH  27  28
ENDBRANCH  23  27
ENDBRANCH   4  23
TORSDOF 8
