REMARK  Name = ZINC19642484
REMARK  5 active torsions:
REMARK  status: ('A' for Active; 'I' for Inactive)
REMARK    1  A    between atoms: C_6  and  N_7
REMARK    2  A    between atoms: C_8  and  C_10
REMARK    3  A    between atoms: C_14  and  N_15
REMARK    4  A    between atoms: C_16  and  C_18
REMARK    5  A    between atoms: C_24  and  C_26
REMARK                            x       y       z     vdW  Elec       q    Type
REMARK                         _______ _______ _______ _____ _____    ______ ____
ROOT
ATOM      1  C   UNL     1       0.053   1.604   0.022  0.00  0.00    +0.069 A 
ATOM      2  C   UNL     1       0.074   0.153   0.204  0.00  0.00    -0.023 A 
ATOM      3  C   UNL     1       1.296  -0.408   0.182  0.00  0.00    -0.004 A 
ATOM      4  S   UNL     1       2.412   0.950  -0.071  0.00  0.00    -0.077 S 
ATOM      5  C   UNL     1       1.268   2.246  -0.149  0.00  0.00    +0.084 A 
ATOM      6  C   UNL     1       1.235  -1.900   0.371  0.00  0.00    +0.043 C 
ATOM      7  C   UNL     1      -0.238  -2.269   0.088  0.00  0.00    +0.010 C 
ATOM      8  C   UNL     1      -0.962  -0.950   0.426  0.00  0.00    +0.037 C 
ENDROOT
BRANCH   1  10
ATOM      9  N   UNL     1      -1.868   2.548  -1.142  0.00  0.00    -0.281 N 
ATOM     10  C   UNL     1      -1.208   2.351   0.016  0.00  0.00    +0.251 C 
ATOM     11  O   UNL     1      -1.659   2.793   1.056  0.00  0.00    -0.270 OA
ATOM     12  H   UNL     1      -1.419   2.226  -2.093  0.00  0.00    +0.155 HD
BRANCH   9  18
ATOM     13  C   UNL     1      -3.992   2.962  -0.070  0.00  0.00    +0.025 A 
ATOM     14  C   UNL     1      -5.230   3.575  -0.063  0.00  0.00    +0.022 A 
ATOM     15  C   UNL     1      -5.611   4.380  -1.122  0.00  0.00    +0.041 A 
ATOM     16  C   UNL     1      -4.750   4.580  -2.187  0.00  0.00    +0.022 A 
ATOM     17  C   UNL     1      -3.509   3.974  -2.196  0.00  0.00    +0.025 A 
ATOM     18  C   UNL     1      -3.125   3.164  -1.135  0.00  0.00    +0.034 A 
ATOM     19 CL   UNL     1      -7.170   5.143  -1.114  0.00  0.00    -0.084 Cl
ENDBRANCH   9  18
ENDBRANCH   1  10
BRANCH   5  20
ATOM     20  N   UNL     1       1.509   3.598  -0.337  0.00  0.00    -0.279 N 
ATOM     21  C   UNL     1       2.772   4.043  -0.487  0.00  0.00    +0.222 C 
ATOM     22  O   UNL     1       3.698   3.260  -0.458  0.00  0.00    -0.275 OA
ATOM     23  H   UNL     1       0.669   4.308  -0.364  0.00  0.00    +0.155 HD
BRANCH  21  24
ATOM     24  C   UNL     1       3.034   5.513  -0.692  0.00  0.00    +0.093 C 
ATOM     25  C   UNL     1       2.508   6.301   0.509  0.00  0.00    +0.040 C 
ATOM     26  C   UNL     1       2.992   7.721   0.448  0.00  0.00    -0.030 C 
ATOM     27  C   UNL     1       3.978   8.119  -0.289  0.00  0.00    -0.030 C 
ATOM     28  C   UNL     1       4.770   7.220  -1.192  0.00  0.00    +0.042 C 
ATOM     29  C   UNL     1       4.544   5.756  -0.808  0.00  0.00    +0.118 C 
BRANCH  29  30
ATOM     30  C   UNL     1       5.122   4.859  -1.872  0.00  0.00    +0.360 C 
ATOM     31  O   UNL     1       4.402   4.100  -2.478  0.00  0.00    -0.246 OA
ATOM     32  O   UNL     1       6.435   4.902  -2.147  0.00  0.00    -0.246 OA
ENDBRANCH  29  30
ENDBRANCH  21  24
ENDBRANCH   5  20
TORSDOF 5
