REMARK  Name = ZINC21786744
REMARK  4 active torsions:
REMARK  status: ('A' for Active; 'I' for Inactive)
REMARK    1  A    between atoms: C_3  and  C_8
REMARK    2  A    between atoms: N_10  and  C_11
REMARK    3  A    between atoms: C_14  and  N_21
REMARK    4  A    between atoms: C_15  and  C_17
REMARK                            x       y       z     vdW  Elec       q    Type
REMARK                         _______ _______ _______ _____ _____    ______ ____
ROOT
ATOM      1  C   UNL     1       0.042  -2.773  -0.018  0.00  0.00    +0.034 A 
ATOM      2  C   UNL     1       1.222  -2.064  -0.206  0.00  0.00    +0.025 A 
ATOM      3  C   UNL     1       1.206  -0.684  -0.204  0.00  0.00    +0.025 A 
ATOM      4  C   UNL     1       0.009  -0.004  -0.014  0.00  0.00    +0.036 A 
ATOM      5  C   UNL     1      -1.169  -0.713   0.179  0.00  0.00    +0.077 A 
ATOM      6  C   UNL     1      -1.154  -2.093   0.171  0.00  0.00    +0.037 A 
ENDROOT
BRANCH   1   9
ATOM      7  C   UNL     1       1.130  -4.836   0.459  0.00  0.00    +0.248 C 
ATOM      8  O   UNL     1       2.041  -4.222   0.981  0.00  0.00    -0.270 OA
ATOM      9  N   UNL     1       0.059  -4.174  -0.020  0.00  0.00    -0.281 N 
ATOM     10  H   UNL     1      -0.803  -4.733  -0.413  0.00  0.00    +0.155 HD
BRANCH   7  13
ATOM     11  C   UNL     1       2.365  -8.372   0.742  0.00  0.00    +0.002 A 
ATOM     12  C   UNL     1       2.307  -6.997   0.846  0.00  0.00    +0.013 A 
ATOM     13  C   UNL     1       1.199  -6.308   0.350  0.00  0.00    +0.038 A 
ATOM     14  C   UNL     1       0.152  -7.017  -0.243  0.00  0.00    +0.028 A 
ATOM     15  C   UNL     1       0.225  -8.391  -0.346  0.00  0.00    +0.019 A 
ATOM     16  C   UNL     1       1.328  -9.068   0.147  0.00  0.00    +0.015 A 
ATOM     17 BR   UNL     1      -1.187  -9.353  -1.156  0.00  0.00    -0.050 Br
ENDBRANCH   7  13
ENDBRANCH   1   9
BRANCH   5  18
ATOM     18  C   UNL     1      -2.466   0.025   0.391  0.00  0.00    +0.419 C 
ATOM     19  F   UNL     1      -3.505  -0.896   0.561  0.00  0.00    -0.166 F 
ATOM     20  F   UNL     1      -2.364   0.829   1.531  0.00  0.00    -0.166 F 
ATOM     21  F   UNL     1      -2.733   0.828  -0.723  0.00  0.00    -0.166 F 
ENDBRANCH   5  18
BRANCH   4  22
ATOM     22  N   UNL     1      -0.007   1.395  -0.012  0.00  0.00    -0.358 N 
ATOM     23  H   UNL     1      -0.954   1.934   0.138  0.00  0.00    +0.142 HD
ATOM     24  H   UNL     1       0.927   1.956  -0.161  0.00  0.00    +0.142 HD
ENDBRANCH   4  22
TORSDOF 4
