REMARK  Name = ZINC45605858
REMARK  8 active torsions:
REMARK  status: ('A' for Active; 'I' for Inactive)
REMARK    1  A    between atoms: C_1  and  C_2
REMARK    2  A    between atoms: C_2  and  C_4
REMARK    3  A    between atoms: C_2  and  N_13
REMARK    4  A    between atoms: N_9  and  C_10
REMARK    5  A    between atoms: N_16  and  C_19
REMARK    6  A    between atoms: C_19  and  C_20
REMARK    7  A    between atoms: N_22  and  C_23
REMARK    8  A    between atoms: C_27  and  C_29
REMARK                            x       y       z     vdW  Elec       q    Type
REMARK                         _______ _______ _______ _____ _____    ______ ____
ROOT
ATOM      1  N   UNL     1      -1.529  -0.216   0.874  0.00  0.00    -0.295 NA
ATOM      2  C   UNL     1      -1.300  -1.663   0.762  0.00  0.00    +0.066 C 
ATOM      3  C   UNL     1      -2.634  -2.400   0.906  0.00  0.00    -0.063 C 
ATOM      4  N   UNL     1      -3.557  -1.950  -0.144  0.00  0.00    +0.387 N 
ATOM      5  C   UNL     1      -3.795  -0.508  -0.004  0.00  0.00    -0.063 C 
ATOM      6  C   UNL     1      -2.471   0.245  -0.155  0.00  0.00    +0.066 C 
ATOM      7  H   UNL     1      -3.154  -2.139  -1.050  0.00  0.00    -0.081 HD
ENDROOT
BRANCH   1   9
ATOM      8  C   UNL     1       0.220   0.561  -0.654  0.00  0.00    +0.034 C 
ATOM      9  C   UNL     1      -0.263   0.525   0.798  0.00  0.00    +0.140 C 
BRANCH   9  10
ATOM     10  C   UNL     1      -0.473   1.932   1.292  0.00  0.00    +0.237 C 
ATOM     11  O   UNL     1      -1.597   2.370   1.414  0.00  0.00    -0.274 OA
ATOM     12  N   UNL     1       0.588   2.704   1.600  0.00  0.00    -0.239 N 
ATOM     13  C   UNL     1       0.399   3.964   2.042  0.00  0.00    +0.306 C 
ATOM     14  O   UNL     1      -0.728   4.403   2.164  0.00  0.00    -0.252 OA
ATOM     15  N   UNL     1       1.460   4.736   2.350  0.00  0.00    -0.296 N 
ATOM     16  H   UNL     1       1.487   2.354   1.503  0.00  0.00    +0.159 HD
ATOM     17  H   UNL     1       2.360   4.385   2.253  0.00  0.00    +0.151 HD
BRANCH  15  18
ATOM     18  C   UNL     1       1.255   6.104   2.831  0.00  0.00    +0.075 C 
ATOM     19  C   UNL     1       2.156   7.198   2.254  0.00  0.00    +0.024 C 
ATOM     20  C   UNL     1       2.357   6.722   3.694  0.00  0.00    +0.024 C 
ENDBRANCH  15  18
ENDBRANCH   9  10
ENDBRANCH   1   9
BRANCH   4  21
ATOM     21  C   UNL     1      -4.831  -2.671  -0.017  0.00  0.00    +0.019 C 
BRANCH  21  22
ATOM     22  C   UNL     1      -5.735  -2.301  -1.165  0.00  0.00    +0.201 C 
ATOM     23  O   UNL     1      -5.355  -1.515  -2.006  0.00  0.00    -0.278 OA
ATOM     24  N   UNL     1      -6.965  -2.844  -1.256  0.00  0.00    -0.287 N 
ATOM     25  H   UNL     1      -7.297  -3.415  -0.546  0.00  0.00    +0.155 HD
BRANCH  24  26
ATOM     26  C   UNL     1      -7.762  -2.585  -2.377  0.00  0.00    +0.034 A 
ATOM     27  C   UNL     1      -7.175  -2.407  -3.623  0.00  0.00    +0.025 A 
ATOM     28  C   UNL     1      -7.964  -2.151  -4.727  0.00  0.00    +0.022 A 
ATOM     29  C   UNL     1      -9.339  -2.073  -4.593  0.00  0.00    +0.053 A 
ATOM     30  C   UNL     1      -9.927  -2.250  -3.353  0.00  0.00    +0.075 A 
ATOM     31  C   UNL     1      -9.143  -2.512  -2.246  0.00  0.00    +0.037 A 
ATOM     32 CL   UNL     1     -10.329  -1.750  -5.982  0.00  0.00    -0.083 Cl
BRANCH  30  33
ATOM     33  C   UNL     1     -11.425  -2.164  -3.210  0.00  0.00    +0.419 C 
ATOM     34  F   UNL     1     -11.779  -2.376  -1.873  0.00  0.00    -0.166 F 
ATOM     35  F   UNL     1     -11.859  -0.896  -3.612  0.00  0.00    -0.166 F 
ATOM     36  F   UNL     1     -12.027  -3.139  -4.012  0.00  0.00    -0.166 F 
ENDBRANCH  30  33
ENDBRANCH  24  26
ENDBRANCH  21  22
ENDBRANCH   4  21
TORSDOF 7
