REMARK  Name = ZINC32967237
REMARK  9 active torsions:
REMARK  status: ('A' for Active; 'I' for Inactive)
REMARK    1  A    between atoms: C_1  and  N_2
REMARK    2  A    between atoms: N_2  and  C_3
REMARK    3  A    between atoms: N_2  and  S_10
REMARK    4  A    between atoms: S_10  and  C_13
REMARK    5  A    between atoms: C_17  and  C_19
REMARK    6  A    between atoms: N_21  and  C_22
REMARK    7  A    between atoms: C_22  and  C_23
REMARK    8  A    between atoms: C_23  and  C_25
REMARK    9  A    between atoms: C_23  and  N_30
REMARK                            x       y       z     vdW  Elec       q    Type
REMARK                         _______ _______ _______ _____ _____    ______ ____
ROOT
ATOM      1  C   UNL     1       0.883  -1.759  -2.975  0.00  0.00    +0.110 A 
ATOM      2  C   UNL     1       1.582  -1.357  -4.101  0.00  0.00    +0.030 A 
ATOM      3  C   UNL     1       2.783  -1.959  -4.429  0.00  0.00    +0.022 A 
ATOM      4  C   UNL     1       3.293  -2.967  -3.633  0.00  0.00    +0.053 A 
ATOM      5  C   UNL     1       2.593  -3.376  -2.496  0.00  0.00    +0.057 A 
ATOM      6  C   UNL     1       1.384  -2.759  -2.169  0.00  0.00    +0.043 A 
ATOM      7 CL   UNL     1       4.800  -3.723  -4.046  0.00  0.00    -0.083 Cl
ENDROOT
BRANCH   5   8
ATOM      8  C   UNL     1       3.132  -4.454  -1.640  0.00  0.00    +0.246 C 
ATOM      9  O   UNL     1       4.187  -4.986  -1.925  0.00  0.00    -0.270 OA
ATOM     10  N   UNL     1       2.453  -4.846  -0.544  0.00  0.00    -0.312 N 
ATOM     11  H   UNL     1       1.611  -4.421  -0.317  0.00  0.00    +0.149 HD
BRANCH  10  12
ATOM     12  C   UNL     1       2.987  -5.914   0.305  0.00  0.00    +0.097 C 
BRANCH  12  13
ATOM     13  C   UNL     1       2.094  -6.083   1.536  0.00  0.00    +0.016 C 
BRANCH  13  14
ATOM     14  N   UNL     1       0.716  -6.354   1.107  0.00  0.00    +0.387 N 
ATOM     15  C   UNL     1      -0.124  -6.593   2.287  0.00  0.00    -0.078 C 
ATOM     16  C   UNL     1      -1.577  -6.796   1.851  0.00  0.00    -0.019 C 
ATOM     17  C   UNL     1      -1.658  -8.002   0.911  0.00  0.00    -0.004 C 
ATOM     18  C   UNL     1      -0.722  -7.774  -0.279  0.00  0.00    -0.019 C 
ATOM     19  C   UNL     1       0.699  -7.535   0.236  0.00  0.00    -0.078 C 
ATOM     20  H   UNL     1       0.360  -5.558   0.599  0.00  0.00    -0.081 HD
ENDBRANCH  13  14
BRANCH  13  21
ATOM     21  C   UNL     1       2.597  -7.234   2.368  0.00  0.00    +0.093 A 
ATOM     22  C   UNL     1       3.190  -7.135   3.571  0.00  0.00    +0.043 A 
ATOM     23  C   UNL     1       3.497  -8.452   3.985  0.00  0.00    +0.041 A 
ATOM     24  C   UNL     1       3.074  -9.276   3.010  0.00  0.00    +0.195 A 
ATOM     25  O   UNL     1       2.525  -8.534   2.035  0.00  0.00    -0.469 OA
ENDBRANCH  13  21
ENDBRANCH  12  13
ENDBRANCH  10  12
ENDBRANCH   5   8
BRANCH   1  26
ATOM     26  S   UNL     1      -0.646  -0.984  -2.568  0.00  0.00    +0.074 S 
ATOM     27  O   UNL     1      -1.298  -1.837  -1.637  0.00  0.00    -0.150 OA
ATOM     28  O   UNL     1      -1.246  -0.598  -3.797  0.00  0.00    -0.150 OA
BRANCH  26  30
ATOM     29  C   UNL     1      -0.150   1.673  -2.494  0.00  0.00    +0.157 C 
ATOM     30  N   UNL     1      -0.286   0.414  -1.757  0.00  0.00    -0.206 N 
BRANCH  30  31
ATOM     31  C   UNL     1      -0.113   0.393  -0.370  0.00  0.00    +0.051 A 
ATOM     32  C   UNL     1       0.318  -0.767   0.260  0.00  0.00    +0.027 A 
ATOM     33  C   UNL     1       0.489  -0.786   1.630  0.00  0.00    +0.040 A 
ATOM     34  C   UNL     1       0.232   0.352   2.376  0.00  0.00    +0.124 A 
ATOM     35  C   UNL     1      -0.197   1.510   1.750  0.00  0.00    +0.040 A 
ATOM     36  C   UNL     1      -0.365   1.535   0.380  0.00  0.00    +0.027 A 
ATOM     37  F   UNL     1       0.400   0.332   3.716  0.00  0.00    -0.205 F 
ENDBRANCH  30  31
ENDBRANCH  26  30
ENDBRANCH   1  26
TORSDOF 8
