REMARK  Name = ZINC20292900
REMARK  9 active torsions:
REMARK  status: ('A' for Active; 'I' for Inactive)
REMARK    1  A    between atoms: C_1  and  C_2
REMARK    2  A    between atoms: C_4  and  S_8
REMARK    3  A    between atoms: S_8  and  C_9
REMARK    4  A    between atoms: C_9  and  C_28
REMARK    5  A    between atoms: C_10  and  C_11
REMARK    6  A    between atoms: C_14  and  O_17
REMARK    7  A    between atoms: O_17  and  C_18
REMARK    8  A    between atoms: C_18  and  C_19
REMARK    9  A    between atoms: C_22  and  C_25
REMARK                            x       y       z     vdW  Elec       q    Type
REMARK                         _______ _______ _______ _____ _____    ______ ____
ROOT
ATOM      1  C   UNL     1      -0.619  -0.720  -4.648  0.00  0.00    -0.024 A 
ATOM      2  C   UNL     1      -0.907  -1.573  -5.721  0.00  0.00    +0.011 A 
ATOM      3  C   UNL     1      -1.305  -1.045  -6.928  0.00  0.00    +0.046 A 
ATOM      4  C   UNL     1      -1.419   0.331  -7.085  0.00  0.00    +0.121 A 
ATOM      5  C   UNL     1      -1.133   1.183  -6.024  0.00  0.00    +0.046 A 
ATOM      6  C   UNL     1      -0.742   0.666  -4.809  0.00  0.00    +0.011 A 
ENDROOT
BRANCH   1   8
ATOM      7  C   UNL     1       0.735  -2.265  -3.317  0.00  0.00    +0.104 C 
ATOM      8  C   UNL     1      -0.194  -1.277  -3.357  0.00  0.00    +0.030 C 
BRANCH   7   9
ATOM      9  C   UNL     1       1.517  -2.584  -4.513  0.00  0.00    +0.393 C 
ATOM     10  O   UNL     1       1.429  -1.877  -5.509  0.00  0.00    -0.240 OA
ATOM     11  O   UNL     1       2.259  -3.559  -4.518  0.00  0.00    -0.240 OA
ENDBRANCH   7   9
BRANCH   7  12
ATOM     12  S   UNL     1       1.000  -3.166  -1.826  0.00  0.00    -0.043 S 
BRANCH  12  16
ATOM     13  C   UNL     1       5.931  -1.355  -2.030  0.00  0.00    +0.090 C 
ATOM     14  C   UNL     1       4.704  -2.061  -1.512  0.00  0.00    +0.149 A 
ATOM     15  N   UNL     1       3.528  -2.124  -2.136  0.00  0.00    -0.206 NA
ATOM     16  C   UNL     1       2.676  -2.816  -1.409  0.00  0.00    +0.189 A 
ATOM     17  N   UNL     1       3.316  -3.212  -0.287  0.00  0.00    -0.253 N 
ATOM     18  H   UNL     1       2.946  -3.738   0.439  0.00  0.00    +0.191 HD
ATOM     19  N   UNL     1       4.626  -2.714  -0.384  0.00  0.00    -0.157 NA
ENDBRANCH  12  16
ENDBRANCH   7  12
ENDBRANCH   1   8
BRANCH   4  20
ATOM     20  O   UNL     1      -1.811   0.846  -8.278  0.00  0.00    -0.487 OA
BRANCH  20  21
ATOM     21  C   UNL     1      -1.908   2.269  -8.371  0.00  0.00    +0.264 C 
BRANCH  21  22
ATOM     22  C   UNL     1      -2.354   2.653  -9.758  0.00  0.00    -0.010 A 
ATOM     23  C   UNL     1      -1.411   2.878 -10.746  0.00  0.00    +0.008 A 
ATOM     24  C   UNL     1      -1.811   3.231 -12.018  0.00  0.00    +0.015 A 
ATOM     25  C   UNL     1      -3.172   3.359 -12.308  0.00  0.00    +0.063 A 
ATOM     26  C   UNL     1      -4.118   3.130 -11.306  0.00  0.00    +0.015 A 
ATOM     27  C   UNL     1      -3.703   2.773 -10.040  0.00  0.00    +0.008 A 
BRANCH  25  28
ATOM     28  C   UNL     1      -3.608   3.736 -13.666  0.00  0.00    +0.387 C 
ATOM     29  O   UNL     1      -2.777   3.937 -14.541  0.00  0.00    -0.241 OA
ATOM     30  O   UNL     1      -4.800   3.848 -13.917  0.00  0.00    -0.241 OA
ENDBRANCH  25  28
ENDBRANCH  21  22
ENDBRANCH  20  21
ENDBRANCH   4  20
TORSDOF 8
