REMARK  Name = ZINC13266919
REMARK  9 active torsions:
REMARK  status: ('A' for Active; 'I' for Inactive)
REMARK    1  A    between atoms: C_1  and  N_2
REMARK    2  A    between atoms: C_3  and  C_22
REMARK    3  A    between atoms: C_6  and  S_7
REMARK    4  A    between atoms: S_7  and  C_8
REMARK    5  A    between atoms: C_8  and  C_9
REMARK    6  A    between atoms: N_11  and  C_12
REMARK    7  A    between atoms: C_14  and  C_20
REMARK    8  A    between atoms: C_16  and  C_18
REMARK    9  A    between atoms: C_22  and  C_23
REMARK                            x       y       z     vdW  Elec       q    Type
REMARK                         _______ _______ _______ _____ _____    ______ ____
ROOT
ATOM      1  C   UNL     1       2.747   6.057   7.214  0.00  0.00    +0.227 C 
ATOM      2  O   UNL     1       3.957   6.061   7.299  0.00  0.00    -0.275 OA
ATOM      3  N   UNL     1       1.995   6.375   8.287  0.00  0.00    -0.285 N 
ATOM      4  H   UNL     1       1.032   6.446   8.200  0.00  0.00    +0.155 HD
ENDROOT
BRANCH   3   5
ATOM      5  C   UNL     1       2.605   6.603   9.526  0.00  0.00    +0.035 A 
ATOM      6  C   UNL     1       3.742   5.891   9.879  0.00  0.00    +0.038 A 
ATOM      7  C   UNL     1       4.356   6.120  11.112  0.00  0.00    +0.066 A 
ATOM      8  C   UNL     1       3.819   7.057  11.993  0.00  0.00    +0.030 A 
ATOM      9  C   UNL     1       2.673   7.766  11.637  0.00  0.00    +0.066 A 
ATOM     10  C   UNL     1       2.067   7.536  10.400  0.00  0.00    +0.038 A 
BRANCH   9  11
ATOM     11  C   UNL     1       2.100   8.761  12.568  0.00  0.00    +0.387 C 
ATOM     12  O   UNL     1       1.102   9.379  12.257  0.00  0.00    -0.241 OA
ATOM     13  O   UNL     1       2.685   8.983  13.761  0.00  0.00    -0.241 OA
ENDBRANCH   9  11
BRANCH   7  14
ATOM     14  C   UNL     1       5.570   5.365  11.485  0.00  0.00    +0.387 C 
ATOM     15  O   UNL     1       6.038   4.549  10.717  0.00  0.00    -0.241 OA
ATOM     16  O   UNL     1       6.159   5.583  12.677  0.00  0.00    -0.241 OA
ENDBRANCH   7  14
ENDBRANCH   3   5
BRANCH   1  17
ATOM     17  C   UNL     1       2.084   5.695   5.910  0.00  0.00    +0.173 C 
BRANCH  17  18
ATOM     18  S   UNL     1       3.351   5.322   4.673  0.00  0.00    -0.077 S 
BRANCH  18  24
ATOM     19  C   UNL     1       4.131   4.428   1.586  0.00  0.00    +0.152 C 
ATOM     20  N   UNL     1       2.747   4.581   2.043  0.00  0.00    -0.309 N 
ATOM     21  C   UNL     1       1.609   4.389   1.309  0.00  0.00    +0.139 A 
ATOM     22  N   UNL     1       0.597   4.635   2.092  0.00  0.00    -0.133 NA
ATOM     23  N   UNL     1       1.014   4.957   3.264  0.00  0.00    -0.122 NA
ATOM     24  C   UNL     1       2.327   4.943   3.290  0.00  0.00    +0.192 A 
BRANCH  21  25
ATOM     25  C   UNL     1       1.539   3.977  -0.139  0.00  0.00    +0.118 C 
BRANCH  25  26
ATOM     26  C   UNL     1       1.494   2.473  -0.231  0.00  0.00    -0.003 A 
ATOM     27  C   UNL     1       0.417   1.651  -0.241  0.00  0.00    +0.011 A 
ATOM     28  C   UNL     1       0.616   0.286  -0.334  0.00  0.00    +0.008 A 
ATOM     29  C   UNL     1       1.883  -0.189  -0.414  0.00  0.00    +0.045 A 
ATOM     30  S   UNL     1       2.845   1.314  -0.357  0.00  0.00    -0.101 S 
ENDBRANCH  25  26
ENDBRANCH  21  25
ENDBRANCH  18  24
ENDBRANCH  17  18
ENDBRANCH   1  17
TORSDOF 8
