REMARK  Name = ZINC08919921
REMARK  8 active torsions:
REMARK  status: ('A' for Active; 'I' for Inactive)
REMARK    1  A    between atoms: C_1  and  C_2
REMARK    2  A    between atoms: C_2  and  C_3
REMARK    3  A    between atoms: C_2  and  C_4
REMARK    4  A    between atoms: C_2  and  C_5
REMARK    5  A    between atoms: N_16  and  C_19
REMARK    6  A    between atoms: C_19  and  C_20
REMARK    7  A    between atoms: N_22  and  C_23
REMARK    8  A    between atoms: C_24  and  C_32
REMARK                            x       y       z     vdW  Elec       q    Type
REMARK                         _______ _______ _______ _____ _____    ______ ____
ROOT
ATOM      1  C   UNL     1      -8.072   7.546  -8.748  0.00  0.00    -0.000 C 
ATOM      2  C   UNL     1      -8.240   8.280  -7.414  0.00  0.00    +0.009 C 
ATOM      3  C   UNL     1      -7.049   7.981  -6.503  0.00  0.00    +0.037 C 
ATOM      4  C   UNL     1      -5.760   8.283  -7.262  0.00  0.00    -0.023 A 
ATOM      5  C   UNL     1      -5.758   8.373  -8.609  0.00  0.00    -0.004 A 
ATOM      6  S   UNL     1      -4.078   8.731  -9.043  0.00  0.00    -0.073 S 
ATOM      7  C   UNL     1      -3.381   8.759  -7.411  0.00  0.00    +0.116 A 
ATOM      8  C   UNL     1      -4.482   8.487  -6.582  0.00  0.00    +0.076 A 
ATOM      9  C   UNL     1      -4.205   8.447  -5.176  0.00  0.00    +0.263 A 
ATOM     10  O   UNL     1      -5.095   8.219  -4.376  0.00  0.00    -0.267 OA
ATOM     11  N   UNL     1      -2.945   8.666  -4.755  0.00  0.00    -0.290 N 
ATOM     12  C   UNL     1      -1.942   8.928  -5.633  0.00  0.00    +0.203 A 
ATOM     13  N   UNL     1      -2.163   8.965  -6.920  0.00  0.00    -0.230 NA
ATOM     14  C   UNL     1      -6.927   8.204  -9.531  0.00  0.00    +0.046 C 
ENDROOT
BRANCH   1  16
ATOM     15  C   UNL     1      -9.693   9.116  -9.821  0.00  0.00    +0.011 C 
ATOM     16  C   UNL     1      -9.368   7.644  -9.554  0.00  0.00    -0.035 C 
ATOM     17  C   UNL     1      -9.198   6.910 -10.885  0.00  0.00    +0.011 C 
ATOM     18  C   UNL     1     -10.511   7.005  -8.762  0.00  0.00    +0.011 C 
ENDBRANCH   1  16
BRANCH  11  19
ATOM     19  C   UNL     1      -2.651   8.627  -3.321  0.00  0.00    +0.222 C 
BRANCH  19  20
ATOM     20  C   UNL     1      -2.277   7.223  -2.922  0.00  0.00    +0.238 C 
ATOM     21  O   UNL     1      -2.258   6.341  -3.755  0.00  0.00    -0.273 OA
ATOM     22  N   UNL     1      -1.964   6.947  -1.641  0.00  0.00    -0.277 N 
ATOM     23  H   UNL     1      -1.980   7.652  -0.975  0.00  0.00    +0.155 HD
BRANCH  22  24
ATOM     24  C   UNL     1      -1.620   5.653  -1.274  0.00  0.00    +0.090 A 
ATOM     25  C   UNL     1      -1.270   5.177  -0.019  0.00  0.00    +0.084 A 
ATOM     26  C   UNL     1      -0.951   3.765   0.100  0.00  0.00    -0.018 A 
ATOM     27  C   UNL     1      -1.032   3.059  -1.049  0.00  0.00    -0.004 A 
ATOM     28  S   UNL     1      -1.523   4.240  -2.273  0.00  0.00    -0.077 S 
ATOM     29  C   UNL     1      -0.761   1.597  -1.232  0.00  0.00    +0.043 C 
ATOM     30  C   UNL     1      -0.013   1.086   0.008  0.00  0.00    +0.005 C 
ATOM     31  C   UNL     1      -0.735   1.583   1.264  0.00  0.00    +0.005 C 
ATOM     32  C   UNL     1      -0.551   3.094   1.408  0.00  0.00    +0.037 C 
BRANCH  25  33
ATOM     33  C   UNL     1      -1.226   6.047   1.118  0.00  0.00    +0.102 C 
ATOM     34  N   UNL     1      -1.191   6.736   2.020  0.00  0.00    -0.191 NA
ENDBRANCH  25  33
ENDBRANCH  22  24
ENDBRANCH  19  20
ENDBRANCH  11  19
TORSDOF 5
