REMARK  Name = ZINC15906746
REMARK  17 active torsions:
REMARK  status: ('A' for Active; 'I' for Inactive)
REMARK    1  A    between atoms: C_1  and  C_2
REMARK    2  A    between atoms: C_2  and  O_3
REMARK    3  A    between atoms: O_3  and  C_4
REMARK    4  A    between atoms: C_4  and  C_6
REMARK    5  A    between atoms: N_7  and  N_8
REMARK    6  A    between atoms: N_8  and  C_9
REMARK    7  A    between atoms: C_13  and  C_15
REMARK    8  A    between atoms: N_19  and  C_20
REMARK    9  A    between atoms: N_19  and  C_25
REMARK   10  A    between atoms: C_20  and  C_21
REMARK   11  A    between atoms: C_21  and  C_22
REMARK   12  A    between atoms: C_22  and  C_23
REMARK   13  A    between atoms: C_22  and  C_24
REMARK   14  A    between atoms: C_25  and  C_26
REMARK   15  A    between atoms: C_26  and  C_27
REMARK   16  A    between atoms: C_27  and  C_28
REMARK   17  A    between atoms: C_27  and  C_29
REMARK                            x       y       z     vdW  Elec       q    Type
REMARK                         _______ _______ _______ _____ _____    ______ ____
ROOT
ATOM      1  C   UNL     1       1.114   7.264   0.129  0.00  0.00    +0.224 C 
ATOM      2  N   UNL     1      -0.028   7.898   0.154  0.00  0.00    -0.160 NA
ATOM      3  N   UNL     1       2.314   7.983   0.095  0.00  0.00    -0.308 N 
ENDROOT
BRANCH   1   4
ATOM      4  C   UNL     1       1.137   5.796   0.135  0.00  0.00    +0.374 C 
ATOM      5  O   UNL     1       0.538   5.175  -0.721  0.00  0.00    -0.242 OA
BRANCH   4   6
ATOM      6  O   UNL     1       1.825   5.137   1.091  0.00  0.00    -0.459 OA
BRANCH   6   8
ATOM      7  C   UNL     1       2.632   3.143   2.191  0.00  0.00    +0.048 C 
ATOM      8  C   UNL     1       1.804   3.709   1.036  0.00  0.00    +0.229 C 
ENDBRANCH   6   8
ENDBRANCH   4   6
ENDBRANCH   1   4
BRANCH   2   9
ATOM      9  N   UNL     1      -1.223   7.184   0.305  0.00  0.00    -0.236 N 
ATOM     10  H   UNL     1      -1.210   6.214   0.320  0.00  0.00    +0.174 HD
BRANCH   9  11
ATOM     11  C   UNL     1      -2.433   7.867   0.435  0.00  0.00    +0.049 A 
ATOM     12  C   UNL     1      -2.453   9.257   0.413  0.00  0.00    +0.025 A 
ATOM     13  C   UNL     1      -3.652   9.930   0.542  0.00  0.00    +0.002 A 
ATOM     14  C   UNL     1      -4.831   9.223   0.692  0.00  0.00    +0.012 A 
ATOM     15  C   UNL     1      -4.814   7.841   0.719  0.00  0.00    +0.057 A 
ATOM     16  C   UNL     1      -3.620   7.160   0.585  0.00  0.00    +0.037 A 
BRANCH  15  17
ATOM     17  C   UNL     1      -6.101   7.075   0.888  0.00  0.00    +0.417 C 
ATOM     18  F   UNL     1      -7.168   7.974   0.996  0.00  0.00    -0.166 F 
ATOM     19  F   UNL     1      -6.300   6.247  -0.222  0.00  0.00    -0.166 F 
ATOM     20  F   UNL     1      -6.030   6.294   2.046  0.00  0.00    -0.166 F 
ENDBRANCH  15  17
ENDBRANCH   9  11
ENDBRANCH   2   9
BRANCH   3  21
ATOM     21  C   UNL     1       2.296   9.443   0.211  0.00  0.00    +0.107 C 
BRANCH  21  22
ATOM     22  C   UNL     1       2.520   9.841   1.672  0.00  0.00    +0.022 C 
BRANCH  22  23
ATOM     23  C   UNL     1       2.501  11.366   1.793  0.00  0.00    -0.016 C 
ATOM     24  C   UNL     1       2.599  11.762   3.268  0.00  0.00    +0.007 C 
ATOM     25  C   UNL     1       3.689  11.953   1.028  0.00  0.00    +0.007 C 
ENDBRANCH  22  23
ENDBRANCH  21  22
ENDBRANCH   3  21
BRANCH   3  26
ATOM     26  C   UNL     1       3.588   7.276  -0.056  0.00  0.00    +0.107 C 
BRANCH  26  27
ATOM     27  C   UNL     1       3.924   7.142  -1.543  0.00  0.00    +0.022 C 
BRANCH  27  28
ATOM     28  C   UNL     1       5.254   6.403  -1.701  0.00  0.00    -0.016 C 
ATOM     29  C   UNL     1       5.529   6.160  -3.186  0.00  0.00    +0.007 C 
ATOM     30  C   UNL     1       6.381   7.250  -1.106  0.00  0.00    +0.007 C 
ENDBRANCH  27  28
ENDBRANCH  26  27
ENDBRANCH   3  26
TORSDOF 12
