REMARK  Name = ZINC02802796
REMARK  4 active torsions:
REMARK  status: ('A' for Active; 'I' for Inactive)
REMARK    1  A    between atoms: C_1  and  N_2
REMARK    2  A    between atoms: C_9  and  C_14
REMARK    3  A    between atoms: C_19  and  C_32
REMARK    4  A    between atoms: C_22  and  C_25
REMARK                            x       y       z     vdW  Elec       q    Type
REMARK                         _______ _______ _______ _____ _____    ______ ____
ROOT
ATOM      1  C   UNL     1      -1.236   2.178  -3.227  0.00  0.00    +0.133 A 
ATOM      2  C   UNL     1      -2.361   2.383  -2.401  0.00  0.00    +0.076 A 
ATOM      3  C   UNL     1      -2.024   2.004  -1.151  0.00  0.00    +0.119 A 
ATOM      4  N   UNL     1      -0.726   1.574  -1.176  0.00  0.00    -0.238 N 
ATOM      5  N   UNL     1      -0.262   1.692  -2.482  0.00  0.00    -0.166 NA
ATOM      6  C   UNL     1      -0.013   1.086   0.008  0.00  0.00    +0.215 C 
ATOM      7  C   UNL     1      -0.735   1.583   1.265  0.00  0.00    +0.063 C 
ATOM      8  C   UNL     1      -2.232   1.271   1.165  0.00  0.00    +0.104 C 
ATOM      9  N   UNL     1      -2.791   2.013   0.017  0.00  0.00    -0.322 N 
ATOM     10  H   UNL     1      -3.756   2.530   0.114  0.00  0.00    +0.148 HD
ENDROOT
BRANCH   1  19
ATOM     11  C   UNL     1       0.394   3.385 -11.512  0.00  0.00    +0.174 C 
ATOM     12  N   UNL     1       0.636   3.007 -10.117  0.00  0.00    -0.249 N 
ATOM     13  C   UNL     1      -0.264   3.095  -9.098  0.00  0.00    +0.163 A 
ATOM     14  C   UNL     1       0.389   2.629  -7.947  0.00  0.00    +0.083 A 
ATOM     15  C   UNL     1       1.694   2.269  -8.323  0.00  0.00    +0.148 A 
ATOM     16  N   UNL     1       1.833   2.494  -9.601  0.00  0.00    -0.177 NA
ATOM     17  C   UNL     1      -0.363   2.617  -6.692  0.00  0.00    +0.170 A 
ATOM     18  N   UNL     1      -0.087   2.267  -5.453  0.00  0.00    -0.205 NA
ATOM     19  C   UNL     1      -1.162   2.461  -4.682  0.00  0.00    +0.202 A 
ATOM     20  N   UNL     1      -2.143   2.948  -5.415  0.00  0.00    -0.142 NA
ATOM     21  N   UNL     1      -1.659   3.062  -6.725  0.00  0.00    -0.201 N 
ATOM     22  C   UNL     1      -2.201   3.494  -7.894  0.00  0.00    +0.227 A 
ATOM     23  N   UNL     1      -1.538   3.507  -9.013  0.00  0.00    -0.216 NA
ENDBRANCH   1  19
BRANCH   8  24
ATOM     24  C   UNL     1      -2.428  -0.209   0.954  0.00  0.00    -0.027 A 
ATOM     25  C   UNL     1      -2.272  -0.754  -0.306  0.00  0.00    +0.007 A 
ATOM     26  C   UNL     1      -2.446  -2.111  -0.499  0.00  0.00    +0.020 A 
ATOM     27  C   UNL     1      -2.787  -2.923   0.568  0.00  0.00    +0.041 A 
ATOM     28  C   UNL     1      -2.948  -2.376   1.829  0.00  0.00    +0.020 A 
ATOM     29  C   UNL     1      -2.769  -1.019   2.021  0.00  0.00    +0.007 A 
ATOM     30 CL   UNL     1      -3.013  -4.627   0.326  0.00  0.00    -0.084 Cl
ENDBRANCH   8  24
BRANCH   6  31
ATOM     31  C   UNL     1       1.422   1.618  -0.003  0.00  0.00    +0.412 C 
ATOM     32  F   UNL     1       2.099   1.155   1.131  0.00  0.00    -0.168 F 
ATOM     33  F   UNL     1       2.077   1.168  -1.154  0.00  0.00    -0.168 F 
ATOM     34  F   UNL     1       1.400   3.017   0.005  0.00  0.00    -0.168 F 
ENDBRANCH   6  31
TORSDOF 3
