REMARK  Name = ZINC10186202
REMARK  9 active torsions:
REMARK  status: ('A' for Active; 'I' for Inactive)
REMARK    1  A    between atoms: C_1  and  C_2
REMARK    2  A    between atoms: C_2  and  C_3
REMARK    3  A    between atoms: C_2  and  C_4
REMARK    4  A    between atoms: C_9  and  N_10
REMARK    5  A    between atoms: N_10  and  C_11
REMARK    6  A    between atoms: C_11  and  C_12
REMARK    7  A    between atoms: N_14  and  C_15
REMARK    8  A    between atoms: C_15  and  C_17
REMARK    9  A    between atoms: C_15  and  C_23
REMARK                            x       y       z     vdW  Elec       q    Type
REMARK                         _______ _______ _______ _____ _____    ______ ____
ROOT
ATOM      1  C   UNL     1      -0.000  -0.004   0.001  0.00  0.00    +0.231 C 
ATOM      2  O   UNL     1      -0.505  -0.622   0.914  0.00  0.00    -0.274 OA
ATOM      3  N   UNL     1       0.580  -0.665  -1.021  0.00  0.00    -0.303 N 
ATOM      4  H   UNL     1       0.984  -0.170  -1.751  0.00  0.00    +0.150 HD
ENDROOT
BRANCH   1   5
ATOM      5  C   UNL     1      -0.022   1.503   0.009  0.00  0.00    +0.197 C 
BRANCH   5   6
ATOM      6  N   UNL     1      -0.704   1.975   1.216  0.00  0.00    -0.335 N 
ATOM      7  H   UNL     1      -1.055   1.337   1.856  0.00  0.00    +0.147 HD
BRANCH   6  13
ATOM      8  C   UNL     1      -1.587   3.795   2.532  0.00  0.00    -0.024 A 
ATOM      9  C   UNL     1      -1.727   5.151   2.757  0.00  0.00    +0.006 A 
ATOM     10  C   UNL     1      -1.133   6.060   1.901  0.00  0.00    +0.000 A 
ATOM     11  C   UNL     1      -0.396   5.615   0.818  0.00  0.00    +0.002 A 
ATOM     12  C   UNL     1      -0.248   4.262   0.591  0.00  0.00    +0.023 A 
ATOM     13  C   UNL     1      -0.848   3.345   1.446  0.00  0.00    +0.031 A 
BRANCH   8  15
ATOM     14  C   UNL     1      -1.781   3.084   4.900  0.00  0.00    +0.012 C 
ATOM     15  C   UNL     1      -2.235   2.805   3.466  0.00  0.00    +0.015 C 
ATOM     16  C   UNL     1      -3.756   2.940   3.377  0.00  0.00    +0.012 C 
ENDBRANCH   8  15
ENDBRANCH   6  13
ENDBRANCH   5   6
ENDBRANCH   1   5
BRANCH   3  17
ATOM     17  C   UNL     1       0.601  -2.129  -1.028  0.00  0.00    +0.140 C 
BRANCH  17  18
ATOM     18  C   UNL     1       1.761  -2.611  -1.861  0.00  0.00    -0.022 A 
ATOM     19  C   UNL     1       2.076  -1.970  -3.044  0.00  0.00    +0.006 A 
ATOM     20  C   UNL     1       3.143  -2.409  -3.805  0.00  0.00    +0.000 A 
ATOM     21  C   UNL     1       3.889  -3.495  -3.388  0.00  0.00    +0.000 A 
ATOM     22  C   UNL     1       3.571  -4.139  -2.207  0.00  0.00    +0.000 A 
ATOM     23  C   UNL     1       2.507  -3.698  -1.444  0.00  0.00    +0.006 A 
ENDBRANCH  17  18
BRANCH  17  24
ATOM     24  C   UNL     1      -0.687  -2.647  -1.615  0.00  0.00    +0.014 A 
ATOM     25  C   UNL     1      -1.436  -3.708  -1.227  0.00  0.00    +0.013 A 
ATOM     26  C   UNL     1      -2.597  -3.998  -1.919  0.00  0.00    +0.008 A 
ATOM     27  C   UNL     1      -2.947  -3.219  -2.971  0.00  0.00    +0.045 A 
ATOM     28  S   UNL     1      -1.619  -2.027  -3.006  0.00  0.00    -0.099 S 
ENDBRANCH  17  24
ENDBRANCH   3  17
TORSDOF 7
