REMARK  Name = ZINC39970914
REMARK  8 active torsions:
REMARK  status: ('A' for Active; 'I' for Inactive)
REMARK    1  A    between atoms: C_1  and  C_2
REMARK    2  A    between atoms: C_5  and  C_34
REMARK    3  A    between atoms: N_8  and  S_10
REMARK    4  A    between atoms: S_10  and  C_13
REMARK    5  A    between atoms: C_16  and  N_19
REMARK    6  A    between atoms: N_19  and  C_20
REMARK    7  A    between atoms: C_20  and  N_22
REMARK    8  A    between atoms: N_25  and  C_28
REMARK                            x       y       z     vdW  Elec       q    Type
REMARK                         _______ _______ _______ _____ _____    ______ ____
ROOT
ATOM      1  C   UNL     1       2.613   2.438   2.022  0.00  0.00    +0.106 A 
ATOM      2  C   UNL     1       1.383   2.905   1.595  0.00  0.00    +0.030 A 
ATOM      3  C   UNL     1       1.197   4.253   1.362  0.00  0.00    +0.025 A 
ATOM      4  C   UNL     1       2.247   5.141   1.557  0.00  0.00    +0.033 A 
ATOM      5  C   UNL     1       3.481   4.669   1.986  0.00  0.00    +0.025 A 
ATOM      6  C   UNL     1       3.659   3.320   2.222  0.00  0.00    +0.030 A 
ENDROOT
BRANCH   1   7
ATOM      7  S   UNL     1       2.845   0.717   2.317  0.00  0.00    +0.061 S 
ATOM      8  O   UNL     1       4.239   0.468   2.191  0.00  0.00    -0.153 OA
ATOM      9  O   UNL     1       1.876   0.035   1.534  0.00  0.00    -0.153 OA
BRANCH   7  15
ATOM     10  C   UNL     1       2.873   2.900   5.458  0.00  0.00    +0.009 C 
ATOM     11  C   UNL     1       2.987   1.488   6.039  0.00  0.00    +0.002 C 
ATOM     12  C   UNL     1       1.615   1.028   6.537  0.00  0.00    +0.009 C 
ATOM     13  C   UNL     1       0.615   1.055   5.379  0.00  0.00    +0.002 C 
ATOM     14  C   UNL     1       1.081   0.088   4.285  0.00  0.00    +0.112 C 
ATOM     15  N   UNL     1       2.456   0.435   3.902  0.00  0.00    -0.176 NA
ATOM     16  C   UNL     1       3.481   0.527   4.952  0.00  0.00    +0.112 C 
ATOM     17  C   UNL     1      -0.764   0.627   5.886  0.00  0.00    +0.009 C 
ENDBRANCH   7  15
ENDBRANCH   1   7
BRANCH   4  18
ATOM     18  N   UNL     1       2.062   6.508   1.322  0.00  0.00    -0.297 N 
ATOM     19  H   UNL     1       2.756   7.022   0.881  0.00  0.00    +0.154 HD
BRANCH  18  20
ATOM     20  C   UNL     1       0.920   7.109   1.708  0.00  0.00    +0.137 C 
ATOM     21  S   UNL     1      -0.240   6.240   2.619  0.00  0.00    -0.018 S 
BRANCH  20  22
ATOM     22  N   UNL     1       0.690   8.396   1.376  0.00  0.00    -0.316 N 
ATOM     23  C   UNL     1       1.610   9.123   0.488  0.00  0.00    +0.088 C 
ATOM     24  C   UNL     1       0.789   9.783  -0.625  0.00  0.00    -0.059 C 
ATOM     25  N   UNL     1      -0.263  10.616  -0.028  0.00  0.00    +0.384 N 
ATOM     26  C   UNL     1      -1.209   9.772   0.713  0.00  0.00    -0.059 C 
ATOM     27  C   UNL     1      -0.490   9.109   1.887  0.00  0.00    +0.088 C 
ATOM     28  H   UNL     1       0.155  11.283   0.603  0.00  0.00    -0.081 HD
BRANCH  25  29
ATOM     29  C   UNL     1      -0.979  11.334  -1.091  0.00  0.00    -0.068 C 
ATOM     30  C   UNL     1       0.003  12.223  -1.857  0.00  0.00    -0.015 C 
ATOM     31  C   UNL     1      -0.742  12.971  -2.964  0.00  0.00    -0.002 C 
ATOM     32  C   UNL     1      -1.839  13.839  -2.344  0.00  0.00    -0.000 C 
ATOM     33  C   UNL     1      -2.821  12.950  -1.578  0.00  0.00    -0.002 C 
ATOM     34  C   UNL     1      -2.075  12.202  -0.471  0.00  0.00    -0.015 C 
ENDBRANCH  25  29
ENDBRANCH  20  22
ENDBRANCH  18  20
ENDBRANCH   4  18
TORSDOF 6
