REMARK  Name = ZINC57518701
REMARK  4 active torsions:
REMARK  status: ('A' for Active; 'I' for Inactive)
REMARK    1  A    between atoms: C_8  and  C_10
REMARK    2  A    between atoms: C_10  and  N_11
REMARK    3  A    between atoms: N_14  and  C_15
REMARK    4  A    between atoms: C_19  and  N_21
REMARK                            x       y       z     vdW  Elec       q    Type
REMARK                         _______ _______ _______ _____ _____    ______ ____
ROOT
ATOM      1  N   UNL     1       3.336  -3.738  -3.576  0.00  0.00    -0.292 N 
ATOM      2  C   UNL     1       4.072  -4.838  -3.832  0.00  0.00    +0.304 C 
ATOM      3  O   UNL     1       3.862  -5.489  -4.836  0.00  0.00    -0.252 OA
ATOM      4  N   UNL     1       5.041  -5.214  -2.974  0.00  0.00    -0.269 N 
ATOM      5  H   UNL     1       3.503  -3.218  -2.774  0.00  0.00    +0.151 HD
ATOM      6  H   UNL     1       5.253  -4.659  -2.207  0.00  0.00    +0.156 HD
ENDROOT
BRANCH   4   7
ATOM      7  C   UNL     1       5.740  -6.407  -3.188  0.00  0.00    +0.037 A 
ATOM      8  C   UNL     1       6.148  -7.179  -2.106  0.00  0.00    +0.023 A 
ATOM      9  C   UNL     1       6.838  -8.357  -2.317  0.00  0.00    +0.004 A 
ATOM     10  C   UNL     1       7.125  -8.772  -3.603  0.00  0.00    +0.025 A 
ATOM     11  C   UNL     1       6.721  -8.005  -4.689  0.00  0.00    +0.053 A 
ATOM     12  C   UNL     1       6.022  -6.824  -4.481  0.00  0.00    +0.048 A 
BRANCH  11  13
ATOM     13  N   UNL     1       7.013  -8.425  -5.989  0.00  0.00    -0.207 N 
ATOM     14  C   UNL     1       7.147  -7.577  -7.187  0.00  0.00    +0.133 C 
ATOM     15  C   UNL     1       8.126  -8.206  -8.196  0.00  0.00    +0.045 C 
ATOM     16  C   UNL     1       7.720  -9.709  -8.269  0.00  0.00    +0.190 C 
ATOM     17  S   UNL     1       7.289  -9.996  -6.505  0.00  0.00    +0.046 S 
ATOM     18  O   UNL     1       8.423 -10.442  -5.773  0.00  0.00    -0.155 OA
ATOM     19  O   UNL     1       6.035 -10.657  -6.396  0.00  0.00    -0.155 OA
ENDBRANCH  11  13
ENDBRANCH   4   7
BRANCH   1  20
ATOM     20  C   UNL     1       2.283  -3.329  -4.508  0.00  0.00    +0.180 C 
BRANCH  20  28
ATOM     21  C   UNL     1      -0.064   1.969  -2.699  0.00  0.00    +0.001 A 
ATOM     22  C   UNL     1      -0.949   1.135  -2.030  0.00  0.00    +0.004 A 
ATOM     23  C   UNL     1      -0.831  -0.236  -2.126  0.00  0.00    +0.047 A 
ATOM     24  C   UNL     1       0.181  -0.790  -2.898  0.00  0.00    +0.135 A 
ATOM     25  C   UNL     1       1.073   0.060  -3.573  0.00  0.00    +0.020 A 
ATOM     26  C   UNL     1       0.939   1.443  -3.465  0.00  0.00    +0.011 A 
ATOM     27  C   UNL     1       2.001  -0.829  -4.283  0.00  0.00    +0.055 A 
ATOM     28  C   UNL     1       1.615  -2.079  -3.995  0.00  0.00    +0.123 A 
ATOM     29  O   UNL     1       0.545  -2.057  -3.181  0.00  0.00    -0.458 OA
ENDBRANCH  20  28
ENDBRANCH   1  20
TORSDOF 4
