REMARK  Name = ZINC36660375
REMARK  11 active torsions:
REMARK  status: ('A' for Active; 'I' for Inactive)
REMARK    1  A    between atoms: C_1  and  C_2
REMARK    2  A    between atoms: C_5  and  C_36
REMARK    3  A    between atoms: N_11  and  C_12
REMARK    4  A    between atoms: C_12  and  C_13
REMARK    5  A    between atoms: C_13  and  C_14
REMARK    6  A    between atoms: C_14  and  N_15
REMARK    7  A    between atoms: N_15  and  C_16
REMARK    8  A    between atoms: N_15  and  C_17
REMARK    9  A    between atoms: C_18  and  C_20
REMARK   10  A    between atoms: N_25  and  S_26
REMARK   11  A    between atoms: S_26  and  C_29
REMARK                            x       y       z     vdW  Elec       q    Type
REMARK                         _______ _______ _______ _____ _____    ______ ____
ROOT
ATOM      1  C   UNL     1       0.636   1.553   0.017  0.00  0.00    +0.046 C 
ATOM      2  C   UNL     1       1.234   0.170   0.045  0.00  0.00    -0.024 A 
ATOM      3  C   UNL     1       1.653  -0.411  -1.123  0.00  0.00    +0.006 A 
ATOM      4  C   UNL     1       2.209  -1.682  -1.141  0.00  0.00    +0.005 A 
ATOM      5  C   UNL     1       2.344  -2.380   0.045  0.00  0.00    -0.035 A 
ATOM      6  C   UNL     1       1.927  -1.806   1.220  0.00  0.00    +0.044 A 
ATOM      7  C   UNL     1       1.361  -0.511   1.278  0.00  0.00    +0.083 A 
ATOM      8  N   UNL     1       1.006  -0.083   2.508  0.00  0.00    -0.224 NA
ATOM      9  C   UNL     1       1.175  -0.813   3.586  0.00  0.00    +0.168 A 
ATOM     10  S   UNL     1       1.902  -2.305   2.925  0.00  0.00    -0.052 S 
ATOM     11  N   UNL     1       0.862  -0.507   4.900  0.00  0.00    -0.249 N 
ATOM     12  C   UNL     1       0.379   0.712   5.212  0.00  0.00    +0.240 C 
ATOM     13  O   UNL     1       0.038   0.956   6.350  0.00  0.00    -0.273 OA
ATOM     14  C   UNL     1       2.944  -3.762   0.048  0.00  0.00    +0.045 C 
ENDROOT
BRANCH  12  15
ATOM     15  C   UNL     1       0.262   1.771   4.147  0.00  0.00    +0.166 C 
ATOM     16  C   UNL     1      -1.084   1.624   3.406  0.00  0.00    +0.031 C 
ATOM     17  C   UNL     1      -1.989   2.663   4.118  0.00  0.00    +0.019 C 
ATOM     18  C   UNL     1      -0.979   3.798   4.422  0.00  0.00    +0.110 C 
ATOM     19  N   UNL     1       0.280   3.105   4.764  0.00  0.00    -0.165 NA
BRANCH  19  20
ATOM     20  S   UNL     1       1.506   3.724   5.690  0.00  0.00    +0.062 S 
ATOM     21  O   UNL     1       0.927   4.726   6.514  0.00  0.00    -0.153 OA
ATOM     22  O   UNL     1       2.212   2.612   6.225  0.00  0.00    -0.153 OA
BRANCH  20  23
ATOM     23  C   UNL     1       2.617   4.548   4.599  0.00  0.00    +0.106 A 
ATOM     24  C   UNL     1       3.667   3.854   4.028  0.00  0.00    +0.031 A 
ATOM     25  C   UNL     1       4.539   4.499   3.172  0.00  0.00    +0.040 A 
ATOM     26  C   UNL     1       4.361   5.842   2.886  0.00  0.00    +0.124 A 
ATOM     27  C   UNL     1       3.309   6.537   3.458  0.00  0.00    +0.040 A 
ATOM     28  C   UNL     1       2.435   5.888   4.310  0.00  0.00    +0.031 A 
ATOM     29  F   UNL     1       5.213   6.474   2.049  0.00  0.00    -0.205 F 
ENDBRANCH  20  23
ENDBRANCH  19  20
ENDBRANCH  12  15
BRANCH  11  30
ATOM     30  C   UNL     1       1.056  -1.509   5.951  0.00  0.00    +0.114 C 
BRANCH  30  31
ATOM     31  C   UNL     1       2.427  -1.309   6.600  0.00  0.00    +0.001 C 
BRANCH  31  32
ATOM     32  C   UNL     1       2.681  -2.428   7.612  0.00  0.00    -0.078 C 
BRANCH  32  33
ATOM     33  N   UNL     1       3.997  -2.236   8.235  0.00  0.00    +0.376 N 
ATOM     34  C   UNL     1       3.990  -0.995   9.022  0.00  0.00    -0.097 C 
ATOM     35  C   UNL     1       4.293  -3.373   9.116  0.00  0.00    -0.097 C 
ATOM     36  H   UNL     1       4.703  -2.175   7.517  0.00  0.00    -0.083 HD
ENDBRANCH  32  33
ENDBRANCH  31  32
ENDBRANCH  30  31
ENDBRANCH  11  30
TORSDOF 7
