REMARK  Name = ZINC63137081
REMARK  2 active torsions:
REMARK  status: ('A' for Active; 'I' for Inactive)
REMARK    1  A    between atoms: C_8  and  C_26
REMARK    2  A    between atoms: N_19  and  C_23
REMARK                            x       y       z     vdW  Elec       q    Type
REMARK                         _______ _______ _______ _____ _____    ______ ____
ROOT
ATOM      1  C   UNL     1      -0.016   1.355   0.009  0.00  0.00    +0.001 A 
ATOM      2  C   UNL     1       1.141   2.140   0.003  0.00  0.00    +0.002 A 
ATOM      3  C   UNL     1       2.404   1.644  -0.011  0.00  0.00    +0.026 A 
ATOM      4  C   UNL     1       2.553   0.226  -0.019  0.00  0.00    +0.043 A 
ATOM      5  N   UNL     1       3.625  -0.506  -0.041  0.00  0.00    -0.375 N 
ATOM      6  C   UNL     1       3.231  -1.920  -0.004  0.00  0.00    +0.131 C 
ATOM      7  C   UNL     1       3.681  -2.635  -1.278  0.00  0.00    +0.133 C 
ATOM      8  N   UNL     1       2.917  -3.850  -1.516  0.00  0.00    -0.279 N 
ATOM      9  C   UNL     1       1.593  -4.170  -1.024  0.00  0.00    +0.167 C 
ATOM     10  C   UNL     1       0.907  -3.178  -0.122  0.00  0.00    +0.065 C 
ATOM     11  C   UNL     1       1.704  -1.909  -0.024  0.00  0.00    -0.034 C 
ATOM     12  C   UNL     1       1.332  -0.636  -0.013  0.00  0.00    -0.001 A 
ATOM     13  C   UNL     1       0.002  -0.004   0.002  0.00  0.00    +0.010 A 
ATOM     14  C   UNL     1       0.717  -4.608  -2.170  0.00  0.00    +0.237 C 
ATOM     15  O   UNL     1      -0.406  -4.178  -2.327  0.00  0.00    -0.274 OA
ATOM     16  N   UNL     1       1.272  -5.523  -3.020  0.00  0.00    -0.288 N 
ATOM     17  C   UNL     1       2.630  -5.994  -2.691  0.00  0.00    +0.204 C 
ATOM     18  C   UNL     1       3.483  -4.794  -2.338  0.00  0.00    +0.234 C 
ATOM     19  O   UNL     1       4.613  -4.671  -2.761  0.00  0.00    -0.274 OA
ATOM     20  H   UNL     1       4.536  -0.173  -0.076  0.00  0.00    +0.160 HD
ENDROOT
BRANCH   7  21
ATOM     21  C   UNL     1       3.501  -1.706  -2.451  0.00  0.00    -0.025 A 
ATOM     22  C   UNL     1       2.249  -1.539  -3.014  0.00  0.00    +0.007 A 
ATOM     23  C   UNL     1       2.084  -0.688  -4.090  0.00  0.00    +0.020 A 
ATOM     24  C   UNL     1       3.170  -0.002  -4.604  0.00  0.00    +0.041 A 
ATOM     25  C   UNL     1       4.422  -0.170  -4.040  0.00  0.00    +0.020 A 
ATOM     26  C   UNL     1       4.586  -1.017  -2.960  0.00  0.00    +0.007 A 
ATOM     27 CL   UNL     1       2.963   1.067  -5.956  0.00  0.00    -0.084 Cl
ENDBRANCH   7  21
BRANCH  16  28
ATOM     28  C   UNL     1       0.553  -6.011  -4.200  0.00  0.00    +0.077 C 
ATOM     29  C   UNL     1       1.174  -7.177  -4.972  0.00  0.00    +0.024 C 
ATOM     30  C   UNL     1       1.193  -5.768  -5.568  0.00  0.00    +0.024 C 
ENDBRANCH  16  28
TORSDOF 2
