REMARK  Name = ZINC11666136
REMARK  7 active torsions:
REMARK  status: ('A' for Active; 'I' for Inactive)
REMARK    1  A    between atoms: C_1  and  C_2
REMARK    2  A    between atoms: C_5  and  C_8
REMARK    3  A    between atoms: C_8  and  N_9
REMARK    4  A    between atoms: C_13  and  N_22
REMARK    5  A    between atoms: C_14  and  C_21
REMARK    6  A    between atoms: N_17  and  C_20
REMARK    7  A    between atoms: C_28  and  C_30
REMARK                            x       y       z     vdW  Elec       q    Type
REMARK                         _______ _______ _______ _____ _____    ______ ____
ROOT
ATOM      1  N   UNL     1       3.399   3.420   4.512  0.00  0.00    -0.256 N 
ATOM      2  C   UNL     1       2.926   2.752   3.437  0.00  0.00    +0.268 A 
ATOM      3  O   UNL     1       1.807   2.275   3.441  0.00  0.00    -0.267 OA
ATOM      4  C   UNL     1       3.798   2.619   2.263  0.00  0.00    +0.101 A 
ATOM      5  C   UNL     1       3.387   1.942   1.105  0.00  0.00    +0.050 A 
ATOM      6  C   UNL     1       4.290   1.865   0.043  0.00  0.00    -0.013 A 
ATOM      7  C   UNL     1       5.530   2.456   0.167  0.00  0.00    +0.089 A 
ATOM      8  C   UNL     1       5.082   3.190   2.310  0.00  0.00    +0.129 A 
ATOM      9  N   UNL     1       5.467   3.853   3.463  0.00  0.00    -0.282 N 
ATOM     10  C   UNL     1       4.633   3.948   4.512  0.00  0.00    +0.334 A 
ATOM     11  O   UNL     1       5.012   4.539   5.504  0.00  0.00    -0.246 OA
ATOM     12  C   UNL     1       6.800   4.457   3.539  0.00  0.00    +0.155 C 
ATOM     13  C   UNL     1       3.913   1.147  -1.227  0.00  0.00    +0.047 C 
ATOM     14  N   UNL     1       5.964   3.121   1.274  0.00  0.00    -0.347 N 
ATOM     15  H   UNL     1       6.899   3.543   1.325  0.00  0.00    +0.167 HD
ENDROOT
BRANCH   5  16
ATOM     16  N   UNL     1       2.131   1.366   1.020  0.00  0.00    -0.326 N 
ATOM     17  C   UNL     1       1.965   0.312   2.029  0.00  0.00    +0.124 C 
ATOM     18  C   UNL     1       0.641  -0.420   1.786  0.00  0.00    +0.127 C 
ATOM     19  N   UNL     1      -0.442   0.575   1.744  0.00  0.00    -0.292 N 
ATOM     20  C   UNL     1      -0.285   1.736   0.854  0.00  0.00    +0.127 C 
ATOM     21  C   UNL     1       1.076   2.383   1.133  0.00  0.00    +0.124 C 
ATOM     22  C   UNL     1      -1.548   0.427   2.499  0.00  0.00    +0.282 C 
ATOM     23  O   UNL     1      -1.714  -0.593   3.141  0.00  0.00    -0.267 OA
BRANCH  22  24
ATOM     24  C   UNL     1      -2.552   1.495   2.547  0.00  0.00    +0.189 A 
ATOM     25  C   UNL     1      -3.765   1.429   3.170  0.00  0.00    +0.054 A 
ATOM     26  C   UNL     1      -4.393   2.667   2.963  0.00  0.00    +0.042 A 
ATOM     27  C   UNL     1      -3.546   3.425   2.232  0.00  0.00    +0.196 A 
ATOM     28  O   UNL     1      -2.436   2.718   1.988  0.00  0.00    -0.458 OA
ENDBRANCH  22  24
ENDBRANCH   5  16
BRANCH   1  29
ATOM     29  C   UNL     1       2.552   3.569   5.698  0.00  0.00    +0.165 C 
BRANCH  29  34
ATOM     30  C   UNL     1      -0.556   8.420   5.245  0.00  0.00    +0.044 C 
ATOM     31  C   UNL     1       0.254   7.155   5.364  0.00  0.00    -0.050 A 
ATOM     32  C   UNL     1      -0.247   5.964   4.871  0.00  0.00    +0.004 A 
ATOM     33  C   UNL     1       0.497   4.804   4.979  0.00  0.00    +0.005 A 
ATOM     34  C   UNL     1       1.741   4.834   5.580  0.00  0.00    -0.027 A 
ATOM     35  C   UNL     1       2.240   6.023   6.078  0.00  0.00    +0.005 A 
ATOM     36  C   UNL     1       1.498   7.184   5.966  0.00  0.00    +0.004 A 
ENDBRANCH  29  34
ENDBRANCH   1  29
TORSDOF 4
