REMARK  Name = ZINC55575766
REMARK  7 active torsions:
REMARK  status: ('A' for Active; 'I' for Inactive)
REMARK    1  A    between atoms: C_1  and  C_2
REMARK    2  A    between atoms: C_2  and  C_3
REMARK    3  A    between atoms: C_6  and  C_25
REMARK    4  A    between atoms: C_8  and  S_9
REMARK    5  A    between atoms: S_9  and  N_12
REMARK    6  A    between atoms: N_12  and  C_13
REMARK    7  A    between atoms: C_21  and  C_22
REMARK                            x       y       z     vdW  Elec       q    Type
REMARK                         _______ _______ _______ _____ _____    ______ ____
ROOT
ATOM      1  N   UNL     1       2.801   1.445   0.447  0.00  0.00    -0.093 NA
ENDROOT
BRANCH   1   2
ATOM      2  C   UNL     1       3.339   2.046   1.573  0.00  0.00    +0.132 A 
ATOM      3  C   UNL     1       4.198   1.419   2.586  0.00  0.00    +0.045 A 
ATOM      4  C   UNL     1       4.720   0.136   2.755  0.00  0.00    +0.013 A 
ATOM      5  C   UNL     1       5.510  -0.137   3.837  0.00  0.00    +0.001 A 
ATOM      6  C   UNL     1       5.795   0.854   4.766  0.00  0.00    +0.004 A 
ATOM      7  C   UNL     1       5.288   2.126   4.617  0.00  0.00    +0.047 A 
ATOM      8  C   UNL     1       4.482   2.426   3.523  0.00  0.00    +0.138 A 
ATOM      9  O   UNL     1       3.859   3.552   3.122  0.00  0.00    -0.448 OA
ATOM     10  C   UNL     1       3.184   3.348   1.968  0.00  0.00    +0.215 A 
BRANCH  10  11
ATOM     11  C   UNL     1       2.429   4.327   1.277  0.00  0.00    +0.279 C 
ATOM     12  O   UNL     1       1.784   4.016   0.293  0.00  0.00    -0.267 OA
ATOM     13  N   UNL     1       2.426   5.604   1.710  0.00  0.00    -0.323 N 
ATOM     14  H   UNL     1       2.940   5.852   2.494  0.00  0.00    +0.145 HD
ATOM     15  H   UNL     1       1.909   6.275   1.237  0.00  0.00    +0.145 HD
ENDBRANCH  10  11
ENDBRANCH   1   2
BRANCH   1  16
ATOM     16  S   UNL     1       3.016  -0.176   0.190  0.00  0.00    +0.092 S 
ATOM     17  O   UNL     1       2.415  -0.845   1.291  0.00  0.00    -0.148 OA
ATOM     18  O   UNL     1       4.382  -0.355  -0.156  0.00  0.00    -0.148 OA
BRANCH  16  24
ATOM     19  C   UNL     1       0.695  -0.509  -1.208  0.00  0.00    -0.021 A 
ATOM     20  C   UNL     1      -0.052  -0.841  -2.325  0.00  0.00    +0.006 A 
ATOM     21  C   UNL     1       0.575  -1.278  -3.473  0.00  0.00    +0.015 A 
ATOM     22  C   UNL     1       1.968  -1.385  -3.506  0.00  0.00    +0.065 A 
ATOM     23  C   UNL     1       2.715  -1.049  -2.375  0.00  0.00    +0.044 A 
ATOM     24  C   UNL     1       2.075  -0.608  -1.236  0.00  0.00    +0.114 A 
BRANCH  22  25
ATOM     25  C   UNL     1       2.645  -1.853  -4.731  0.00  0.00    +0.387 C 
ATOM     26  O   UNL     1       1.988  -2.147  -5.719  0.00  0.00    -0.241 OA
ATOM     27  O   UNL     1       3.864  -1.946  -4.757  0.00  0.00    -0.241 OA
ENDBRANCH  22  25
BRANCH  19  29
ATOM     28  C   UNL     1      -0.033   1.497   0.056  0.00  0.00    +0.009 C 
ATOM     29  C   UNL     1       0.002  -0.033   0.043  0.00  0.00    +0.034 C 
ENDBRANCH  19  29
ENDBRANCH  16  24
ENDBRANCH   1  16
TORSDOF 6
