REMARK  Name = ZINC09722968
REMARK  7 active torsions:
REMARK  status: ('A' for Active; 'I' for Inactive)
REMARK    1  A    between atoms: C_1  and  C_2
REMARK    2  A    between atoms: C_6  and  C_11
REMARK    3  A    between atoms: C_14  and  O_19
REMARK    4  A    between atoms: C_15  and  O_17
REMARK    5  A    between atoms: O_17  and  C_18
REMARK    6  A    between atoms: O_19  and  C_20
REMARK    7  A    between atoms: C_26  and  N_61
REMARK                            x       y       z     vdW  Elec       q    Type
REMARK                         _______ _______ _______ _____ _____    ______ ____
ROOT
ATOM      1  C   UNL     1      -7.413   4.031   7.007  0.00  0.00    +0.088 C 
ATOM      2  C   UNL     1      -6.261   4.734   6.337  0.00  0.00    +0.129 A 
ATOM      3  N   UNL     1      -5.555   4.092   5.423  0.00  0.00    -0.217 NA
ATOM      4  C   UNL     1      -4.533   4.655   4.800  0.00  0.00    +0.134 A 
ATOM      5  C   UNL     1      -4.174   5.991   5.122  0.00  0.00    +0.055 A 
ATOM      6  C   UNL     1      -3.107   6.826   4.580  0.00  0.00    +0.002 A 
ATOM      7  C   UNL     1      -2.966   8.088   5.048  0.00  0.00    +0.056 A 
ATOM      8  S   UNL     1      -4.273   8.235   6.250  0.00  0.00    -0.076 S 
ATOM      9  C   UNL     1      -4.976   6.614   6.101  0.00  0.00    +0.114 A 
ATOM     10  N   UNL     1      -5.979   5.978   6.674  0.00  0.00    -0.225 NA
ATOM     11  N   UNL     1      -3.817   3.948   3.849  0.00  0.00    -0.318 N 
ATOM     12  C   UNL     1      -3.696   2.533   4.226  0.00  0.00    +0.088 C 
ATOM     13  C   UNL     1      -2.833   1.805   3.193  0.00  0.00    -0.059 C 
ATOM     14  C   UNL     1      -3.567   3.357   1.487  0.00  0.00    -0.059 C 
ATOM     15  C   UNL     1      -4.430   4.085   2.520  0.00  0.00    +0.088 C 
ATOM     16  N   UNL     1      -3.471   1.932   1.865  0.00  0.00    +0.385 N 
ATOM     17  H   UNL     1      -4.417   1.534   1.910  0.00  0.00    -0.081 HD
ENDROOT
BRANCH  16  18
ATOM     18  C   UNL     1      -2.686   1.192   0.855  0.00  0.00    -0.046 C 
ATOM     19  C   UNL     1      -3.412   1.282  -0.499  0.00  0.00    +0.009 C 
ATOM     20  C   UNL     1      -2.773   0.238  -1.460  0.00  0.00    +0.164 C 
ATOM     21  S   UNL     1      -2.548  -1.185  -0.311  0.00  0.00    -0.033 S 
ATOM     22  O   UNL     1      -3.692  -2.025  -0.386  0.00  0.00    -0.174 OA
ATOM     23  O   UNL     1      -1.257  -1.743  -0.513  0.00  0.00    -0.174 OA
ATOM     24  C   UNL     1      -2.569  -0.287   1.294  0.00  0.00    +0.151 C 
ENDBRANCH  16  18
BRANCH   6  25
ATOM     25  C   UNL     1      -2.192   6.299   3.540  0.00  0.00    -0.013 A 
ATOM     26  C   UNL     1      -1.475   5.125   3.769  0.00  0.00    +0.012 A 
ATOM     27  C   UNL     1      -0.627   4.633   2.798  0.00  0.00    +0.050 A 
ATOM     28  C   UNL     1      -0.477   5.309   1.597  0.00  0.00    +0.162 A 
ATOM     29  C   UNL     1      -1.185   6.485   1.365  0.00  0.00    +0.162 A 
ATOM     30  C   UNL     1      -2.041   6.980   2.333  0.00  0.00    +0.058 A 
BRANCH  29  31
ATOM     31  O   UNL     1      -1.037   7.146   0.186  0.00  0.00    -0.491 OA
ATOM     32  C   UNL     1      -1.795   8.346   0.015  0.00  0.00    +0.277 C 
ENDBRANCH  29  31
BRANCH  28  33
ATOM     33  O   UNL     1       0.364   4.823   0.645  0.00  0.00    -0.491 OA
ATOM     34  C   UNL     1       1.145   3.678   0.992  0.00  0.00    +0.277 C 
ENDBRANCH  28  33
ENDBRANCH   6  25
TORSDOF 4
