REMARK  Name = ZINC40046006
REMARK  8 active torsions:
REMARK  status: ('A' for Active; 'I' for Inactive)
REMARK    1  A    between atoms: C_1  and  C_2
REMARK    2  A    between atoms: C_2  and  C_3
REMARK    3  A    between atoms: C_17  and  C_19
REMARK    4  A    between atoms: C_22  and  O_27
REMARK    5  A    between atoms: C_23  and  O_25
REMARK    6  A    between atoms: O_25  and  C_26
REMARK    7  A    between atoms: C_30  and  C_34
REMARK    8  A    between atoms: C_31  and  C_33
REMARK                            x       y       z     vdW  Elec       q    Type
REMARK                         _______ _______ _______ _____ _____    ______ ____
ROOT
ATOM      1  C   UNL     1       0.707  -0.490  -1.238  0.00  0.00    -0.047 A 
ATOM      2  C   UNL     1      -0.016  -0.719  -2.400  0.00  0.00    +0.007 A 
ATOM      3  C   UNL     1       0.609  -1.166  -3.543  0.00  0.00    +0.047 A 
ATOM      4  C   UNL     1       1.985  -1.393  -3.544  0.00  0.00    +0.139 A 
ATOM      5  C   UNL     1       2.707  -1.152  -2.364  0.00  0.00    +0.065 A 
ATOM      6  C   UNL     1       2.058  -0.699  -1.216  0.00  0.00    +0.019 A 
ATOM      7  C   UNL     1       4.175  -1.376  -2.359  0.00  0.00    +0.199 A 
ATOM      8  O   UNL     1       4.850  -1.355  -1.345  0.00  0.00    -0.287 OA
ATOM      9  C   UNL     1       4.735  -1.625  -3.692  0.00  0.00    +0.072 A 
ATOM     10  C   UNL     1       3.921  -1.837  -4.769  0.00  0.00    +0.199 A 
ATOM     11  O   UNL     1       2.577  -1.838  -4.676  0.00  0.00    -0.450 OA
ATOM     12  C   UNL     1       4.769  -2.046  -5.954  0.00  0.00    +0.289 C 
ATOM     13  O   UNL     1       4.356  -2.257  -7.077  0.00  0.00    -0.266 OA
ATOM     14  N   UNL     1       6.072  -1.969  -5.612  0.00  0.00    -0.232 N 
ATOM     15  C   UNL     1       6.148  -1.702  -4.167  0.00  0.00    +0.152 C 
ATOM     16  C   UNL     1       7.151  -2.118  -6.473  0.00  0.00    +0.169 A 
ATOM     17  N   UNL     1       8.435  -2.059  -6.191  0.00  0.00    -0.229 NA
ATOM     18  C   UNL     1       9.347  -2.223  -7.131  0.00  0.00    +0.050 A 
ATOM     19  C   UNL     1       8.900  -2.453  -8.390  0.00  0.00    +0.011 A 
ATOM     20  S   UNL     1       7.135  -2.424  -8.127  0.00  0.00    -0.057 S 
ATOM     21  C   UNL     1       9.679  -2.677  -9.661  0.00  0.00    +0.053 C 
ATOM     22  C   UNL     1      10.820  -2.157  -6.818  0.00  0.00    +0.066 C 
ENDROOT
BRANCH  15  23
ATOM     23  C   UNL     1       6.852  -0.393  -3.917  0.00  0.00    -0.018 A 
ATOM     24  C   UNL     1       6.659   0.670  -4.780  0.00  0.00    +0.009 A 
ATOM     25  C   UNL     1       7.303   1.873  -4.556  0.00  0.00    +0.049 A 
ATOM     26  C   UNL     1       8.143   2.015  -3.463  0.00  0.00    +0.158 A 
ATOM     27  C   UNL     1       8.337   0.946  -2.594  0.00  0.00    +0.162 A 
ATOM     28  C   UNL     1       7.685  -0.256  -2.822  0.00  0.00    +0.055 A 
BRANCH  27  29
ATOM     29  O   UNL     1       9.161   1.081  -1.521  0.00  0.00    -0.491 OA
ATOM     30  C   UNL     1       9.313  -0.059  -0.672  0.00  0.00    +0.277 C 
ENDBRANCH  27  29
BRANCH  26  31
ATOM     31  O   UNL     1       8.777   3.197  -3.241  0.00  0.00    -0.503 OA
ATOM     32  H   UNL     1       8.278   3.813  -2.687  0.00  0.00    +0.292 HD
ENDBRANCH  26  31
ENDBRANCH  15  23
BRANCH   1  34
ATOM     33  C   UNL     1      -0.019   1.526   0.010  0.00  0.00    +0.009 C 
ATOM     34  C   UNL     1       0.002  -0.004   0.002  0.00  0.00    +0.032 C 
ENDBRANCH   1  34
TORSDOF 4
