REMARK  Name = ZINC22906484
REMARK  4 active torsions:
REMARK  status: ('A' for Active; 'I' for Inactive)
REMARK    1  A    between atoms: C_1  and  S_2
REMARK    2  A    between atoms: S_2  and  C_5
REMARK    3  A    between atoms: C_9  and  C_11
REMARK    4  A    between atoms: C_17  and  C_19
REMARK                            x       y       z     vdW  Elec       q    Type
REMARK                         _______ _______ _______ _____ _____    ______ ____
ROOT
ATOM      1  C   UNL     1       1.718   5.652   0.016  0.00  0.00    +0.250 A 
ATOM      2  N   UNL     1       0.408   5.576   0.028  0.00  0.00    -0.106 NA
ATOM      3  N   UNL     1       0.053   4.339   0.025  0.00  0.00    -0.092 NA
ATOM      4  C   UNL     1       1.121   3.578   0.011  0.00  0.00    +0.314 A 
ATOM      5  O   UNL     1       2.195   4.389   0.010  0.00  0.00    -0.405 OA
ATOM      6  N   UNL     1       1.139   2.192   0.003  0.00  0.00    -0.238 N 
ATOM      7  C   UNL     1      -0.018   1.503   0.010  0.00  0.00    +0.233 C 
ATOM      8  O   UNL     1      -1.077   2.095   0.018  0.00  0.00    -0.274 OA
ATOM      9  H   UNL     1       2.099   1.655  -0.009  0.00  0.00    +0.159 HD
ENDROOT
BRANCH   7  10
ATOM     10  C   UNL     1       0.002  -0.004   0.002  0.00  0.00    +0.142 C 
ATOM     11  C   UNL     1       0.718  -0.484  -1.231  0.00  0.00    +0.011 A 
ATOM     12  C   UNL     1       2.101  -0.445  -1.271  0.00  0.00    +0.008 A 
ATOM     13  C   UNL     1       2.777  -0.880  -2.395  0.00  0.00    +0.001 A 
ATOM     14  C   UNL     1       2.072  -1.357  -3.485  0.00  0.00    +0.004 A 
ATOM     15  C   UNL     1       0.695  -1.399  -3.450  0.00  0.00    +0.046 A 
ATOM     16  C   UNL     1       0.011  -0.963  -2.321  0.00  0.00    +0.133 A 
ATOM     17  O   UNL     1      -1.343  -1.012  -2.307  0.00  0.00    -0.455 OA
ATOM     18  C   UNL     1      -2.010  -0.998  -1.129  0.00  0.00    +0.133 A 
ATOM     19  C   UNL     1      -1.411  -0.520   0.025  0.00  0.00    +0.011 A 
ATOM     20  C   UNL     1      -2.116  -0.514   1.216  0.00  0.00    +0.008 A 
ATOM     21  C   UNL     1      -3.414  -0.983   1.258  0.00  0.00    +0.001 A 
ATOM     22  C   UNL     1      -4.015  -1.462   0.109  0.00  0.00    +0.004 A 
ATOM     23  C   UNL     1      -3.317  -1.470  -1.082  0.00  0.00    +0.046 A 
ENDBRANCH   7  10
BRANCH   1  28
ATOM     24  C   UNL     1       2.647   9.290   0.026  0.00  0.00    +0.089 A 
ATOM     25  C   UNL     1       4.029   9.215   0.013  0.00  0.00    +0.027 A 
ATOM     26  C   UNL     1       4.661   7.984   0.001  0.00  0.00    +0.003 A 
ATOM     27  C   UNL     1       3.916   6.823   0.006  0.00  0.00    +0.013 A 
ATOM     28  C   UNL     1       2.522   6.892   0.014  0.00  0.00    +0.040 A 
ATOM     29  C   UNL     1       1.891   8.137   0.027  0.00  0.00    +0.040 A 
BRANCH  24  31
ATOM     30  C   UNL     1       1.659  11.270   1.800  0.00  0.00    +0.200 C 
ATOM     31  S   UNL     1       1.853  10.863   0.042  0.00  0.00    -0.006 S 
ATOM     32  O   UNL     1       2.785  11.747  -0.565  0.00  0.00    -0.170 OA
ATOM     33  O   UNL     1       0.581  10.633  -0.550  0.00  0.00    -0.170 OA
ENDBRANCH  24  31
ENDBRANCH   1  28
TORSDOF 3
