REMARK  Name = ZINC13532982
REMARK  6 active torsions:
REMARK  status: ('A' for Active; 'I' for Inactive)
REMARK    1  A    between atoms: C_8  and  C_29
REMARK    2  A    between atoms: N_12  and  N_13
REMARK    3  A    between atoms: N_13  and  C_14
REMARK    4  A    between atoms: C_17  and  S_20
REMARK    5  A    between atoms: S_20  and  N_23
REMARK    6  A    between atoms: N_23  and  C_24
REMARK                            x       y       z     vdW  Elec       q    Type
REMARK                         _______ _______ _______ _____ _____    ______ ____
ROOT
ATOM      1  N   UNL     1       4.777   1.067  -1.075  0.00  0.00    -0.237 N 
ATOM      2  H   UNL     1       3.951   1.574  -1.063  0.00  0.00    +0.174 HD
ENDROOT
BRANCH   1  14
ATOM      3  C   UNL     1       0.421   1.834   1.106  0.00  0.00    +0.001 A 
ATOM      4  C   UNL     1       1.656   2.431   0.885  0.00  0.00    +0.001 A 
ATOM      5  C   UNL     1       2.757   1.663   0.568  0.00  0.00    +0.011 A 
ATOM      6  C   UNL     1       2.625   0.281   0.474  0.00  0.00    +0.013 A 
ATOM      7  C   UNL     1       1.374  -0.332   0.716  0.00  0.00    -0.015 A 
ATOM      8  C   UNL     1       0.269   0.481   1.022  0.00  0.00    +0.008 A 
ATOM      9  C   UNL     1       1.234  -1.733   0.667  0.00  0.00    +0.027 C 
ATOM     10  C   UNL     1       2.329  -2.572   0.569  0.00  0.00    +0.112 C 
ATOM     11  C   UNL     1       3.684  -1.987   0.555  0.00  0.00    +0.220 C 
ATOM     12  O   UNL     1       4.668  -2.628   0.883  0.00  0.00    -0.285 OA
ATOM     13  C   UNL     1       3.778  -0.574   0.117  0.00  0.00    +0.137 C 
ATOM     14  N   UNL     1       4.821  -0.109  -0.546  0.00  0.00    -0.178 NA
BRANCH  10  15
ATOM     15  C   UNL     1       2.146  -4.027   0.480  0.00  0.00    +0.390 C 
ATOM     16  O   UNL     1       1.018  -4.503   0.493  0.00  0.00    -0.240 OA
ATOM     17  O   UNL     1       3.120  -4.762   0.394  0.00  0.00    -0.240 OA
ENDBRANCH  10  15
ENDBRANCH   1  14
BRANCH   1  18
ATOM     18  C   UNL     1       5.919   1.609  -1.664  0.00  0.00    +0.048 A 
ATOM     19  C   UNL     1       7.103   0.882  -1.688  0.00  0.00    +0.026 A 
ATOM     20  C   UNL     1       8.232   1.422  -2.272  0.00  0.00    +0.031 A 
ATOM     21  C   UNL     1       8.184   2.685  -2.834  0.00  0.00    +0.111 A 
ATOM     22  C   UNL     1       7.008   3.412  -2.811  0.00  0.00    +0.031 A 
ATOM     23  C   UNL     1       5.874   2.877  -2.234  0.00  0.00    +0.026 A 
BRANCH  21  24
ATOM     24  S   UNL     1       9.627   3.370  -3.578  0.00  0.00    +0.093 S 
ATOM     25  O   UNL     1       9.469   4.782  -3.547  0.00  0.00    -0.148 OA
ATOM     26  O   UNL     1      10.740   2.715  -2.986  0.00  0.00    -0.148 OA
BRANCH  24  27
ATOM     27  N   UNL     1       9.611   2.928  -5.174  0.00  0.00    -0.070 NA
BRANCH  27  28
ATOM     28  C   UNL     1      10.637   3.330  -6.015  0.00  0.00    +0.201 A 
ATOM     29  N   UNL     1      11.697   4.054  -5.724  0.00  0.00    -0.231 NA
ATOM     30  C   UNL     1      12.592   4.355  -6.648  0.00  0.00    +0.120 A 
ATOM     31  C   UNL     1      12.368   3.885  -7.899  0.00  0.00    +0.068 A 
ATOM     32  S   UNL     1      10.833   3.006  -7.655  0.00  0.00    -0.058 S 
ENDBRANCH  27  28
ENDBRANCH  24  27
ENDBRANCH  21  24
ENDBRANCH   1  18
TORSDOF 6
