REMARK  Name = ZINC13233318
REMARK  9 active torsions:
REMARK  status: ('A' for Active; 'I' for Inactive)
REMARK    1  A    between atoms: C_1  and  C_2
REMARK    2  A    between atoms: C_5  and  N_9
REMARK    3  A    between atoms: C_7  and  C_8
REMARK    4  A    between atoms: C_10  and  S_14
REMARK    5  A    between atoms: S_14  and  C_15
REMARK    6  A    between atoms: C_15  and  C_16
REMARK    7  A    between atoms: N_18  and  C_19
REMARK    8  A    between atoms: C_21  and  C_27
REMARK    9  A    between atoms: C_23  and  C_25
REMARK                            x       y       z     vdW  Elec       q    Type
REMARK                         _______ _______ _______ _____ _____    ______ ____
ROOT
ATOM      1  C   UNL     1      -1.210   1.582   0.018  0.00  0.00    +0.227 C 
ATOM      2  O   UNL     1      -1.271   2.791  -0.067  0.00  0.00    -0.275 OA
ATOM      3  N   UNL     1      -0.011   0.966   0.007  0.00  0.00    -0.285 N 
ATOM      4  H   UNL     1       0.036  -0.003   0.007  0.00  0.00    +0.155 HD
ENDROOT
BRANCH   3   5
ATOM      5  C   UNL     1       1.166   1.724  -0.008  0.00  0.00    +0.035 A 
ATOM      6  C   UNL     1       1.209   2.920  -0.710  0.00  0.00    +0.038 A 
ATOM      7  C   UNL     1       2.379   3.681  -0.724  0.00  0.00    +0.066 A 
ATOM      8  C   UNL     1       3.508   3.233  -0.040  0.00  0.00    +0.030 A 
ATOM      9  C   UNL     1       3.463   2.028   0.659  0.00  0.00    +0.066 A 
ATOM     10  C   UNL     1       2.287   1.275   0.673  0.00  0.00    +0.038 A 
BRANCH   9  11
ATOM     11  C   UNL     1       4.657   1.549   1.386  0.00  0.00    +0.387 C 
ATOM     12  O   UNL     1       4.616   0.499   1.995  0.00  0.00    -0.241 OA
ATOM     13  O   UNL     1       5.790   2.277   1.372  0.00  0.00    -0.241 OA
ENDBRANCH   9  11
BRANCH   7  14
ATOM     14  C   UNL     1       2.423   4.958  -1.466  0.00  0.00    +0.387 C 
ATOM     15  O   UNL     1       1.438   5.348  -2.062  0.00  0.00    -0.241 OA
ATOM     16  O   UNL     1       3.554   5.689  -1.483  0.00  0.00    -0.241 OA
ENDBRANCH   7  14
ENDBRANCH   3   5
BRANCH   1  17
ATOM     17  C   UNL     1      -2.474   0.770   0.133  0.00  0.00    +0.173 C 
BRANCH  17  18
ATOM     18  S   UNL     1      -3.906   1.877   0.119  0.00  0.00    -0.075 S 
BRANCH  18  20
ATOM     19  N   UNL     1      -6.536   0.963   0.309  0.00  0.00    -0.187 N 
ATOM     20  C   UNL     1      -5.206   0.696   0.263  0.00  0.00    +0.214 A 
ATOM     21  N   UNL     1      -5.071  -0.610   0.351  0.00  0.00    -0.101 NA
ATOM     22  N   UNL     1      -6.220  -1.175   0.444  0.00  0.00    -0.022 NA
ATOM     23  N   UNL     1      -7.159  -0.292   0.423  0.00  0.00    -0.038 NA
BRANCH  19  28
ATOM     24  C   UNL     1      -9.043   6.050   0.084  0.00  0.00    +0.044 C 
ATOM     25  C   UNL     1      -8.377   4.699   0.144  0.00  0.00    -0.047 A 
ATOM     26  C   UNL     1      -7.160   4.558   0.785  0.00  0.00    +0.006 A 
ATOM     27  C   UNL     1      -6.547   3.321   0.841  0.00  0.00    +0.028 A 
ATOM     28  C   UNL     1      -7.155   2.219   0.254  0.00  0.00    +0.070 A 
ATOM     29  C   UNL     1      -8.375   2.366  -0.393  0.00  0.00    +0.031 A 
ATOM     30  C   UNL     1      -8.985   3.604  -0.441  0.00  0.00    -0.046 A 
ATOM     31  C   UNL     1     -10.312   3.763  -1.138  0.00  0.00    +0.044 C 
ENDBRANCH  19  28
ENDBRANCH  18  20
ENDBRANCH  17  18
ENDBRANCH   1  17
TORSDOF 7
