REMARK  Name = ZINC02140053
REMARK  6 active torsions:
REMARK  status: ('A' for Active; 'I' for Inactive)
REMARK    1  A    between atoms: C_1  and  C_2
REMARK    2  A    between atoms: C_5  and  N_8
REMARK    3  A    between atoms: N_11  and  C_12
REMARK    4  A    between atoms: C_19  and  O_20
REMARK    5  A    between atoms: O_20  and  C_21
REMARK    6  A    between atoms: C_27  and  N_50
REMARK                            x       y       z     vdW  Elec       q    Type
REMARK                         _______ _______ _______ _____ _____    ______ ____
ROOT
ATOM      1  C   UNL     1       2.302   3.992  -0.007  0.00  0.00    +0.055 C 
ATOM      2  C   UNL     1       1.103   3.085  -0.105  0.00  0.00    +0.004 A 
ATOM      3  C   UNL     1       1.231   1.713  -0.159  0.00  0.00    -0.039 A 
ATOM      4  C   UNL     1       0.101   0.914  -0.242  0.00  0.00    +0.053 A 
ATOM      5  C   UNL     1      -1.161   1.483  -0.279  0.00  0.00    +0.170 A 
ATOM      6  C   UNL     1      -1.295   2.866  -0.221  0.00  0.00    +0.208 A 
ATOM      7  C   UNL     1      -0.162   3.663  -0.138  0.00  0.00    +0.169 A 
ATOM      8  O   UNL     1      -2.624   3.179  -0.268  0.00  0.00    -0.449 OA
ATOM      9  C   UNL     1      -3.317   1.962   0.065  0.00  0.00    +0.467 C 
ATOM     10  O   UNL     1      -2.406   0.927  -0.351  0.00  0.00    -0.452 OA
ATOM     11  C   UNL     1       2.582   1.044  -0.136  0.00  0.00    +0.017 C 
ATOM     12  C   UNL     1       3.641   2.023   0.369  0.00  0.00    -0.071 C 
ATOM     13  C   UNL     1       4.709   4.120  -0.211  0.00  0.00    -0.093 C 
ATOM     14  N   UNL     1       3.517   3.268  -0.417  0.00  0.00    +0.393 N 
ATOM     15  H   UNL     1       3.446   3.030  -1.413  0.00  0.00    -0.079 HD
ENDROOT
BRANCH   1  19
ATOM     16  N   UNL     1       2.219   7.441  -1.277  0.00  0.00    -0.270 N 
ATOM     17  C   UNL     1       2.393   6.384  -0.459  0.00  0.00    +0.303 C 
ATOM     18  O   UNL     1       2.802   6.553   0.673  0.00  0.00    -0.253 OA
ATOM     19  N   UNL     1       2.113   5.141  -0.896  0.00  0.00    -0.308 N 
ATOM     20  H   UNL     1       1.822   7.316  -2.154  0.00  0.00    +0.156 HD
ATOM     21  H   UNL     1       1.787   5.006  -1.800  0.00  0.00    +0.149 HD
BRANCH  16  26
ATOM     22  C   UNL     1       3.807  12.622   0.404  0.00  0.00    +0.044 C 
ATOM     23  C   UNL     1       3.385  11.246  -0.043  0.00  0.00    -0.050 A 
ATOM     24  C   UNL     1       4.115  10.139   0.351  0.00  0.00    +0.005 A 
ATOM     25  C   UNL     1       3.731   8.876  -0.057  0.00  0.00    +0.023 A 
ATOM     26  C   UNL     1       2.610   8.719  -0.862  0.00  0.00    +0.035 A 
ATOM     27  C   UNL     1       1.883   9.833  -1.260  0.00  0.00    +0.023 A 
ATOM     28  C   UNL     1       2.269  11.092  -0.845  0.00  0.00    +0.005 A 
ENDBRANCH  16  26
ENDBRANCH   1  19
BRANCH   7  29
ATOM     29  O   UNL     1      -0.288   5.016  -0.088  0.00  0.00    -0.491 OA
ATOM     30  C   UNL     1      -0.521   5.599   1.196  0.00  0.00    +0.277 C 
ENDBRANCH   7  29
TORSDOF 3
