REMARK  Name = ZINC04827860
REMARK  6 active torsions:
REMARK  status: ('A' for Active; 'I' for Inactive)
REMARK    1  A    between atoms: C_3  and  C_6
REMARK    2  A    between atoms: C_6  and  N_7
REMARK    3  A    between atoms: C_8  and  C_10
REMARK    4  A    between atoms: C_10  and  N_21
REMARK    5  A    between atoms: C_11  and  C_12
REMARK    6  A    between atoms: C_22  and  C_24
REMARK                            x       y       z     vdW  Elec       q    Type
REMARK                         _______ _______ _______ _____ _____    ______ ____
ROOT
ATOM      1  C   UNL     1       5.029   1.730   0.171  0.00  0.00    +0.097 C 
ATOM      2  C   UNL     1       5.351   0.588  -0.482  0.00  0.00    +0.036 C 
ENDROOT
BRANCH   2   3
ATOM      3  C   UNL     1       6.733   0.362  -0.929  0.00  0.00    -0.019 A 
ATOM      4  C   UNL     1       7.468   1.410  -1.494  0.00  0.00    +0.012 A 
ATOM      5  C   UNL     1       8.765   1.196  -1.908  0.00  0.00    +0.050 A 
ATOM      6  C   UNL     1       9.343  -0.059  -1.776  0.00  0.00    +0.166 A 
ATOM      7  C   UNL     1       8.614  -1.111  -1.219  0.00  0.00    +0.167 A 
ATOM      8  C   UNL     1       7.316  -0.903  -0.797  0.00  0.00    +0.057 A 
ATOM      9  O   UNL     1       9.402  -2.226  -1.203  0.00  0.00    -0.453 OA
ATOM     10  C   UNL     1      10.748  -1.748  -1.376  0.00  0.00    +0.466 C 
ATOM     11  O   UNL     1      10.585  -0.519  -2.108  0.00  0.00    -0.453 OA
ENDBRANCH   2   3
BRANCH   1  13
ATOM     12  N   UNL     1       5.783   3.796   1.228  0.00  0.00    -0.303 N 
ATOM     13  C   UNL     1       6.089   2.586   0.720  0.00  0.00    +0.259 C 
ATOM     14  O   UNL     1       7.244   2.203   0.715  0.00  0.00    -0.269 OA
ATOM     15  H   UNL     1       4.862   4.101   1.232  0.00  0.00    +0.149 HD
BRANCH  12  16
ATOM     16  C   UNL     1       6.840   4.649   1.776  0.00  0.00    +0.179 C 
BRANCH  16  19
ATOM     17  C   UNL     1       5.304   7.490   3.552  0.00  0.00    +0.041 A 
ATOM     18  C   UNL     1       5.777   6.158   3.521  0.00  0.00    +0.046 A 
ATOM     19  C   UNL     1       6.237   5.937   2.277  0.00  0.00    +0.122 A 
ATOM     20  O   UNL     1       6.074   7.059   1.558  0.00  0.00    -0.466 OA
ATOM     21  C   UNL     1       5.503   8.003   2.324  0.00  0.00    +0.195 A 
ENDBRANCH  16  19
ENDBRANCH  12  16
ENDBRANCH   1  13
BRANCH   1  22
ATOM     22  N   UNL     1       3.687   2.095   0.322  0.00  0.00    -0.277 N 
ATOM     23  C   UNL     1       3.181   2.304   1.553  0.00  0.00    +0.255 C 
ATOM     24  O   UNL     1       3.862   2.084   2.538  0.00  0.00    -0.269 OA
ATOM     25  H   UNL     1       3.121   2.197  -0.459  0.00  0.00    +0.155 HD
BRANCH  23  26
ATOM     26  C   UNL     1       1.809   2.796   1.707  0.00  0.00    +0.074 A 
ATOM     27  C   UNL     1       1.105   3.074   2.869  0.00  0.00    +0.021 A 
ATOM     28  C   UNL     1      -0.183   3.525   2.727  0.00  0.00    +0.008 A 
ATOM     29  C   UNL     1      -0.696   3.684   1.479  0.00  0.00    +0.046 A 
ATOM     30  S   UNL     1       0.609   3.195   0.449  0.00  0.00    -0.092 S 
ENDBRANCH  23  26
ENDBRANCH   1  22
TORSDOF 6
