REMARK  Name = ZINC36522485
REMARK  14 active torsions:
REMARK  status: ('A' for Active; 'I' for Inactive)
REMARK    1  A    between atoms: C_1  and  C_2
REMARK    2  A    between atoms: C_2  and  C_3
REMARK    3  A    between atoms: C_3  and  C_4
REMARK    4  A    between atoms: C_4  and  C_5
REMARK    5  A    between atoms: C_5  and  C_6
REMARK    6  A    between atoms: C_6  and  N_7
REMARK    7  A    between atoms: N_7  and  C_8
REMARK    8  A    between atoms: C_8  and  C_10
REMARK    9  A    between atoms: C_8  and  C_18
REMARK   10  A    between atoms: C_13  and  C_17
REMARK   11  A    between atoms: C_15  and  C_16
REMARK   12  A    between atoms: N_20  and  C_21
REMARK   13  A    between atoms: C_27  and  C_29
REMARK   14  A    between atoms: C_29  and  C_30
REMARK                            x       y       z     vdW  Elec       q    Type
REMARK                         _______ _______ _______ _____ _____    ______ ____
ROOT
ATOM      1  C   UNL     1       1.292  -4.649   4.781  0.00  0.00    +0.192 C 
ENDROOT
BRANCH   1   2
ATOM      2  C   UNL     1       1.939  -3.882   5.906  0.00  0.00    -0.015 A 
ATOM      3  C   UNL     1       3.233  -3.414   5.768  0.00  0.00    +0.006 A 
ATOM      4  C   UNL     1       3.826  -2.711   6.800  0.00  0.00    +0.004 A 
ATOM      5  C   UNL     1       3.126  -2.475   7.968  0.00  0.00    -0.050 A 
ATOM      6  C   UNL     1       1.832  -2.941   8.105  0.00  0.00    +0.007 A 
ATOM      7  C   UNL     1       1.237  -3.641   7.072  0.00  0.00    -0.045 A 
ATOM      8  C   UNL     1      -0.175  -4.146   7.219  0.00  0.00    +0.044 C 
ATOM      9  C   UNL     1       3.773  -1.708   9.093  0.00  0.00    +0.044 C 
ENDBRANCH   1   2
BRANCH   1  10
ATOM     10  C   UNL     1       1.584  -6.119   4.942  0.00  0.00    +0.238 C 
ATOM     11  O   UNL     1       2.154  -6.724   4.059  0.00  0.00    -0.273 OA
ATOM     12  N   UNL     1       1.213  -6.760   6.068  0.00  0.00    -0.311 N 
ATOM     13  H   UNL     1       0.691  -6.296   6.741  0.00  0.00    +0.149 HD
BRANCH  12  14
ATOM     14  C   UNL     1       1.597  -8.159   6.275  0.00  0.00    +0.073 C 
ATOM     15  C   UNL     1       0.578  -9.073   5.592  0.00  0.00    +0.022 C 
ATOM     16  C   UNL     1       0.979 -10.534   5.808  0.00  0.00    +0.002 C 
ATOM     17  C   UNL     1       1.012 -10.838   7.307  0.00  0.00    +0.000 C 
ATOM     18  C   UNL     1       2.031  -9.923   7.990  0.00  0.00    +0.002 C 
ATOM     19  C   UNL     1       1.630  -8.462   7.774  0.00  0.00    +0.022 C 
ENDBRANCH  12  14
ENDBRANCH   1  10
BRANCH   1  20
ATOM     20  N   UNL     1       1.827  -4.182   3.500  0.00  0.00    -0.286 N 
ATOM     21  C   UNL     1       3.105  -4.452   3.165  0.00  0.00    +0.216 C 
ATOM     22  O   UNL     1       3.778  -5.172   3.872  0.00  0.00    -0.276 OA
BRANCH  21  23
ATOM     23  C   UNL     1       3.696  -3.860   1.912  0.00  0.00    +0.092 C 
ATOM     24  C   UNL     1       5.148  -4.321   1.766  0.00  0.00    +0.013 C 
ENDBRANCH  21  23
BRANCH  20  25
ATOM     25  C   UNL     1       0.975  -3.422   2.583  0.00  0.00    +0.109 C 
BRANCH  25  26
ATOM     26  C   UNL     1       1.102  -1.928   2.889  0.00  0.00    +0.019 C 
BRANCH  26  27
ATOM     27  C   UNL     1       0.211  -1.134   1.931  0.00  0.00    +0.002 C 
BRANCH  27  28
ATOM     28  C   UNL     1       0.338   0.360   2.237  0.00  0.00    -0.000 C 
BRANCH  28  30
ATOM     29  C   UNL     1      -0.426   2.647   1.585  0.00  0.00    +0.004 C 
ATOM     30  C   UNL     1      -0.553   1.154   1.279  0.00  0.00    -0.003 C 
ENDBRANCH  28  30
ENDBRANCH  27  28
ENDBRANCH  26  27
ENDBRANCH  25  26
ENDBRANCH  20  25
ENDBRANCH   1  20
TORSDOF 10
