REMARK  Name = ZINC12808363
REMARK  11 active torsions:
REMARK  status: ('A' for Active; 'I' for Inactive)
REMARK    1  A    between atoms: C_1  and  C_2
REMARK    2  A    between atoms: C_2  and  N_58
REMARK    3  A    between atoms: C_3  and  C_4
REMARK    4  A    between atoms: C_3  and  N_58
REMARK    5  A    between atoms: N_6  and  C_7
REMARK    6  A    between atoms: C_10  and  N_13
REMARK    7  A    between atoms: C_14  and  C_16
REMARK    8  A    between atoms: C_17  and  C_19
REMARK    9  A    between atoms: C_17  and  C_26
REMARK   10  A    between atoms: C_17  and  N_58
REMARK   11  A    between atoms: N_28  and  C_29
REMARK                            x       y       z     vdW  Elec       q    Type
REMARK                         _______ _______ _______ _____ _____    ______ ____
ROOT
ATOM      1  N   UNL     1      -6.172   7.052  -0.500  0.00  0.00    +0.396 N 
ATOM      2  H   UNL     1      -5.467   7.381   0.171  0.00  0.00    -0.080 HD
ENDROOT
BRANCH   1   4
ATOM      3  C   UNL     1      -6.701   6.819  -2.903  0.00  0.00    -0.017 C 
ATOM      4  C   UNL     1      -5.645   7.216  -1.871  0.00  0.00    -0.080 C 
ENDBRANCH   1   4
BRANCH   1   5
ATOM      5  C   UNL     1      -6.458   5.626  -0.236  0.00  0.00    +0.020 C 
BRANCH   5   6
ATOM      6  C   UNL     1      -5.156   4.869  -0.195  0.00  0.00    +0.201 C 
ATOM      7  O   UNL     1      -4.109   5.452  -0.383  0.00  0.00    -0.278 OA
ATOM      8  N   UNL     1      -5.154   3.544   0.051  0.00  0.00    -0.287 N 
ATOM      9  H   UNL     1      -5.985   3.088   0.257  0.00  0.00    +0.155 HD
BRANCH   8  10
ATOM     10  C   UNL     1      -3.953   2.825   0.008  0.00  0.00    +0.033 A 
ATOM     11  C   UNL     1      -3.941   1.520  -0.465  0.00  0.00    +0.025 A 
ATOM     12  C   UNL     1      -2.756   0.812  -0.508  0.00  0.00    +0.025 A 
ATOM     13  C   UNL     1      -1.577   1.405  -0.077  0.00  0.00    +0.033 A 
ATOM     14  C   UNL     1      -1.590   2.708   0.402  0.00  0.00    +0.025 A 
ATOM     15  C   UNL     1      -2.773   3.418   0.439  0.00  0.00    +0.025 A 
BRANCH  13  16
ATOM     16  N   UNL     1      -0.375   0.686  -0.121  0.00  0.00    -0.286 N 
ATOM     17  C   UNL     1      -0.146  -0.184  -1.124  0.00  0.00    +0.214 C 
ATOM     18  O   UNL     1      -1.007  -0.394  -1.953  0.00  0.00    -0.276 OA
ATOM     19  C   UNL     1       1.179  -0.896  -1.216  0.00  0.00    +0.109 C 
ATOM     20  H   UNL     1       0.290   0.812   0.573  0.00  0.00    +0.155 HD
ENDBRANCH  13  16
ENDBRANCH   8  10
ENDBRANCH   5   6
ENDBRANCH   1   5
BRANCH   1  21
ATOM     21  C   UNL     1      -7.403   7.853  -0.333  0.00  0.00    +0.051 C 
BRANCH  21  22
ATOM     22  C   UNL     1      -7.126   9.274  -0.751  0.00  0.00    -0.052 A 
ATOM     23  C   UNL     1      -5.899   9.849  -0.474  0.00  0.00    +0.005 A 
ATOM     24  C   UNL     1      -5.642  11.150  -0.862  0.00  0.00    +0.038 A 
ATOM     25  C   UNL     1      -6.617  11.882  -1.518  0.00  0.00    +0.123 A 
ATOM     26  C   UNL     1      -7.847  11.308  -1.790  0.00  0.00    +0.038 A 
ATOM     27  C   UNL     1      -8.100  10.004  -1.406  0.00  0.00    +0.005 A 
ATOM     28  F   UNL     1      -6.369  13.156  -1.892  0.00  0.00    -0.205 F 
ENDBRANCH  21  22
BRANCH  21  29
ATOM     29  C   UNL     1      -7.808   7.827   1.118  0.00  0.00    +0.204 C 
ATOM     30  O   UNL     1      -7.153   7.195   1.919  0.00  0.00    -0.277 OA
ATOM     31  N   UNL     1      -8.899   8.505   1.526  0.00  0.00    -0.314 N 
ATOM     32  H   UNL     1      -9.424   9.010   0.885  0.00  0.00    +0.149 HD
BRANCH  31  33
ATOM     33  C   UNL     1      -9.293   8.479   2.937  0.00  0.00    +0.073 C 
ATOM     34  C   UNL     1     -10.779   8.292   3.252  0.00  0.00    +0.024 C 
ATOM     35  C   UNL     1     -10.117   9.656   3.462  0.00  0.00    +0.024 C 
ENDBRANCH  31  33
ENDBRANCH  21  29
ENDBRANCH   1  21
TORSDOF 9
