REMARK  Name = ZINC41663778
REMARK  2 active torsions:
REMARK  status: ('A' for Active; 'I' for Inactive)
REMARK    1  A    between atoms: C_9  and  C_13
REMARK    2  A    between atoms: N_25  and  C_28
REMARK                            x       y       z     vdW  Elec       q    Type
REMARK                         _______ _______ _______ _____ _____    ______ ____
ROOT
ATOM      1  C   UNL     1       6.124  -0.540   0.338  0.00  0.00    +0.006 A 
ATOM      2  C   UNL     1       6.627  -1.219  -0.761  0.00  0.00    +0.101 A 
ATOM      3  C   UNL     1       7.898  -1.808  -0.686  0.00  0.00    +0.338 A 
ATOM      4  O   UNL     1       8.332  -2.404  -1.657  0.00  0.00    -0.245 OA
ATOM      5  O   UNL     1       8.650  -1.734   0.423  0.00  0.00    -0.422 OA
ATOM      6  C   UNL     1       8.225  -1.091   1.533  0.00  0.00    +0.148 A 
ATOM      7  C   UNL     1       6.967  -0.467   1.544  0.00  0.00    +0.026 A 
ATOM      8  C   UNL     1       6.529   0.204   2.687  0.00  0.00    +0.016 A 
ATOM      9  C   UNL     1       7.330   0.256   3.792  0.00  0.00    +0.047 A 
ATOM     10  C   UNL     1       8.582  -0.359   3.789  0.00  0.00    +0.130 A 
ATOM     11  C   UNL     1       9.025  -1.038   2.667  0.00  0.00    +0.051 A 
ATOM     12  C   UNL     1      10.373  -1.712   2.652  0.00  0.00    +0.130 C 
ATOM     13  N   UNL     1      11.194  -1.196   3.756  0.00  0.00    -0.261 NA
ATOM     14  C   UNL     1      10.431  -1.227   5.014  0.00  0.00    +0.319 C 
ATOM     15  O   UNL     1       9.354  -0.286   4.905  0.00  0.00    -0.476 OA
ENDROOT
BRANCH   1  24
ATOM     16  C   UNL     1      -0.017   1.385   0.010  0.00  0.00    +0.023 A 
ATOM     17  C   UNL     1       1.161   2.103   0.002  0.00  0.00    +0.048 A 
ATOM     18  C   UNL     1       2.379   1.438  -0.006  0.00  0.00    +0.139 A 
ATOM     19  C   UNL     1       2.404   0.031   0.014  0.00  0.00    +0.020 A 
ATOM     20  C   UNL     1       1.199  -0.684  -0.001  0.00  0.00    +0.031 A 
ATOM     21  C   UNL     1       0.002  -0.004   0.002  0.00  0.00    +0.042 A 
ATOM     22 CL   UNL     1      -1.492  -0.887  -0.004  0.00  0.00    -0.084 Cl
ATOM     23  C   UNL     1       3.647  -0.653   0.070  0.00  0.00    +0.027 A 
ATOM     24  C   UNL     1       4.793   0.093   0.298  0.00  0.00    +0.068 A 
ATOM     25  C   UNL     1       4.628   1.544   0.500  0.00  0.00    +0.345 A 
ATOM     26  O   UNL     1       5.444   2.188   1.134  0.00  0.00    -0.245 OA
ATOM     27  O   UNL     1       3.540   2.137  -0.043  0.00  0.00    -0.422 OA
ENDBRANCH   1  24
BRANCH  13  28
ATOM     28  C   UNL     1      12.446  -1.955   3.880  0.00  0.00    +0.083 C 
ATOM     29  C   UNL     1      13.251  -1.828   2.576  0.00  0.00    +0.043 C 
ATOM     30  C   UNL     1      14.687  -2.365   2.840  0.00  0.00    +0.167 C 
ATOM     31  S   UNL     1      15.004  -1.672   4.517  0.00  0.00    -0.029 S 
ATOM     32  O   UNL     1      15.591  -2.679   5.330  0.00  0.00    -0.174 OA
ATOM     33  O   UNL     1      15.652  -0.415   4.383  0.00  0.00    -0.174 OA
ATOM     34  C   UNL     1      13.271  -1.396   5.064  0.00  0.00    +0.184 C 
ENDBRANCH  13  28
TORSDOF 2
