REMARK  Name = ZINC00714946
REMARK  4 active torsions:
REMARK  status: ('A' for Active; 'I' for Inactive)
REMARK    1  A    between atoms: C_4  and  N_7
REMARK    2  A    between atoms: C_13  and  C_15
REMARK    3  A    between atoms: C_20  and  C_33
REMARK    4  A    between atoms: C_23  and  C_26
REMARK                            x       y       z     vdW  Elec       q    Type
REMARK                         _______ _______ _______ _____ _____    ______ ____
ROOT
ATOM      1  C   UNL     1       6.924  -4.082   1.106  0.00  0.00    +0.149 A 
ATOM      2  C   UNL     1       8.077  -4.895   1.195  0.00  0.00    +0.078 A 
ATOM      3  C   UNL     1       7.673  -6.180   1.148  0.00  0.00    +0.119 A 
ATOM      4  N   UNL     1       6.312  -6.194   1.031  0.00  0.00    -0.238 N 
ATOM      5  N   UNL     1       5.869  -4.872   1.014  0.00  0.00    -0.164 NA
ATOM      6  C   UNL     1       5.516  -7.422   0.947  0.00  0.00    +0.215 C 
ATOM      7  C   UNL     1       6.431  -8.579   0.529  0.00  0.00    +0.063 C 
ATOM      8  C   UNL     1       7.680  -8.604   1.417  0.00  0.00    +0.104 C 
ATOM      9  N   UNL     1       8.433  -7.352   1.203  0.00  0.00    -0.322 N 
ATOM     10  H   UNL     1       9.398  -7.343   1.107  0.00  0.00    +0.148 HD
ENDROOT
BRANCH   1  17
ATOM     11  N   UNL     1       3.693  -0.646   2.453  0.00  0.00    -0.327 N 
ATOM     12  C   UNL     1       3.740  -2.109   2.580  0.00  0.00    +0.124 C 
ATOM     13  C   UNL     1       4.467  -2.684   1.358  0.00  0.00    +0.127 C 
ATOM     14  N   UNL     1       5.726  -1.949   1.172  0.00  0.00    -0.293 N 
ATOM     15  C   UNL     1       5.679  -0.486   1.045  0.00  0.00    +0.127 C 
ATOM     16  C   UNL     1       4.952   0.089   2.261  0.00  0.00    +0.124 C 
ATOM     17  C   UNL     1       6.902  -2.605   1.119  0.00  0.00    +0.267 C 
ATOM     18  O   UNL     1       7.945  -1.981   1.083  0.00  0.00    -0.268 OA
BRANCH  11  22
ATOM     19  C   UNL     1       0.060   1.381   2.615  0.00  0.00    +0.000 A 
ATOM     20  C   UNL     1       1.244   2.092   2.550  0.00  0.00    +0.002 A 
ATOM     21  C   UNL     1       2.451   1.423   2.497  0.00  0.00    +0.023 A 
ATOM     22  C   UNL     1       2.474   0.034   2.508  0.00  0.00    +0.030 A 
ATOM     23  C   UNL     1       1.283  -0.677   2.573  0.00  0.00    +0.023 A 
ATOM     24  C   UNL     1       0.079  -0.002   2.626  0.00  0.00    +0.002 A 
ENDBRANCH  11  22
ENDBRANCH   1  17
BRANCH   8  25
ATOM     25  C   UNL     1       8.540  -9.785   1.048  0.00  0.00    -0.027 A 
ATOM     26  C   UNL     1       9.374  -9.716  -0.051  0.00  0.00    +0.007 A 
ATOM     27  C   UNL     1      10.163 -10.800  -0.390  0.00  0.00    +0.020 A 
ATOM     28  C   UNL     1      10.117 -11.953   0.372  0.00  0.00    +0.041 A 
ATOM     29  C   UNL     1       9.281 -12.022   1.473  0.00  0.00    +0.020 A 
ATOM     30  C   UNL     1       8.497 -10.936   1.814  0.00  0.00    +0.007 A 
ATOM     31 CL   UNL     1      11.107 -13.315  -0.052  0.00  0.00    -0.084 Cl
ENDBRANCH   8  25
BRANCH   6  32
ATOM     32  C   UNL     1       4.406  -7.243  -0.091  0.00  0.00    +0.412 C 
ATOM     33  F   UNL     1       4.974  -6.970  -1.340  0.00  0.00    -0.168 F 
ATOM     34  F   UNL     1       3.647  -8.416  -0.170  0.00  0.00    -0.168 F 
ATOM     35  F   UNL     1       3.581  -6.179   0.288  0.00  0.00    -0.168 F 
ENDBRANCH   6  32
TORSDOF 4
