REMARK  Name = ZINC33916877
REMARK  9 active torsions:
REMARK  status: ('A' for Active; 'I' for Inactive)
REMARK    1  A    between atoms: C_1  and  C_2
REMARK    2  A    between atoms: C_13  and  C_15
REMARK    3  A    between atoms: C_15  and  C_17
REMARK    4  A    between atoms: C_17  and  C_18
REMARK    5  A    between atoms: C_25  and  O_26
REMARK    6  A    between atoms: O_26  and  C_27
REMARK    7  A    between atoms: N_33  and  C_34
REMARK    8  A    between atoms: C_38  and  C_45
REMARK    9  A    between atoms: C_41  and  O_44
REMARK                            x       y       z     vdW  Elec       q    Type
REMARK                         _______ _______ _______ _____ _____    ______ ____
ROOT
ATOM      1  C   UNL     1       0.266   1.465  -0.014  0.00  0.00    +0.012 C 
ATOM      2  C   UNL     1       0.127  -0.055  -0.034  0.00  0.00    -0.019 C 
ATOM      3  C   UNL     1      -1.321  -0.457   0.083  0.00  0.00    +0.008 C 
ATOM      4  C   UNL     1      -1.816  -0.170   1.516  0.00  0.00    +0.005 C 
ATOM      5  C   UNL     1      -0.986  -0.929   2.533  0.00  0.00    +0.003 C 
ATOM      6  C   UNL     1       0.503  -0.549   2.442  0.00  0.00    +0.000 C 
ATOM      7  C   UNL     1       0.967  -0.773   1.037  0.00  0.00    -0.001 C 
ATOM      8  C   UNL     1       2.390  -0.354   0.648  0.00  0.00    +0.005 C 
ATOM      9  C   UNL     1       2.356  -0.466  -0.904  0.00  0.00    +0.012 C 
ATOM     10  C   UNL     1       0.858  -0.540  -1.305  0.00  0.00    +0.061 C 
ATOM     11  C   UNL     1       0.688   0.874   2.957  0.00  0.00    +0.031 C 
ATOM     12  C   UNL     1       0.189   0.933   4.378  0.00  0.00    -0.027 C 
ATOM     13  C   UNL     1      -0.774   0.176   4.802  0.00  0.00    -0.065 C 
ATOM     14  C   UNL     1      -1.477  -0.855   3.962  0.00  0.00    -0.008 C 
ATOM     15  C   UNL     1      -1.302  -2.220   4.644  0.00  0.00    +0.014 C 
ATOM     16  C   UNL     1      -0.519  -2.063   5.944  0.00  0.00    +0.032 C 
ATOM     17  C   UNL     1      -1.192  -1.071   6.887  0.00  0.00    +0.119 C 
ATOM     18  C   UNL     1      -1.229   0.320   6.245  0.00  0.00    +0.062 C 
ATOM     19  C   UNL     1      -2.974  -0.536   3.983  0.00  0.00    +0.016 C 
ENDROOT
BRANCH  10  20
ATOM     20  C   UNL     1       0.571   0.395  -2.446  0.00  0.00    +0.136 C 
ATOM     21  O   UNL     1       1.333   1.298  -2.694  0.00  0.00    -0.297 OA
BRANCH  20  22
ATOM     22  C   UNL     1      -0.669   0.206  -3.281  0.00  0.00    +0.064 C 
BRANCH  22  23
ATOM     23  C   UNL     1      -0.655   1.197  -4.447  0.00  0.00    -0.027 C 
ATOM     24  C   UNL     1       0.632   1.043  -5.214  0.00  0.00    -0.012 A 
ATOM     25  C   UNL     1       1.329   2.135  -5.686  0.00  0.00    -0.040 A 
ATOM     26  C   UNL     1       2.509   1.953  -6.391  0.00  0.00    +0.053 A 
ATOM     27  C   UNL     1       2.997   0.679  -6.627  0.00  0.00    +0.170 A 
ATOM     28  C   UNL     1       2.297  -0.425  -6.151  0.00  0.00    +0.208 A 
ATOM     29  C   UNL     1       1.117  -0.240  -5.445  0.00  0.00    +0.167 A 
ATOM     30  O   UNL     1       2.974  -1.558  -6.506  0.00  0.00    -0.449 OA
ATOM     31  C   UNL     1       3.876  -1.153  -7.554  0.00  0.00    +0.467 C 
ATOM     32  O   UNL     1       4.112   0.241  -7.281  0.00  0.00    -0.452 OA
ATOM     33  C   UNL     1       0.840   3.542  -5.450  0.00  0.00    +0.017 C 
ATOM     34  C   UNL     1      -0.630   3.515  -5.032  0.00  0.00    -0.074 C 
ATOM     35  N   UNL     1      -0.784   2.560  -3.924  0.00  0.00    +0.383 N 
ATOM     36  C   UNL     1      -2.108   2.729  -3.311  0.00  0.00    -0.095 C 
ATOM     37  H   UNL     1      -0.067   2.726  -3.233  0.00  0.00    -0.081 HD
BRANCH  29  38
ATOM     38  O   UNL     1       0.431  -1.317  -4.978  0.00  0.00    -0.491 OA
ATOM     39  C   UNL     1      -0.555  -1.883  -5.844  0.00  0.00    +0.277 C 
ENDBRANCH  29  38
ENDBRANCH  22  23
ENDBRANCH  20  22
ENDBRANCH  10  20
BRANCH  17  40
ATOM     40  O   UNL     1      -2.523  -1.505   7.173  0.00  0.00    -0.391 OA
ATOM     41  H   UNL     1      -3.009  -0.919   7.769  0.00  0.00    +0.210 HD
ENDBRANCH  17  40
TORSDOF 5
