REMARK  Name = ZINC10065501
REMARK  5 active torsions:
REMARK  status: ('A' for Active; 'I' for Inactive)
REMARK    1  A    between atoms: C_1  and  N_2
REMARK    2  A    between atoms: N_11  and  C_12
REMARK    3  A    between atoms: C_12  and  C_14
REMARK    4  A    between atoms: N_20  and  S_21
REMARK    5  A    between atoms: S_21  and  C_24
REMARK                            x       y       z     vdW  Elec       q    Type
REMARK                         _______ _______ _______ _____ _____    ______ ____
ROOT
ATOM      1  C   UNL     1      -2.195   4.535  -0.035  0.00  0.00    +0.167 C 
ATOM      2  C   UNL     1      -3.090   4.147   1.146  0.00  0.00    +0.030 C 
ATOM      3  C   UNL     1      -4.161   5.222   1.344  0.00  0.00    +0.003 C 
ATOM      4  C   UNL     1      -3.490   6.560   1.665  0.00  0.00    +0.017 C 
ATOM      5  C   UNL     1      -2.600   6.975   0.489  0.00  0.00    +0.110 C 
ATOM      6  N   UNL     1      -1.661   5.883   0.199  0.00  0.00    -0.164 NA
ENDROOT
BRANCH   6   7
ATOM      7  S   UNL     1      -0.030   6.167   0.137  0.00  0.00    +0.068 S 
ATOM      8  O   UNL     1       0.532   5.135  -0.661  0.00  0.00    -0.152 OA
ATOM      9  O   UNL     1       0.131   7.544  -0.175  0.00  0.00    -0.152 OA
BRANCH   7  10
ATOM     10  C   UNL     1       0.599   5.943   1.768  0.00  0.00    +0.144 A 
ATOM     11  C   UNL     1       1.209   4.859   2.305  0.00  0.00    +0.038 A 
ATOM     12  C   UNL     1       1.630   4.910   3.621  0.00  0.00    +0.030 A 
ATOM     13  C   UNL     1       1.410   6.040   4.338  0.00  0.00    +0.080 A 
ATOM     14  S   UNL     1       0.593   7.083   3.142  0.00  0.00    -0.057 S 
ATOM     15 CL   UNL     1       1.817   6.384   5.990  0.00  0.00    -0.076 Cl
ENDBRANCH   7  10
ENDBRANCH   6   7
BRANCH   1  16
ATOM     16  C   UNL     1      -1.058   3.554  -0.151  0.00  0.00    +0.257 C 
ATOM     17  O   UNL     1      -0.254   3.445   0.755  0.00  0.00    -0.272 OA
BRANCH  16  28
ATOM     18  C   UNL     1      -0.498   1.078  -3.561  0.00  0.00    +0.151 C 
ATOM     19  N   UNL     1       0.360   1.101  -2.374  0.00  0.00    -0.324 N 
ATOM     20  C   UNL     1       1.462   0.267  -2.303  0.00  0.00    +0.057 A 
ATOM     21  C   UNL     1       1.916  -0.659  -3.255  0.00  0.00    +0.030 A 
ATOM     22  C   UNL     1       3.040  -1.415  -3.021  0.00  0.00    +0.040 A 
ATOM     23  C   UNL     1       3.760  -1.286  -1.842  0.00  0.00    +0.125 A 
ATOM     24  C   UNL     1       3.333  -0.380  -0.885  0.00  0.00    +0.055 A 
ATOM     25  C   UNL     1       2.208   0.375  -1.120  0.00  0.00    +0.042 A 
ATOM     26  S   UNL     1       1.334   1.616  -0.200  0.00  0.00    -0.052 S 
ATOM     27  C   UNL     1       0.073   1.940  -1.345  0.00  0.00    +0.166 A 
ATOM     28  N   UNL     1      -0.932   2.807  -1.243  0.00  0.00    -0.155 NA
ATOM     29  F   UNL     1       4.863  -2.036  -1.629  0.00  0.00    -0.205 F 
ENDBRANCH  16  28
ENDBRANCH   1  16
TORSDOF 4
