REMARK  Name = ZINC64520717
REMARK  5 active torsions:
REMARK  status: ('A' for Active; 'I' for Inactive)
REMARK    1  A    between atoms: C_1  and  N_2
REMARK    2  A    between atoms: N_2  and  C_3
REMARK    3  A    between atoms: N_2  and  C_4
REMARK    4  A    between atoms: C_8  and  C_10
REMARK    5  A    between atoms: C_18  and  C_20
REMARK                            x       y       z     vdW  Elec       q    Type
REMARK                         _______ _______ _______ _____ _____    ______ ____
ROOT
ATOM      1  C   UNL     1      -0.034   0.046  -4.898  0.00  0.00    +0.247 C 
ATOM      2  O   UNL     1      -0.153   1.256  -4.901  0.00  0.00    -0.270 OA
ATOM      3  N   UNL     1       0.066  -0.623  -6.064  0.00  0.00    -0.295 N 
ATOM      4  C   UNL     1       0.075  -2.093  -6.084  0.00  0.00    +0.127 C 
ATOM      5  C   UNL     1      -1.044  -2.577  -7.014  0.00  0.00    +0.127 C 
ATOM      6  N   UNL     1      -0.943  -1.851  -8.288  0.00  0.00    -0.297 N 
ATOM      7  C   UNL     1      -0.952  -0.382  -8.268  0.00  0.00    +0.127 C 
ATOM      8  C   UNL     1       0.161   0.103  -7.338  0.00  0.00    +0.127 C 
ATOM      9  C   UNL     1      -0.843  -2.521  -9.453  0.00  0.00    +0.242 C 
ATOM     10  O   UNL     1      -0.836  -3.734  -9.457  0.00  0.00    -0.273 OA
ENDROOT
BRANCH   9  11
ATOM     11  C   UNL     1      -0.740  -1.763 -10.752  0.00  0.00    +0.190 C 
ATOM     12  C   UNL     1       0.519  -0.925 -10.768  0.00  0.00    +0.016 C 
ATOM     13  C   UNL     1       1.254  -1.375 -11.811  0.00  0.00    -0.002 A 
ATOM     14  C   UNL     1       2.561  -0.979 -12.349  0.00  0.00    +0.025 A 
ATOM     15  C   UNL     1       3.049  -1.629 -13.431  0.00  0.00    +0.019 A 
ATOM     16  C   UNL     1       2.339  -2.669 -14.048  0.00  0.00    +0.017 A 
ATOM     17  C   UNL     1       1.133  -3.088 -13.611  0.00  0.00    +0.027 A 
ATOM     18  C   UNL     1       0.525  -2.475 -12.480  0.00  0.00    +0.043 A 
ATOM     19  N   UNL     1      -0.618  -2.698 -11.875  0.00  0.00    -0.370 N 
ATOM     20 BR   UNL     1       4.732  -1.123 -14.128  0.00  0.00    -0.050 Br
ATOM     21  H   UNL     1      -1.272  -3.369 -12.127  0.00  0.00    +0.161 HD
ENDBRANCH   9  11
BRANCH   1  26
ATOM     22  C   UNL     1      -0.834  -1.040  -1.388  0.00  0.00    +0.030 A 
ATOM     23  C   UNL     1       0.075  -2.078  -1.216  0.00  0.00    +0.023 A 
ATOM     24  C   UNL     1       0.942  -2.420  -2.237  0.00  0.00    +0.003 A 
ATOM     25  C   UNL     1       0.910  -1.734  -3.434  0.00  0.00    +0.013 A 
ATOM     26  C   UNL     1       0.001  -0.691  -3.617  0.00  0.00    +0.039 A 
ATOM     27  C   UNL     1      -0.877  -0.348  -2.588  0.00  0.00    +0.036 A 
BRANCH  22  29
ATOM     28  C   UNL     1      -2.670   0.391  -0.536  0.00  0.00    +0.129 C 
ATOM     29  N   UNL     1      -1.708  -0.699  -0.353  0.00  0.00    -0.336 N 
ATOM     30  C   UNL     1      -1.663  -1.430   0.916  0.00  0.00    +0.129 C 
ENDBRANCH  22  29
ENDBRANCH   1  26
TORSDOF 3
