REMARK  Name = ZINC39688502
REMARK  7 active torsions:
REMARK  status: ('A' for Active; 'I' for Inactive)
REMARK    1  A    between atoms: C_1  and  C_2
REMARK    2  A    between atoms: C_2  and  C_4
REMARK    3  A    between atoms: C_2  and  N_12
REMARK    4  A    between atoms: C_4  and  C_5
REMARK    5  A    between atoms: C_13  and  C_15
REMARK    6  A    between atoms: C_26  and  C_28
REMARK    7  A    between atoms: C_32  and  C_34
REMARK                            x       y       z     vdW  Elec       q    Type
REMARK                         _______ _______ _______ _____ _____    ______ ____
ROOT
ATOM      1  C   UNL     1       0.375  -1.525   3.260  0.00  0.00    +0.100 C 
ATOM      2  C   UNL     1       1.079  -2.901   3.231  0.00  0.00    +0.121 C 
ATOM      3  N   UNL     1       0.901  -3.441   4.600  0.00  0.00    -0.296 N 
ATOM      4  C   UNL     1      -0.480  -3.052   4.973  0.00  0.00    +0.115 C 
ATOM      5  C   UNL     1      -0.647  -1.629   4.404  0.00  0.00    -0.004 C 
ATOM      6  C   UNL     1      -0.343  -0.591   5.480  0.00  0.00    -0.010 C 
ATOM      7  C   UNL     1      -1.406  -0.675   6.579  0.00  0.00    -0.082 C 
ATOM      8  N   UNL     1      -2.732  -0.433   5.999  0.00  0.00    +0.379 N 
ATOM      9  C   UNL     1      -3.056  -1.489   5.032  0.00  0.00    -0.082 C 
ATOM     10  C   UNL     1      -2.063  -1.440   3.867  0.00  0.00    -0.010 C 
ATOM     11  C   UNL     1       1.794  -4.130   5.338  0.00  0.00    +0.247 C 
ATOM     12  O   UNL     1       2.931  -4.278   4.935  0.00  0.00    -0.270 OA
ATOM     13  H   UNL     1      -3.424  -0.429   6.734  0.00  0.00    -0.086 HD
ATOM     14  H   UNL     1      -2.736   0.461   5.532  0.00  0.00    -0.086 HD
ENDROOT
BRANCH  11  15
ATOM     15  C   UNL     1       1.389  -4.706   6.637  0.00  0.00    +0.038 A 
ATOM     16  C   UNL     1       0.040  -4.946   6.908  0.00  0.00    +0.016 A 
ATOM     17  C   UNL     1      -0.331  -5.483   8.121  0.00  0.00    +0.039 A 
ATOM     18  C   UNL     1       0.632  -5.786   9.072  0.00  0.00    +0.135 A 
ATOM     19  C   UNL     1       1.972  -5.551   8.809  0.00  0.00    +0.091 A 
ATOM     20  C   UNL     1       2.355  -5.019   7.596  0.00  0.00    +0.028 A 
ATOM     21  F   UNL     1       0.262  -6.313  10.260  0.00  0.00    -0.205 F 
BRANCH  19  22
ATOM     22  C   UNL     1       3.013  -5.882   9.847  0.00  0.00    +0.420 C 
ATOM     23  F   UNL     1       4.282  -5.559   9.355  0.00  0.00    -0.166 F 
ATOM     24  F   UNL     1       2.762  -5.146  11.010  0.00  0.00    -0.166 F 
ATOM     25  F   UNL     1       2.960  -7.249  10.140  0.00  0.00    -0.166 F 
ENDBRANCH  19  22
ENDBRANCH  11  15
BRANCH   1  27
ATOM     26  N   UNL     1      -0.498  -0.004   1.516  0.00  0.00    -0.312 N 
ATOM     27  C   UNL     1      -0.326  -1.268   1.951  0.00  0.00    +0.218 C 
ATOM     28  O   UNL     1      -0.736  -2.198   1.289  0.00  0.00    -0.275 OA
ATOM     29  H   UNL     1      -0.170   0.740   2.045  0.00  0.00    +0.149 HD
BRANCH  26  31
ATOM     30  C   UNL     1      -2.692   0.276   0.473  0.00  0.00    +0.028 C 
ATOM     31  C   UNL     1      -1.180   0.247   0.244  0.00  0.00    +0.074 C 
BRANCH  31  32
ATOM     32  C   UNL     1      -0.724   1.593  -0.323  0.00  0.00    +0.057 C 
BRANCH  32  33
ATOM     33  C   UNL     1       0.743   1.524  -0.663  0.00  0.00    -0.045 A 
ATOM     34  C   UNL     1       1.689   1.859   0.288  0.00  0.00    +0.006 A 
ATOM     35  C   UNL     1       3.034   1.796  -0.023  0.00  0.00    +0.038 A 
ATOM     36  C   UNL     1       3.434   1.396  -1.287  0.00  0.00    +0.123 A 
ATOM     37  C   UNL     1       2.485   1.061  -2.239  0.00  0.00    +0.038 A 
ATOM     38  C   UNL     1       1.141   1.120  -1.924  0.00  0.00    +0.006 A 
ATOM     39  F   UNL     1       4.748   1.334  -1.592  0.00  0.00    -0.205 F 
ENDBRANCH  32  33
ENDBRANCH  31  32
ENDBRANCH  26  31
ENDBRANCH   1  27
TORSDOF 6
