REMARK  Name = ZINC46576983
REMARK  6 active torsions:
REMARK  status: ('A' for Active; 'I' for Inactive)
REMARK    1  A    between atoms: C_3  and  S_6
REMARK    2  A    between atoms: S_6  and  N_9
REMARK    3  A    between atoms: N_9  and  C_10
REMARK    4  A    between atoms: C_13  and  C_16
REMARK    5  A    between atoms: N_18  and  C_19
REMARK    6  A    between atoms: C_23  and  C_25
REMARK                            x       y       z     vdW  Elec       q    Type
REMARK                         _______ _______ _______ _____ _____    ______ ____
ROOT
ATOM      1  C   UNL     1       9.662   3.941   2.760  0.00  0.00    +0.248 C 
ATOM      2  O   UNL     1      10.432   4.221   1.861  0.00  0.00    -0.270 OA
ATOM      3  N   UNL     1      10.050   4.066   4.044  0.00  0.00    -0.281 N 
ATOM      4  H   UNL     1       9.416   3.907   4.761  0.00  0.00    +0.155 HD
ENDROOT
BRANCH   3   5
ATOM      5  C   UNL     1      11.369   4.425   4.344  0.00  0.00    +0.034 A 
ATOM      6  C   UNL     1      12.051   5.316   3.523  0.00  0.00    +0.025 A 
ATOM      7  C   UNL     1      13.353   5.674   3.814  0.00  0.00    +0.022 A 
ATOM      8  C   UNL     1      13.987   5.149   4.924  0.00  0.00    +0.053 A 
ATOM      9  C   UNL     1      13.311   4.253   5.755  0.00  0.00    +0.057 A 
ATOM     10  C   UNL     1      11.994   3.896   5.463  0.00  0.00    +0.037 A 
ATOM     11 CL   UNL     1      15.624   5.601   5.284  0.00  0.00    -0.083 Cl
BRANCH   9  12
ATOM     12  C   UNL     1      13.986   3.688   6.942  0.00  0.00    +0.243 C 
ATOM     13  O   UNL     1      15.132   4.003   7.197  0.00  0.00    -0.270 OA
ATOM     14  N   UNL     1      13.331   2.824   7.742  0.00  0.00    -0.325 N 
ATOM     15  H   UNL     1      12.416   2.572   7.539  0.00  0.00    +0.145 HD
ATOM     16  H   UNL     1      13.774   2.453   8.521  0.00  0.00    +0.145 HD
ENDBRANCH   9  12
ENDBRANCH   3   5
BRANCH   1  20
ATOM     17  C   UNL     1       5.748   2.566   1.851  0.00  0.00    +0.074 A 
ATOM     18  C   UNL     1       6.629   2.887   0.821  0.00  0.00    +0.027 A 
ATOM     19  C   UNL     1       7.897   3.333   1.112  0.00  0.00    +0.015 A 
ATOM     20  C   UNL     1       8.302   3.464   2.444  0.00  0.00    +0.037 A 
ATOM     21  C   UNL     1       7.416   3.140   3.476  0.00  0.00    +0.015 A 
ATOM     22  C   UNL     1       6.147   2.700   3.178  0.00  0.00    +0.027 A 
BRANCH  17  23
ATOM     23  N   UNL     1       4.467   2.116   1.553  0.00  0.00    -0.097 NA
BRANCH  23  24
ATOM     24  S   UNL     1       3.991   1.957  -0.025  0.00  0.00    +0.098 S 
ATOM     25  O   UNL     1       4.783   0.918  -0.585  0.00  0.00    -0.148 OA
ATOM     26  O   UNL     1       3.956   3.267  -0.573  0.00  0.00    -0.148 OA
BRANCH  24  29
ATOM     27  C   UNL     1      -0.029   1.402   0.008  0.00  0.00    +0.010 A 
ATOM     28  C   UNL     1       1.175   2.081  -0.000  0.00  0.00    +0.037 A 
ATOM     29  C   UNL     1       2.329   1.371  -0.012  0.00  0.00    +0.148 A 
ATOM     30  S   UNL     1       1.730  -0.310  -0.010  0.00  0.00    -0.077 S 
ATOM     31  C   UNL     1      -0.020   0.046   0.005  0.00  0.00    +0.047 A 
ENDBRANCH  24  29
ENDBRANCH  23  24
ENDBRANCH  17  23
ENDBRANCH   1  20
TORSDOF 6
