REMARK  Name = ZINC57579425
REMARK  2 active torsions:
REMARK  status: ('A' for Active; 'I' for Inactive)
REMARK    1  A    between atoms: C_6  and  C_7
REMARK    2  A    between atoms: C_13  and  C_15
REMARK                            x       y       z     vdW  Elec       q    Type
REMARK                         _______ _______ _______ _____ _____    ______ ____
ROOT
ATOM      1  C   UNL     1      -1.294  -0.774   0.010  0.00  0.00    +0.022 C 
ATOM      2  C   UNL     1      -2.111  -0.408  -1.231  0.00  0.00    +0.027 C 
ATOM      3  C   UNL     1      -3.412  -1.218  -1.237  0.00  0.00    +0.108 C 
ATOM      4  N   UNL     1      -4.113  -0.996   0.035  0.00  0.00    -0.300 N 
ATOM      5  C   UNL     1      -3.389  -1.230   1.292  0.00  0.00    +0.108 C 
ATOM      6  C   UNL     1      -2.088  -0.420   1.269  0.00  0.00    +0.027 C 
ATOM      7  C   UNL     1      -5.397  -0.585   0.049  0.00  0.00    +0.230 C 
ATOM      8  O   UNL     1      -5.984  -0.394  -0.995  0.00  0.00    -0.274 OA
ENDROOT
BRANCH   1  14
ATOM      9  C   UNL     1      -0.017   1.378   0.010  0.00  0.00    +0.008 A 
ATOM     10  C   UNL     1       1.170   2.088   0.002  0.00  0.00    +0.050 A 
ATOM     11  C   UNL     1       2.380   1.416  -0.013  0.00  0.00    +0.166 A 
ATOM     12  C   UNL     1       2.399   0.023  -0.021  0.00  0.00    +0.166 A 
ATOM     13  C   UNL     1       1.207  -0.682  -0.014  0.00  0.00    +0.053 A 
ATOM     14  C   UNL     1       0.002  -0.004   0.002  0.00  0.00    -0.040 A 
ATOM     15  O   UNL     1       3.698  -0.395  -0.036  0.00  0.00    -0.453 OA
ATOM     16  C   UNL     1       4.466   0.750  -0.450  0.00  0.00    +0.466 C 
ATOM     17  O   UNL     1       3.668   1.870  -0.024  0.00  0.00    -0.453 OA
ENDBRANCH   1  14
BRANCH   7  18
ATOM     18  C   UNL     1      -6.102  -0.361   1.362  0.00  0.00    +0.204 C 
ATOM     19 CL   UNL     1      -7.793   0.181   1.051  0.00  0.00    -0.116 Cl
ENDBRANCH   7  18
TORSDOF 2
