REMARK  Name = ZINC63139606
REMARK  5 active torsions:
REMARK  status: ('A' for Active; 'I' for Inactive)
REMARK    1  A    between atoms: C_1  and  C_2
REMARK    2  A    between atoms: C_2  and  C_3
REMARK    3  A    between atoms: C_2  and  C_4
REMARK    4  A    between atoms: C_7  and  C_10
REMARK    5  A    between atoms: N_29  and  C_32
REMARK                            x       y       z     vdW  Elec       q    Type
REMARK                         _______ _______ _______ _____ _____    ______ ____
ROOT
ATOM      1  C   UNL     1      -5.421  -2.014   0.069  0.00  0.00    +0.133 C 
ATOM      2  C   UNL     1      -6.276  -1.118  -0.827  0.00  0.00    +0.131 C 
ATOM      3  C   UNL     1      -5.909  -1.491  -2.262  0.00  0.00    -0.034 C 
ATOM      4  C   UNL     1      -5.416  -0.397  -2.827  0.00  0.00    -0.001 A 
ATOM      5  C   UNL     1      -4.924  -0.135  -4.189  0.00  0.00    +0.010 A 
ATOM      6  C   UNL     1      -4.476   1.125  -4.433  0.00  0.00    +0.001 A 
ATOM      7  C   UNL     1      -4.468   2.138  -3.470  0.00  0.00    +0.002 A 
ATOM      8  C   UNL     1      -4.902   1.986  -2.193  0.00  0.00    +0.026 A 
ATOM      9  C   UNL     1      -5.399   0.704  -1.817  0.00  0.00    +0.043 A 
ATOM     10  N   UNL     1      -5.889   0.290  -0.666  0.00  0.00    -0.375 N 
ATOM     11  C   UNL     1      -6.103  -2.890  -2.778  0.00  0.00    +0.065 C 
ATOM     12  C   UNL     1      -5.696  -3.885  -1.722  0.00  0.00    +0.167 C 
ATOM     13  N   UNL     1      -5.417  -3.395  -0.391  0.00  0.00    -0.279 N 
ATOM     14  C   UNL     1      -5.061  -4.356   0.525  0.00  0.00    +0.234 C 
ATOM     15  O   UNL     1      -4.868  -4.081   1.691  0.00  0.00    -0.274 OA
ATOM     16  C   UNL     1      -4.922  -5.773   0.011  0.00  0.00    +0.204 C 
ATOM     17  N   UNL     1      -4.189  -5.737  -1.267  0.00  0.00    -0.288 N 
ATOM     18  C   UNL     1      -4.582  -4.798  -2.170  0.00  0.00    +0.237 C 
ATOM     19  O   UNL     1      -4.069  -4.702  -3.265  0.00  0.00    -0.274 OA
ATOM     20  H   UNL     1      -5.979   0.811   0.148  0.00  0.00    +0.160 HD
ENDROOT
BRANCH   1  24
ATOM     21  C   UNL     1      -1.410  -0.545   0.084  0.00  0.00    -0.045 A 
ATOM     22  C   UNL     1      -2.264  -0.231   1.124  0.00  0.00    +0.004 A 
ATOM     23  C   UNL     1      -3.562  -0.706   1.119  0.00  0.00    +0.006 A 
ATOM     24  C   UNL     1      -4.006  -1.495   0.073  0.00  0.00    -0.025 A 
ATOM     25  C   UNL     1      -3.151  -1.808  -0.967  0.00  0.00    +0.006 A 
ATOM     26  C   UNL     1      -1.854  -1.329  -0.964  0.00  0.00    +0.004 A 
BRANCH  21  28
ATOM     27  C   UNL     1      -0.012   1.503   0.112  0.00  0.00    +0.012 C 
ATOM     28  C   UNL     1       0.005  -0.026   0.089  0.00  0.00    +0.013 C 
ATOM     29  C   UNL     1       0.734  -0.547   1.329  0.00  0.00    +0.012 C 
ENDBRANCH  21  28
ENDBRANCH   1  24
BRANCH  17  30
ATOM     30  C   UNL     1      -3.091  -6.666  -1.550  0.00  0.00    +0.077 C 
ATOM     31  C   UNL     1      -1.937  -6.439  -0.553  0.00  0.00    +0.022 C 
ATOM     32  C   UNL     1      -2.181  -7.492   0.557  0.00  0.00    +0.002 C 
ATOM     33  C   UNL     1      -2.681  -8.721  -0.243  0.00  0.00    +0.002 C 
ATOM     34  C   UNL     1      -3.564  -8.117  -1.353  0.00  0.00    +0.022 C 
ENDBRANCH  17  30
TORSDOF 3
