REMARK  Name = ZINC13251329
REMARK  8 active torsions:
REMARK  status: ('A' for Active; 'I' for Inactive)
REMARK    1  A    between atoms: C_1  and  O_2
REMARK    2  A    between atoms: O_2  and  C_3
REMARK    3  A    between atoms: C_6  and  N_21
REMARK    4  A    between atoms: C_8  and  N_9
REMARK    5  A    between atoms: N_9  and  S_10
REMARK    6  A    between atoms: S_10  and  C_13
REMARK    7  A    between atoms: C_22  and  C_24
REMARK    8  A    between atoms: C_30  and  C_32
REMARK                            x       y       z     vdW  Elec       q    Type
REMARK                         _______ _______ _______ _____ _____    ______ ____
ROOT
ATOM      1  C   UNL     1       3.056   1.621  -3.684  0.00  0.00    +0.142 A 
ATOM      2  C   UNL     1       2.876   2.825  -4.344  0.00  0.00    +0.049 A 
ATOM      3  C   UNL     1       3.519   3.964  -3.896  0.00  0.00    +0.027 A 
ATOM      4  C   UNL     1       4.342   3.905  -2.780  0.00  0.00    +0.035 A 
ATOM      5  C   UNL     1       4.521   2.701  -2.112  0.00  0.00    +0.051 A 
ATOM      6  C   UNL     1       3.877   1.559  -2.561  0.00  0.00    +0.091 A 
ENDROOT
BRANCH   4   7
ATOM      7  N   UNL     1       4.993   5.060  -2.328  0.00  0.00    -0.285 N 
ATOM      8  C   UNL     1       5.389   5.999  -3.210  0.00  0.00    +0.221 C 
ATOM      9  O   UNL     1       5.263   5.804  -4.401  0.00  0.00    -0.275 OA
ATOM     10  H   UNL     1       5.159   5.184  -1.380  0.00  0.00    +0.155 HD
BRANCH   8  11
ATOM     11  C   UNL     1       5.989   7.291  -2.717  0.00  0.00    +0.093 C 
ATOM     12  C   UNL     1       7.114   7.728  -3.658  0.00  0.00    +0.040 C 
ATOM     13  C   UNL     1       6.544   8.174  -4.973  0.00  0.00    -0.030 C 
ATOM     14  C   UNL     1       5.301   8.484  -5.157  0.00  0.00    -0.030 C 
ATOM     15  C   UNL     1       4.253   8.432  -4.083  0.00  0.00    +0.042 C 
ATOM     16  C   UNL     1       4.914   8.386  -2.704  0.00  0.00    +0.118 C 
BRANCH  16  17
ATOM     17  C   UNL     1       3.879   8.067  -1.657  0.00  0.00    +0.360 C 
ATOM     18  O   UNL     1       3.985   7.067  -0.987  0.00  0.00    -0.246 OA
ATOM     19  O   UNL     1       2.838   8.893  -1.468  0.00  0.00    -0.246 OA
ENDBRANCH  16  17
ENDBRANCH   8  11
ENDBRANCH   4   7
BRANCH   1  21
ATOM     20  C   UNL     1       1.600   0.637  -5.288  0.00  0.00    +0.277 C 
ATOM     21  O   UNL     1       2.427   0.500  -4.130  0.00  0.00    -0.493 OA
ENDBRANCH   1  21
BRANCH   6  22
ATOM     22  N   UNL     1       4.055   0.344  -1.889  0.00  0.00    -0.213 N 
ATOM     23  H   UNL     1       4.081  -0.487  -2.389  0.00  0.00    +0.174 HD
BRANCH  22  24
ATOM     24  S   UNL     1       4.223   0.325  -0.242  0.00  0.00    +0.072 S 
ATOM     25  O   UNL     1       5.276   1.227   0.070  0.00  0.00    -0.150 OA
ATOM     26  O   UNL     1       4.250  -1.041   0.148  0.00  0.00    -0.150 OA
BRANCH  24  27
ATOM     27  C   UNL     1       2.751   1.014   0.439  0.00  0.00    +0.110 A 
ATOM     28  C   UNL     1       1.681   0.194   0.744  0.00  0.00    +0.030 A 
ATOM     29  C   UNL     1       0.523   0.734   1.273  0.00  0.00    +0.023 A 
ATOM     30  C   UNL     1       0.440   2.095   1.508  0.00  0.00    +0.059 A 
ATOM     31  C   UNL     1       1.512   2.917   1.202  0.00  0.00    +0.061 A 
ATOM     32  C   UNL     1       2.667   2.375   0.668  0.00  0.00    +0.050 A 
ATOM     33 CL   UNL     1       1.406   4.625   1.491  0.00  0.00    -0.082 Cl
ATOM     34 CL   UNL     1      -1.011   2.773   2.178  0.00  0.00    -0.082 Cl
ENDBRANCH  24  27
ENDBRANCH  22  24
ENDBRANCH   6  22
TORSDOF 7
