REMARK  Name = ZINC39955049
REMARK  4 active torsions:
REMARK  status: ('A' for Active; 'I' for Inactive)
REMARK    1  A    between atoms: C_3  and  C_8
REMARK    2  A    between atoms: C_9  and  C_21
REMARK    3  A    between atoms: C_10  and  N_20
REMARK    4  A    between atoms: N_11  and  C_13
REMARK                            x       y       z     vdW  Elec       q    Type
REMARK                         _______ _______ _______ _____ _____    ______ ____
ROOT
ATOM      1  C   UNL     1       3.659   2.167  -0.022  0.00  0.00    +0.112 A 
ATOM      2  C   UNL     1       4.909   1.773   0.637  0.00  0.00    +0.119 A 
ATOM      3  C   UNL     1       5.829   2.780   0.361  0.00  0.00    +0.138 A 
ATOM      4  N   UNL     1       5.200   3.710  -0.400  0.00  0.00    -0.217 N 
ATOM      5  N   UNL     1       3.879   3.312  -0.625  0.00  0.00    -0.163 NA
ENDROOT
BRANCH   1   8
ATOM      6  C   UNL     1      -0.017   1.379   0.010  0.00  0.00    +0.003 A 
ATOM      7  C   UNL     1       1.167   2.088   0.002  0.00  0.00    +0.010 A 
ATOM      8  C   UNL     1       2.385   1.409  -0.013  0.00  0.00    +0.006 A 
ATOM      9  C   UNL     1       2.400   0.015  -0.021  0.00  0.00    +0.048 A 
ATOM     10  C   UNL     1       1.209  -0.685  -0.013  0.00  0.00    +0.124 A 
ATOM     11  C   UNL     1       0.002  -0.004   0.002  0.00  0.00    +0.038 A 
ATOM     12  F   UNL     1       1.221  -2.036  -0.020  0.00  0.00    -0.205 F 
ENDBRANCH   1   8
BRANCH   4  13
ATOM     13  C   UNL     1       5.784   4.885  -0.888  0.00  0.00    +0.069 A 
ATOM     14  C   UNL     1       6.734   5.558  -0.129  0.00  0.00    +0.028 A 
ATOM     15  C   UNL     1       7.309   6.716  -0.614  0.00  0.00    +0.003 A 
ATOM     16  C   UNL     1       6.941   7.207  -1.853  0.00  0.00    +0.015 A 
ATOM     17  C   UNL     1       5.996   6.540  -2.611  0.00  0.00    +0.020 A 
ATOM     18  C   UNL     1       5.420   5.377  -2.134  0.00  0.00    +0.043 A 
ATOM     19 BR   UNL     1       5.495   7.216  -4.305  0.00  0.00    -0.050 Br
ENDBRANCH   4  13
BRANCH   3  20
ATOM     20  N   UNL     1       7.143   2.824   0.786  0.00  0.00    -0.342 N 
ATOM     21  H   UNL     1       7.502   2.106   1.330  0.00  0.00    +0.144 HD
ATOM     22  H   UNL     1       7.707   3.574   0.539  0.00  0.00    +0.144 HD
ENDBRANCH   3  20
BRANCH   2  23
ATOM     23  C   UNL     1       5.137   0.590   1.410  0.00  0.00    +0.105 C 
ATOM     24  N   UNL     1       5.318  -0.350   2.023  0.00  0.00    -0.191 NA
ENDBRANCH   2  23
TORSDOF 4
