REMARK  Name = ZINC09367382
REMARK  9 active torsions:
REMARK  status: ('A' for Active; 'I' for Inactive)
REMARK    1  A    between atoms: C_1  and  C_2
REMARK    2  A    between atoms: C_2  and  N_3
REMARK    3  A    between atoms: C_7  and  S_29
REMARK    4  A    between atoms: C_11  and  S_12
REMARK    5  A    between atoms: S_12  and  C_13
REMARK    6  A    between atoms: C_13  and  C_14
REMARK    7  A    between atoms: N_20  and  C_21
REMARK    8  A    between atoms: C_26  and  C_27
REMARK    9  A    between atoms: S_29  and  N_32
REMARK                            x       y       z     vdW  Elec       q    Type
REMARK                         _______ _______ _______ _____ _____    ______ ____
ROOT
ATOM      1  C   UNL     1      -3.946   4.894  -0.504  0.00  0.00    +0.153 C 
ENDROOT
BRANCH   1   2
ATOM      2  C   UNL     1      -5.236   4.624  -1.236  0.00  0.00    +0.146 A 
ATOM      3  N   UNL     1      -5.236   4.519  -2.553  0.00  0.00    -0.199 NA
ATOM      4  C   UNL     1      -6.372   4.274  -3.202  0.00  0.00    +0.217 A 
ATOM      5  N   UNL     1      -7.508   4.147  -2.525  0.00  0.00    -0.181 NA
ATOM      6  C   UNL     1      -7.504   4.258  -1.202  0.00  0.00    +0.224 A 
ATOM      7  N   UNL     1      -6.363   4.497  -0.559  0.00  0.00    -0.198 NA
ATOM      8  N   UNL     1      -8.683   4.126  -0.493  0.00  0.00    -0.283 N 
ATOM      9  N   UNL     1      -6.371   4.159  -4.578  0.00  0.00    -0.327 N 
ATOM     10  H   UNL     1      -8.668   4.122   0.477  0.00  0.00    +0.155 HD
ATOM     11  H   UNL     1      -7.200   3.985  -5.051  0.00  0.00    +0.145 HD
ATOM     12  H   UNL     1      -5.541   4.253  -5.071  0.00  0.00    +0.145 HD
BRANCH   8  13
ATOM     13  C   UNL     1      -9.897   3.998  -1.174  0.00  0.00    +0.036 A 
ATOM     14  C   UNL     1     -10.029   4.499  -2.463  0.00  0.00    +0.023 A 
ATOM     15  C   UNL     1     -11.228   4.366  -3.135  0.00  0.00    +0.002 A 
ATOM     16  C   UNL     1     -12.301   3.744  -2.521  0.00  0.00    +0.000 A 
ATOM     17  C   UNL     1     -12.175   3.249  -1.236  0.00  0.00    +0.005 A 
ATOM     18  C   UNL     1     -10.976   3.374  -0.561  0.00  0.00    -0.029 A 
ATOM     19  C   UNL     1     -10.840   2.835   0.840  0.00  0.00    +0.045 C 
ENDBRANCH   8  13
ENDBRANCH   1   2
BRANCH   1  20
ATOM     20  S   UNL     1      -3.158   3.324  -0.070  0.00  0.00    -0.080 S 
BRANCH  20  29
ATOM     21  N   UNL     1      -0.741   3.136   1.296  0.00  0.00    -0.319 N 
ATOM     22  C   UNL     1       0.207   3.982   1.845  0.00  0.00    +0.070 A 
ATOM     23  C   UNL     1       1.398   3.778   2.526  0.00  0.00    +0.030 A 
ATOM     24  C   UNL     1       2.137   4.861   2.958  0.00  0.00    +0.030 A 
ATOM     25  C   UNL     1       1.696   6.153   2.716  0.00  0.00    +0.107 A 
ATOM     26  C   UNL     1       0.520   6.375   2.035  0.00  0.00    +0.058 A 
ATOM     27  C   UNL     1      -0.242   5.289   1.595  0.00  0.00    +0.092 A 
ATOM     28  N   UNL     1      -1.421   5.186   0.927  0.00  0.00    -0.222 NA
ATOM     29  C   UNL     1      -1.717   3.921   0.750  0.00  0.00    +0.170 A 
BRANCH  25  30
ATOM     30  S   UNL     1       2.653   7.523   3.275  0.00  0.00    +0.056 S 
ATOM     31  O   UNL     1       1.757   8.618   3.406  0.00  0.00    -0.153 OA
ATOM     32  O   UNL     1       3.443   7.051   4.358  0.00  0.00    -0.153 OA
BRANCH  30  33
ATOM     33  N   UNL     1       3.705   7.915   2.058  0.00  0.00    -0.204 NA
ATOM     34  H   UNL     1       3.999   8.832   1.948  0.00  0.00    +0.144 HD
ATOM     35  H   UNL     1       4.027   7.226   1.454  0.00  0.00    +0.144 HD
ENDBRANCH  30  33
ENDBRANCH  25  30
BRANCH  21  37
ATOM     36  C   UNL     1       0.014   1.171   0.051  0.00  0.00    +0.027 C 
ATOM     37  C   UNL     1      -0.708   1.671   1.303  0.00  0.00    +0.121 C 
ENDBRANCH  21  37
ENDBRANCH  20  29
ENDBRANCH   1  20
TORSDOF 7
