REMARK  Name = ZINC05950105
REMARK  8 active torsions:
REMARK  status: ('A' for Active; 'I' for Inactive)
REMARK    1  A    between atoms: C_1  and  C_2
REMARK    2  A    between atoms: C_2  and  C_3
REMARK    3  A    between atoms: C_6  and  C_9
REMARK    4  A    between atoms: N_11  and  C_12
REMARK    5  A    between atoms: C_12  and  N_14
REMARK    6  A    between atoms: N_14  and  C_15
REMARK    7  A    between atoms: C_19  and  C_22
REMARK    8  A    between atoms: C_20  and  C_21
REMARK                            x       y       z     vdW  Elec       q    Type
REMARK                         _______ _______ _______ _____ _____    ______ ____
ROOT
ATOM      1  N   UNL     1       2.428   1.487  -0.520  0.00  0.00    -0.296 N 
ATOM      2  H   UNL     1       2.585   0.596  -0.169  0.00  0.00    +0.154 HD
ENDROOT
BRANCH   1   3
ATOM      3  C   UNL     1       1.206   2.127  -0.283  0.00  0.00    +0.036 A 
ATOM      4  C   UNL     1       1.180   3.481   0.027  0.00  0.00    +0.023 A 
ATOM      5  C   UNL     1      -0.024   4.118   0.262  0.00  0.00    +0.002 A 
ATOM      6  C   UNL     1      -1.208   3.413   0.190  0.00  0.00    +0.011 A 
ATOM      7  C   UNL     1      -1.193   2.054  -0.127  0.00  0.00    +0.012 A 
ATOM      8  C   UNL     1       0.022   1.410  -0.359  0.00  0.00    -0.020 A 
ATOM      9  C   UNL     1       0.048  -0.059  -0.696  0.00  0.00    +0.046 C 
BRANCH   7  10
ATOM     10  C   UNL     1      -2.461   1.297  -0.211  0.00  0.00    +0.110 A 
ATOM     11  N   UNL     1      -3.695   1.744  -0.130  0.00  0.00    -0.239 NA
ATOM     12  C   UNL     1      -4.767   0.934  -0.225  0.00  0.00    +0.079 A 
ATOM     13  C   UNL     1      -6.137   1.284  -0.156  0.00  0.00    +0.029 A 
ATOM     14  C   UNL     1      -7.104   0.336  -0.272  0.00  0.00    +0.002 A 
ATOM     15  C   UNL     1      -6.794  -1.004  -0.461  0.00  0.00    +0.001 A 
ATOM     16  C   UNL     1      -5.468  -1.389  -0.534  0.00  0.00    +0.017 A 
ATOM     17  C   UNL     1      -4.482  -0.439  -0.418  0.00  0.00    +0.040 A 
ATOM     18  S   UNL     1      -2.707  -0.456  -0.456  0.00  0.00    -0.067 S 
ENDBRANCH   7  10
ENDBRANCH   1   3
BRANCH   1  19
ATOM     19  C   UNL     1       3.386   2.107  -1.236  0.00  0.00    +0.141 C 
ATOM     20  S   UNL     1       3.088   3.654  -1.906  0.00  0.00    -0.018 S 
BRANCH  19  23
ATOM     21  C   UNL     1       5.539   2.131  -2.139  0.00  0.00    +0.250 C 
ATOM     22  O   UNL     1       5.327   3.229  -2.615  0.00  0.00    -0.270 OA
ATOM     23  N   UNL     1       4.580   1.510  -1.424  0.00  0.00    -0.264 N 
ATOM     24  H   UNL     1       4.749   0.634  -1.044  0.00  0.00    +0.157 HD
BRANCH  21  28
ATOM     25  C   UNL     1       9.300   0.250  -2.731  0.00  0.00    -0.048 A 
ATOM     26  C   UNL     1       9.062   1.500  -3.274  0.00  0.00    +0.004 A 
ATOM     27  C   UNL     1       7.843   2.116  -3.086  0.00  0.00    +0.013 A 
ATOM     28  C   UNL     1       6.847   1.476  -2.345  0.00  0.00    +0.037 A 
ATOM     29  C   UNL     1       7.096   0.218  -1.795  0.00  0.00    +0.013 A 
ATOM     30  C   UNL     1       8.319  -0.390  -1.995  0.00  0.00    +0.004 A 
BRANCH  25  32
ATOM     31  C   UNL     1      11.586  -0.024  -1.808  0.00  0.00    +0.009 C 
ATOM     32  C   UNL     1      10.635  -0.417  -2.941  0.00  0.00    +0.032 C 
ENDBRANCH  25  32
ENDBRANCH  21  28
ENDBRANCH  19  23
ENDBRANCH   1  19
TORSDOF 6
