REMARK  Name = ZINC35354505
REMARK  6 active torsions:
REMARK  status: ('A' for Active; 'I' for Inactive)
REMARK    1  A    between atoms: C_4  and  N_9
REMARK    2  A    between atoms: C_5  and  C_7
REMARK    3  A    between atoms: N_9  and  S_10
REMARK    4  A    between atoms: S_10  and  C_13
REMARK    5  A    between atoms: C_16  and  N_19
REMARK    6  A    between atoms: N_19  and  N_20
REMARK                            x       y       z     vdW  Elec       q    Type
REMARK                         _______ _______ _______ _____ _____    ______ ____
ROOT
ATOM      1  S   UNL     1       5.056   0.244  -0.047  0.00  0.00    +0.092 S 
ATOM      2  O   UNL     1       5.102   0.932  -1.290  0.00  0.00    -0.148 OA
ATOM      3  O   UNL     1       5.128   0.919   1.201  0.00  0.00    -0.148 OA
ENDROOT
BRANCH   1   4
ATOM      4  C   UNL     1       6.378  -0.921  -0.067  0.00  0.00    +0.110 A 
ATOM      5  C   UNL     1       6.905  -1.387   1.124  0.00  0.00    +0.031 A 
ATOM      6  C   UNL     1       7.941  -2.300   1.112  0.00  0.00    +0.026 A 
ATOM      7  C   UNL     1       8.455  -2.749  -0.098  0.00  0.00    +0.041 A 
ATOM      8  C   UNL     1       7.924  -2.278  -1.292  0.00  0.00    +0.026 A 
ATOM      9  C   UNL     1       6.884  -1.370  -1.273  0.00  0.00    +0.031 A 
BRANCH   7  10
ATOM     10  N   UNL     1       9.504  -3.671  -0.114  0.00  0.00    -0.283 N 
ATOM     11  H   UNL     1       9.874  -3.999   0.721  0.00  0.00    +0.166 HD
BRANCH  10  12
ATOM     12  N   UNL     1      10.008  -4.112  -1.304  0.00  0.00    -0.257 NA
ATOM     13  H   UNL     1      10.757  -4.772  -1.158  0.00  0.00    +0.140 HD
ATOM     14  H   UNL     1       9.281  -4.512  -1.879  0.00  0.00    +0.140 HD
ENDBRANCH  10  12
ENDBRANCH   7  10
ENDBRANCH   1   4
BRANCH   1  15
ATOM     15  N   UNL     1       3.643  -0.620  -0.037  0.00  0.00    -0.097 NA
BRANCH  15  19
ATOM     16  C   UNL     1      -0.017   1.374   0.010  0.00  0.00    +0.001 A 
ATOM     17  C   UNL     1       1.170   2.090   0.002  0.00  0.00    +0.002 A 
ATOM     18  C   UNL     1       2.383   1.432  -0.013  0.00  0.00    +0.028 A 
ATOM     19  C   UNL     1       2.422   0.044  -0.021  0.00  0.00    +0.092 A 
ATOM     20  C   UNL     1       1.222  -0.684  -0.013  0.00  0.00    +0.076 A 
ATOM     21  C   UNL     1       0.002  -0.004   0.002  0.00  0.00    +0.021 A 
BRANCH  20  22
ATOM     22  C   UNL     1       1.249  -2.116  -0.021  0.00  0.00    +0.101 C 
ATOM     23  N   UNL     1       1.270  -3.252  -0.027  0.00  0.00    -0.191 NA
ENDBRANCH  20  22
ENDBRANCH  15  19
ENDBRANCH   1  15
TORSDOF 6
