REMARK  Name = ZINC13237361
REMARK  6 active torsions:
REMARK  status: ('A' for Active; 'I' for Inactive)
REMARK    1  A    between atoms: C_1  and  N_2
REMARK    2  A    between atoms: C_8  and  C_30
REMARK    3  A    between atoms: C_12  and  S_13
REMARK    4  A    between atoms: S_13  and  C_14
REMARK    5  A    between atoms: C_14  and  C_15
REMARK    6  A    between atoms: N_20  and  C_21
REMARK                            x       y       z     vdW  Elec       q    Type
REMARK                         _______ _______ _______ _____ _____    ______ ____
ROOT
ATOM      1  C   UNL     1       8.306  -3.049   4.777  0.00  0.00    +0.173 C 
ENDROOT
BRANCH   1   2
ATOM      2  C   UNL     1       6.968  -2.980   4.087  0.00  0.00    +0.231 C 
ATOM      3  O   UNL     1       6.234  -3.945   4.090  0.00  0.00    -0.274 OA
ATOM      4  N   UNL     1       6.588  -1.846   3.466  0.00  0.00    -0.239 N 
ATOM      5  C   UNL     1       5.392  -1.784   2.849  0.00  0.00    +0.310 C 
ATOM      6  O   UNL     1       4.655  -2.751   2.853  0.00  0.00    -0.252 OA
ATOM      7  N   UNL     1       5.011  -0.649   2.228  0.00  0.00    -0.269 N 
ATOM      8  H   UNL     1       7.176  -1.074   3.464  0.00  0.00    +0.159 HD
ATOM      9  H   UNL     1       5.629   0.096   2.159  0.00  0.00    +0.156 HD
BRANCH   7  10
ATOM     10  C   UNL     1       3.725  -0.546   1.683  0.00  0.00    +0.038 A 
ATOM     11  C   UNL     1       2.658  -1.190   2.296  0.00  0.00    +0.027 A 
ATOM     12  C   UNL     1       1.388  -1.090   1.759  0.00  0.00    +0.051 A 
ATOM     13  C   UNL     1       1.176  -0.346   0.610  0.00  0.00    +0.166 A 
ATOM     14  C   UNL     1       2.244   0.302  -0.006  0.00  0.00    +0.168 A 
ATOM     15  C   UNL     1       3.516   0.200   0.532  0.00  0.00    +0.073 A 
ATOM     16  O   UNL     1       1.779   0.960  -1.108  0.00  0.00    -0.453 OA
ATOM     17  C   UNL     1       0.353   1.045  -0.931  0.00  0.00    +0.466 C 
ATOM     18  O   UNL     1       0.041  -0.093  -0.107  0.00  0.00    -0.453 OA
ENDBRANCH   7  10
ENDBRANCH   1   2
BRANCH   1  19
ATOM     19  S   UNL     1       8.523  -4.690   5.510  0.00  0.00    -0.078 S 
BRANCH  19  31
ATOM     20  C   UNL     1       9.912  -6.804   7.018  0.00  0.00    +0.154 C 
ATOM     21  N   UNL     1      10.662  -5.551   6.906  0.00  0.00    -0.290 N 
ATOM     22  C   UNL     1      11.887  -5.449   7.470  0.00  0.00    +0.262 A 
ATOM     23  O   UNL     1      12.384  -6.383   8.072  0.00  0.00    -0.267 OA
ATOM     24  C   UNL     1      12.596  -4.167   7.332  0.00  0.00    +0.065 A 
ATOM     25  C   UNL     1      13.861  -3.966   7.884  0.00  0.00    +0.016 A 
ATOM     26  C   UNL     1      14.485  -2.761   7.735  0.00  0.00    +0.016 A 
ATOM     27  C   UNL     1      13.867  -1.720   7.031  0.00  0.00    +0.065 A 
ATOM     28  C   UNL     1      12.607  -1.897   6.473  0.00  0.00    +0.043 A 
ATOM     29  C   UNL     1      11.958  -3.127   6.619  0.00  0.00    +0.080 A 
ATOM     30  N   UNL     1      10.730  -3.345   6.092  0.00  0.00    -0.223 NA
ATOM     31  C   UNL     1      10.120  -4.496   6.228  0.00  0.00    +0.172 A 
BRANCH  27  32
ATOM     32  C   UNL     1      14.560  -0.421   6.881  0.00  0.00    +0.387 C 
ATOM     33  O   UNL     1      14.028   0.484   6.272  0.00  0.00    -0.241 OA
ATOM     34  O   UNL     1      15.781  -0.244   7.421  0.00  0.00    -0.241 OA
ENDBRANCH  27  32
ENDBRANCH  19  31
ENDBRANCH   1  19
TORSDOF 5
