REMARK  Name = ZINC64491003
REMARK  2 active torsions:
REMARK  status: ('A' for Active; 'I' for Inactive)
REMARK    1  A    between atoms: C_5  and  C_7
REMARK    2  A    between atoms: N_24  and  C_25
REMARK                            x       y       z     vdW  Elec       q    Type
REMARK                         _______ _______ _______ _____ _____    ______ ____
ROOT
ATOM      1  C   UNL     1       0.951  -3.048   0.709  0.00  0.00    +0.137 C 
ATOM      2  C   UNL     1       0.615  -3.553   2.116  0.00  0.00    +0.131 C 
ATOM      3  C   UNL     1      -0.656  -2.830   2.546  0.00  0.00    -0.035 C 
ATOM      4  C   UNL     1      -0.372  -2.222   3.691  0.00  0.00    -0.001 A 
ATOM      5  C   UNL     1      -1.205  -1.434   4.614  0.00  0.00    +0.010 A 
ATOM      6  C   UNL     1      -0.577  -0.938   5.713  0.00  0.00    +0.001 A 
ATOM      7  C   UNL     1       0.779  -1.143   5.982  0.00  0.00    +0.002 A 
ATOM      8  C   UNL     1       1.619  -1.858   5.191  0.00  0.00    +0.026 A 
ATOM      9  C   UNL     1       1.073  -2.435   4.008  0.00  0.00    +0.043 A 
ATOM     10  N   UNL     1       1.648  -3.188   3.087  0.00  0.00    -0.375 N 
ATOM     11  C   UNL     1      -1.906  -2.818   1.701  0.00  0.00    +0.052 C 
ATOM     12  C   UNL     1      -1.479  -2.390   0.284  0.00  0.00    +0.114 C 
ATOM     13  N   UNL     1      -0.272  -3.130  -0.105  0.00  0.00    -0.276 N 
ATOM     14  C   UNL     1      -0.284  -3.891  -1.217  0.00  0.00    +0.307 C 
ATOM     15  O   UNL     1       0.665  -4.605  -1.476  0.00  0.00    -0.252 OA
ATOM     16  N   UNL     1      -1.349  -3.861  -2.043  0.00  0.00    -0.269 N 
ATOM     17  H   UNL     1      -2.065  -3.225  -1.888  0.00  0.00    +0.156 HD
ATOM     18  H   UNL     1       2.581  -3.451   3.048  0.00  0.00    +0.160 HD
ENDROOT
BRANCH  16  19
ATOM     19  C   UNL     1      -1.422  -4.748  -3.125  0.00  0.00    +0.038 A 
ATOM     20  C   UNL     1      -0.262  -5.149  -3.773  0.00  0.00    +0.027 A 
ATOM     21  C   UNL     1      -0.331  -6.025  -4.840  0.00  0.00    +0.051 A 
ATOM     22  C   UNL     1      -1.559  -6.505  -5.266  0.00  0.00    +0.166 A 
ATOM     23  C   UNL     1      -2.725  -6.104  -4.618  0.00  0.00    +0.168 A 
ATOM     24  C   UNL     1      -2.654  -5.231  -3.545  0.00  0.00    +0.073 A 
ATOM     25  O   UNL     1      -3.790  -6.710  -5.221  0.00  0.00    -0.453 OA
ATOM     26  C   UNL     1      -3.303  -7.163  -6.498  0.00  0.00    +0.466 C 
ATOM     27  O   UNL     1      -1.894  -7.362  -6.275  0.00  0.00    -0.453 OA
ENDBRANCH  16  19
BRANCH   1  32
ATOM     28  C   UNL     1       1.093   0.641   1.502  0.00  0.00    +0.000 A 
ATOM     29  C   UNL     1       2.286   1.007   0.907  0.00  0.00    +0.003 A 
ATOM     30  C   UNL     1       3.048   0.061   0.247  0.00  0.00    +0.039 A 
ATOM     31  C   UNL     1       2.617  -1.253   0.182  0.00  0.00    +0.128 A 
ATOM     32  C   UNL     1       1.422  -1.618   0.779  0.00  0.00    +0.010 A 
ATOM     33  C   UNL     1       0.661  -0.671   1.438  0.00  0.00    +0.008 A 
ATOM     34  F   UNL     1       3.361  -2.178  -0.463  0.00  0.00    -0.205 F 
ENDBRANCH   1  32
TORSDOF 2
