REMARK  Name = ZINC09125116
REMARK  9 active torsions:
REMARK  status: ('A' for Active; 'I' for Inactive)
REMARK    1  A    between atoms: C_1  and  C_2
REMARK    2  A    between atoms: C_2  and  C_3
REMARK    3  A    between atoms: C_2  and  C_4
REMARK    4  A    between atoms: C_4  and  C_6
REMARK    5  A    between atoms: C_4  and  N_7
REMARK    6  A    between atoms: C_8  and  C_10
REMARK    7  A    between atoms: C_10  and  N_51
REMARK    8  A    between atoms: N_13  and  S_16
REMARK    9  A    between atoms: S_16  and  C_19
REMARK                            x       y       z     vdW  Elec       q    Type
REMARK                         _______ _______ _______ _____ _____    ______ ____
ROOT
ATOM      1  C   UNL     1       3.764   2.180  -0.993  0.00  0.00    -0.061 C 
ATOM      2  C   UNL     1       4.625   3.445  -1.078  0.00  0.00    +0.091 C 
ATOM      3  N   UNL     1       6.002   3.099  -0.694  0.00  0.00    -0.180 NA
ATOM      4  C   UNL     1       6.211   2.376   0.570  0.00  0.00    +0.091 C 
ATOM      5  C   UNL     1       5.287   1.154   0.590  0.00  0.00    -0.061 C 
ATOM      6  N   UNL     1       3.897   1.605   0.363  0.00  0.00    +0.387 N 
ATOM      7  H   UNL     1       3.665   2.327   1.055  0.00  0.00    -0.081 HD
ENDROOT
BRANCH   3   8
ATOM      8  S   UNL     1       7.282   3.512  -1.659  0.00  0.00    +0.062 S 
ATOM      9  O   UNL     1       8.271   2.508  -1.475  0.00  0.00    -0.153 OA
ATOM     10  O   UNL     1       6.744   3.826  -2.936  0.00  0.00    -0.153 OA
BRANCH   8  11
ATOM     11  C   UNL     1       7.958   5.007  -1.016  0.00  0.00    +0.124 A 
ATOM     12  C   UNL     1       9.233   5.016  -0.481  0.00  0.00    +0.031 A 
ATOM     13  C   UNL     1       9.763   6.188   0.023  0.00  0.00    +0.017 A 
ATOM     14  C   UNL     1       9.019   7.354  -0.008  0.00  0.00    +0.019 A 
ATOM     15  C   UNL     1       7.744   7.346  -0.543  0.00  0.00    +0.037 A 
ATOM     16  C   UNL     1       7.215   6.174  -1.053  0.00  0.00    +0.068 A 
ATOM     17 CL   UNL     1       5.618   6.165  -1.732  0.00  0.00    -0.081 Cl
ATOM     18 BR   UNL     1       9.745   8.958   0.682  0.00  0.00    -0.050 Br
ENDBRANCH   8  11
ENDBRANCH   3   8
BRANCH   6  19
ATOM     19  C   UNL     1       2.966   0.469   0.523  0.00  0.00    +0.019 C 
BRANCH  19  21
ATOM     20  N   UNL     1       0.517   0.145   0.654  0.00  0.00    -0.314 N 
ATOM     21  C   UNL     1       1.553   0.994   0.505  0.00  0.00    +0.197 C 
ATOM     22  O   UNL     1       1.349   2.180   0.355  0.00  0.00    -0.278 OA
ATOM     23  H   UNL     1       0.680  -0.803   0.773  0.00  0.00    +0.149 HD
BRANCH  20  24
ATOM     24  C   UNL     1      -0.856   0.655   0.630  0.00  0.00    +0.072 C 
ATOM     25  C   UNL     1      -1.246   1.136   2.029  0.00  0.00    +0.028 C 
BRANCH  24  27
ATOM     26  C   UNL     1      -1.806  -1.574   1.240  0.00  0.00    +0.009 C 
ATOM     27  C   UNL     1      -1.807  -0.461   0.191  0.00  0.00    +0.003 C 
ATOM     28  C   UNL     1      -3.222   0.102   0.045  0.00  0.00    +0.009 C 
ENDBRANCH  24  27
ENDBRANCH  20  24
ENDBRANCH  19  21
ENDBRANCH   6  19
TORSDOF 6
