REMARK  Name = ZINC40732716
REMARK  6 active torsions:
REMARK  status: ('A' for Active; 'I' for Inactive)
REMARK    1  A    between atoms: C_1  and  C_2
REMARK    2  A    between atoms: C_9  and  N_26
REMARK    3  A    between atoms: C_10  and  N_14
REMARK    4  A    between atoms: C_16  and  C_25
REMARK    5  A    between atoms: C_21  and  C_23
REMARK    6  A    between atoms: C_21  and  C_24
REMARK                            x       y       z     vdW  Elec       q    Type
REMARK                         _______ _______ _______ _____ _____    ______ ____
ROOT
ATOM      1  C   UNL     1       0.441   1.583  -1.547  0.00  0.00    +0.007 C 
ATOM      2  C   UNL     1       0.759   0.466  -0.552  0.00  0.00    -0.011 C 
ATOM      3  C   UNL     1       0.197  -0.858  -1.076  0.00  0.00    +0.022 C 
ATOM      4  C   UNL     1       0.486  -1.968  -0.061  0.00  0.00    +0.107 C 
ATOM      5  N   UNL     1       1.929  -1.993   0.215  0.00  0.00    -0.314 N 
ATOM      6  C   UNL     1       2.589  -0.750   0.637  0.00  0.00    +0.107 C 
ATOM      7  C   UNL     1       2.276   0.347  -0.385  0.00  0.00    +0.022 C 
ATOM      8  C   UNL     1       2.656  -3.169   0.079  0.00  0.00    +0.147 A 
ATOM      9  C   UNL     1       2.785  -4.051   1.153  0.00  0.00    +0.106 A 
ATOM     10  C   UNL     1       3.526  -5.219   0.962  0.00  0.00    +0.147 A 
ATOM     11  N   UNL     1       4.077  -5.445  -0.228  0.00  0.00    -0.219 NA
ATOM     12  C   UNL     1       3.932  -4.586  -1.216  0.00  0.00    +0.225 A 
ATOM     13  N   UNL     1       3.236  -3.475  -1.079  0.00  0.00    -0.219 NA
ENDROOT
BRANCH  10  14
ATOM     14  N   UNL     1       3.685  -6.131   1.999  0.00  0.00    -0.310 N 
ATOM     15  C   UNL     1       3.274  -5.926   3.397  0.00  0.00    +0.113 C 
ATOM     16  C   UNL     1       3.712  -7.191   4.170  0.00  0.00    -0.014 C 
ATOM     17  C   UNL     1       3.676  -8.280   3.064  0.00  0.00    +0.030 C 
ATOM     18  C   UNL     1       4.285  -7.476   1.888  0.00  0.00    +0.076 C 
ATOM     19  C   UNL     1       5.787  -7.377   2.137  0.00  0.00    +0.029 C 
ATOM     20  C   UNL     1       6.151  -6.783   3.485  0.00  0.00    -0.033 C 
ATOM     21  C   UNL     1       5.165  -7.028   4.610  0.00  0.00    +0.014 C 
ATOM     22  C   UNL     1       7.500  -7.414   3.912  0.00  0.00    +0.011 C 
ATOM     23  C   UNL     1       6.407  -5.276   3.332  0.00  0.00    +0.011 C 
ATOM     24  C   UNL     1       2.769  -7.514   5.340  0.00  0.00    +0.013 C 
ENDBRANCH  10  14
BRANCH   9  25
ATOM     25  N   UNL     1       2.186  -3.771   2.392  0.00  0.00    -0.353 N 
ATOM     26  H   UNL     1       1.308  -3.359   2.424  0.00  0.00    +0.143 HD
ATOM     27  H   UNL     1       2.649  -3.990   3.216  0.00  0.00    +0.143 HD
ENDBRANCH   9  25
TORSDOF 2
