REMARK  Name = ZINC17213102
REMARK  2 active torsions:
REMARK  status: ('A' for Active; 'I' for Inactive)
REMARK    1  A    between atoms: C_4  and  C_7
REMARK    2  A    between atoms: N_11  and  C_12
REMARK                            x       y       z     vdW  Elec       q    Type
REMARK                         _______ _______ _______ _____ _____    ______ ____
ROOT
ATOM      1  C   UNL     1       0.516   5.593   0.040  0.00  0.00    +0.095 A 
ATOM      2  C   UNL     1       1.918   5.500   0.025  0.00  0.00    +0.063 A 
ATOM      3  C   UNL     1       2.244   4.178   0.004  0.00  0.00    +0.129 A 
ATOM      4  C   UNL     1       3.523   3.441  -0.018  0.00  0.00    +0.161 A 
ATOM      5  N   UNL     1       4.677   4.094  -0.021  0.00  0.00    -0.338 N 
ATOM      6  N   UNL     1       3.498   2.100  -0.037  0.00  0.00    -0.209 NA
ATOM      7  C   UNL     1       2.350   1.424  -0.035  0.00  0.00    +0.156 A 
ATOM      8  C   UNL     1       2.391   0.017  -0.054  0.00  0.00    +0.048 A 
ATOM      9  C   UNL     1       1.225  -0.690  -0.053  0.00  0.00    +0.005 A 
ATOM     10  C   UNL     1       0.003  -0.005  -0.032  0.00  0.00    +0.020 A 
ATOM     11  C   UNL     1      -0.015   1.347  -0.013  0.00  0.00    +0.114 A 
ATOM     12  N   UNL     1       1.141   2.062  -0.014  0.00  0.00    -0.221 N 
ATOM     13  N   UNL     1       1.079   3.462   0.006  0.00  0.00    -0.161 N 
ATOM     14  N   UNL     1       0.018   4.373   0.028  0.00  0.00    -0.150 NA
ATOM     15  H   UNL     1       4.688   5.191  -0.094  0.00  0.00    +0.167 HD
ENDROOT
BRANCH   5  16
ATOM     16  C   UNL     1       5.851   3.404   0.068  0.00  0.00    +0.041 A 
ATOM     17  C   UNL     1       6.364   3.049   1.319  0.00  0.00    +0.027 A 
ATOM     18  C   UNL     1       7.549   2.348   1.401  0.00  0.00    +0.017 A 
ATOM     19  C   UNL     1       8.235   2.005   0.248  0.00  0.00    +0.018 A 
ATOM     20  C   UNL     1       7.735   2.357  -0.995  0.00  0.00    +0.017 A 
ATOM     21  C   UNL     1       6.549   3.054  -1.092  0.00  0.00    +0.027 A 
ATOM     22 BR   UNL     1       9.863   1.050   0.371  0.00  0.00    -0.050 Br
ENDBRANCH   5  16
BRANCH   1  26
ATOM     23  C   UNL     1      -1.736   9.200   0.112  0.00  0.00    +0.000 A 
ATOM     24  C   UNL     1      -2.389   7.980   0.101  0.00  0.00    +0.001 A 
ATOM     25  C   UNL     1      -1.662   6.807   0.077  0.00  0.00    +0.010 A 
ATOM     26  C   UNL     1      -0.270   6.852   0.065  0.00  0.00    +0.002 A 
ATOM     27  C   UNL     1       0.382   8.083   0.081  0.00  0.00    +0.010 A 
ATOM     28  C   UNL     1      -0.354   9.251   0.100  0.00  0.00    +0.001 A 
ENDBRANCH   1  26
TORSDOF 2
