REMARK  Name = ZINC04705727
REMARK  9 active torsions:
REMARK  status: ('A' for Active; 'I' for Inactive)
REMARK    1  A    between atoms: C_6  and  C_7
REMARK    2  A    between atoms: C_7  and  C_9
REMARK    3  A    between atoms: C_9  and  S_10
REMARK    4  A    between atoms: S_10  and  C_11
REMARK    5  A    between atoms: N_18  and  C1*_21
REMARK    6  A    between atoms: C2*_23  and  O2*_33
REMARK    7  A    between atoms: C3*_25  and  O3*_32
REMARK    8  A    between atoms: C4*_27  and  C5*_30
REMARK    9  A    between atoms: C5*_30  and  O5*_31
REMARK                            x       y       z     vdW  Elec       q    Type
REMARK                         _______ _______ _______ _____ _____    ______ ____
ROOT
ATOM      1  C   UNL     1      -0.022   1.758   0.012  0.00  0.00    +0.130 A 
ATOM      2  C   UNL     1       1.177   2.493   0.004  0.00  0.00    +0.140 A 
ATOM      3  C   UNL     1       1.099   3.895   0.013  0.00  0.00    +0.169 A 
ATOM      4  N   UNL     1      -0.097   4.477   0.027  0.00  0.00    -0.195 NA
ATOM      5  C   UNL     1      -1.200   3.748   0.034  0.00  0.00    +0.216 A 
ATOM      6  N   UNL     1      -1.173   2.421   0.021  0.00  0.00    -0.206 NA
ATOM      7  N   UNL     1      -2.427   4.391   0.049  0.00  0.00    -0.327 N 
ATOM      8  N   UNL     1       2.394   4.346   0.003  0.00  0.00    -0.285 N 
ATOM      9  C   UNL     1       3.209   3.252  -0.010  0.00  0.00    +0.203 A 
ATOM     10  N   UNL     1       2.493   2.166  -0.010  0.00  0.00    -0.231 NA
ATOM     11  H   UNL     1      -2.466   5.361   0.054  0.00  0.00    +0.145 HD
ATOM     12  H   UNL     1      -3.247   3.873   0.054  0.00  0.00    +0.145 HD
ENDROOT
BRANCH   8  13
ATOM     13  C1* UNL     1       2.824   5.747   0.007  0.00  0.00    +0.253 C 
ATOM     14  C2* UNL     1       2.878   6.275   1.454  0.00  0.00    +0.195 C 
ATOM     15  C3* UNL     1       4.373   6.630   1.669  0.00  0.00    +0.178 C 
ATOM     16  C4* UNL     1       5.070   5.787   0.570  0.00  0.00    +0.177 C 
ATOM     17  O4* UNL     1       4.149   5.853  -0.540  0.00  0.00    -0.346 OA
BRANCH  15  18
ATOM     18  O3* UNL     1       4.599   8.026   1.460  0.00  0.00    -0.386 OA
ATOM     19  H3* UNL     1       5.530   8.283   1.495  0.00  0.00    +0.210 HD
ENDBRANCH  15  18
BRANCH  14  20
ATOM     20  O2* UNL     1       2.467   5.260   2.372  0.00  0.00    -0.385 OA
ATOM     21  H2* UNL     1       2.482   5.538   3.298  0.00  0.00    +0.210 HD
ENDBRANCH  14  20
BRANCH  16  22
ATOM     22  C5* UNL     1       6.418   6.401   0.189  0.00  0.00    +0.190 C 
BRANCH  22  23
ATOM     23  O5* UNL     1       7.042   5.596  -0.813  0.00  0.00    -0.392 OA
ATOM     24  H5* UNL     1       7.903   5.926  -1.103  0.00  0.00    +0.210 HD
ENDBRANCH  22  23
ENDBRANCH  16  22
ENDBRANCH   8  13
BRANCH   1  25
ATOM     25  S   UNL     1       0.002  -0.004   0.002  0.00  0.00    -0.096 S 
BRANCH  25  26
ATOM     26  C   UNL     1      -1.776  -0.343   0.017  0.00  0.00    +0.155 C 
BRANCH  26  27
ATOM     27  C   UNL     1      -2.004  -1.832   0.011  0.00  0.00    +0.173 C 
ATOM     28  O   UNL     1      -1.057  -2.590  -0.002  0.00  0.00    -0.291 OA
BRANCH  27  34
ATOM     29  C   UNL     1      -4.468  -1.495   0.043  0.00  0.00    +0.013 A 
ATOM     30  C   UNL     1      -5.749  -2.003   0.048  0.00  0.00    +0.020 A 
ATOM     31  C   UNL     1      -5.955  -3.373   0.042  0.00  0.00    +0.041 A 
ATOM     32  C   UNL     1      -4.876  -4.243   0.026  0.00  0.00    +0.020 A 
ATOM     33  C   UNL     1      -3.589  -3.749   0.016  0.00  0.00    +0.013 A 
ATOM     34  C   UNL     1      -3.374  -2.367   0.022  0.00  0.00    +0.018 A 
ATOM     35 CL   UNL     1      -7.572  -4.004   0.055  0.00  0.00    -0.084 Cl
ENDBRANCH  27  34
ENDBRANCH  26  27
ENDBRANCH  25  26
ENDBRANCH   1  25
TORSDOF 9
