REMARK  Name = ZINC08238915
REMARK  9 active torsions:
REMARK  status: ('A' for Active; 'I' for Inactive)
REMARK    1  A    between atoms: C_1  and  C_2
REMARK    2  A    between atoms: C_2  and  C_3
REMARK    3  A    between atoms: C_3  and  C_5
REMARK    4  A    between atoms: C_3  and  C_6
REMARK    5  A    between atoms: C_6  and  C_8
REMARK    6  A    between atoms: C_6  and  N_28
REMARK    7  A    between atoms: N_10  and  C_11
REMARK    8  A    between atoms: C_15  and  S_17
REMARK    9  A    between atoms: S_17  and  N_20
REMARK                            x       y       z     vdW  Elec       q    Type
REMARK                         _______ _______ _______ _____ _____    ______ ____
ROOT
ATOM      1  C   UNL     1      -4.764  -3.289   1.126  0.00  0.00    +0.035 A 
ATOM      2  C   UNL     1      -5.391  -3.731  -0.032  0.00  0.00    +0.023 A 
ATOM      3  C   UNL     1      -6.653  -4.289   0.039  0.00  0.00    +0.004 A 
ATOM      4  C   UNL     1      -7.291  -4.407   1.260  0.00  0.00    +0.029 A 
ATOM      5  C   UNL     1      -6.669  -3.967   2.414  0.00  0.00    +0.114 A 
ATOM      6  C   UNL     1      -5.405  -3.414   2.351  0.00  0.00    +0.052 A 
ENDROOT
BRANCH   1   9
ATOM      7  C   UNL     1      -3.136  -1.744   1.916  0.00  0.00    +0.238 C 
ATOM      8  O   UNL     1      -3.957  -1.287   2.682  0.00  0.00    -0.273 OA
ATOM      9  N   UNL     1      -3.486  -2.723   1.058  0.00  0.00    -0.284 N 
ATOM     10  H   UNL     1      -2.852  -3.036   0.393  0.00  0.00    +0.155 HD
BRANCH   7  11
ATOM     11  C   UNL     1      -1.724  -1.218   1.923  0.00  0.00    +0.163 C 
BRANCH  11  12
ATOM     12  N   UNL     1      -1.698   0.104   2.554  0.00  0.00    -0.288 N 
ATOM     13  C   UNL     1      -2.106   0.249   3.830  0.00  0.00    +0.298 C 
ATOM     14  O   UNL     1      -2.495  -0.717   4.457  0.00  0.00    -0.253 OA
ATOM     15  N   UNL     1      -2.083   1.465   4.410  0.00  0.00    -0.313 N 
ATOM     16  H   UNL     1      -1.388   0.874   2.053  0.00  0.00    +0.151 HD
ATOM     17  H   UNL     1      -1.773   2.236   3.909  0.00  0.00    +0.146 HD
ATOM     18  H   UNL     1      -2.377   1.570   5.329  0.00  0.00    +0.146 HD
ENDBRANCH  11  12
BRANCH  11  19
ATOM     19  C   UNL     1      -0.826  -2.176   2.709  0.00  0.00    +0.015 C 
ATOM     20  C   UNL     1      -0.853  -3.556   2.050  0.00  0.00    +0.010 C 
BRANCH  19  22
ATOM     21  C   UNL     1       1.479  -2.531   3.605  0.00  0.00    +0.004 C 
ATOM     22  C   UNL     1       0.607  -1.641   2.716  0.00  0.00    +0.002 C 
ENDBRANCH  19  22
ENDBRANCH  11  19
ENDBRANCH   7  11
ENDBRANCH   1   9
BRANCH   5  23
ATOM     23  S   UNL     1      -7.487  -4.119   3.967  0.00  0.00    +0.100 S 
ATOM     24  O   UNL     1      -6.920  -3.137   4.822  0.00  0.00    -0.146 OA
ATOM     25  O   UNL     1      -8.880  -4.175   3.689  0.00  0.00    -0.146 OA
BRANCH  23  26
ATOM     26  N   UNL     1      -7.071  -5.593   4.597  0.00  0.00    -0.118 NA
ATOM     27  C   UNL     1      -7.540  -5.961   5.745  0.00  0.00    +0.117 C 
ATOM     28  N   UNL     1      -8.408  -5.133   6.474  0.00  0.00    -0.331 N 
ATOM     29  C   UNL     1      -9.766  -5.571   6.615  0.00  0.00    +0.102 C 
ATOM     30  C   UNL     1     -10.056  -6.474   7.825  0.00  0.00    +0.019 C 
ATOM     31  C   UNL     1      -8.919  -7.509   8.014  0.00  0.00    +0.002 C 
ATOM     32  C   UNL     1      -8.418  -8.074   6.714  0.00  0.00    +0.008 C 
ATOM     33  C   UNL     1      -7.192  -7.244   6.319  0.00  0.00    +0.073 C 
ATOM     34  H   UNL     1      -8.102  -4.300   6.866  0.00  0.00    +0.147 HD
ENDBRANCH  23  26
ENDBRANCH   5  23
TORSDOF 7
