REMARK  Name = ZINC02143079
REMARK  12 active torsions:
REMARK  status: ('A' for Active; 'I' for Inactive)
REMARK    1  A    between atoms: C_1  and  C_2
REMARK    2  A    between atoms: C_2  and  C_3
REMARK    3  A    between atoms: C_3  and  O_4
REMARK    4  A    between atoms: O_4  and  C_5
REMARK    5  A    between atoms: C_8  and  C_14
REMARK    6  A    between atoms: C_10  and  O_11
REMARK    7  A    between atoms: O_11  and  C_12
REMARK    8  A    between atoms: C_12  and  C_13
REMARK    9  A    between atoms: C_16  and  C_23
REMARK   10  A    between atoms: C_17  and  C_22
REMARK   11  A    between atoms: N_25  and  C_26
REMARK   12  A    between atoms: C_29  and  C_32
REMARK                            x       y       z     vdW  Elec       q    Type
REMARK                         _______ _______ _______ _____ _____    ______ ____
ROOT
ATOM      1  C   UNL     1       1.399  -5.461   0.111  0.00  0.00    +0.139 C 
ATOM      2  C   UNL     1       0.662  -5.918   1.353  0.00  0.00    +0.056 C 
ATOM      3  C   UNL     1       0.140  -7.163   1.351  0.00  0.00    +0.017 C 
ATOM      4  N   UNL     1       0.274  -7.982   0.266  0.00  0.00    -0.300 N 
ATOM      5  C   UNL     1       0.914  -7.630  -0.856  0.00  0.00    +0.135 C 
ATOM      6  S   UNL     1       1.008  -8.754  -2.143  0.00  0.00    -0.019 S 
ATOM      7  N   UNL     1       1.487  -6.419  -1.004  0.00  0.00    -0.315 N 
ATOM      8  C   UNL     1      -0.602  -7.657   2.566  0.00  0.00    +0.061 C 
ATOM      9  H   UNL     1      -0.158  -8.993   0.285  0.00  0.00    +0.154 HD
ATOM     10  H   UNL     1       2.011  -6.139  -1.930  0.00  0.00    +0.149 HD
ENDROOT
BRANCH   1  14
ATOM     11  C   UNL     1      -0.527  -1.929  -1.340  0.00  0.00    +0.162 A 
ATOM     12  C   UNL     1      -1.149  -3.161  -1.463  0.00  0.00    +0.050 A 
ATOM     13  C   UNL     1      -0.524  -4.301  -0.993  0.00  0.00    +0.009 A 
ATOM     14  C   UNL     1       0.722  -4.215  -0.400  0.00  0.00    -0.019 A 
ATOM     15  C   UNL     1       1.350  -2.990  -0.279  0.00  0.00    +0.055 A 
ATOM     16  C   UNL     1       0.727  -1.843  -0.743  0.00  0.00    +0.162 A 
BRANCH  11  17
ATOM     17  O   UNL     1      -1.141  -0.807  -1.803  0.00  0.00    -0.488 OA
BRANCH  17  18
ATOM     18  C   UNL     1      -2.427  -0.972  -2.404  0.00  0.00    +0.229 C 
BRANCH  18  20
ATOM     19  C   UNL     1      -4.332   0.214  -3.503  0.00  0.00    +0.007 C 
ATOM     20  C   UNL     1      -2.955   0.390  -2.860  0.00  0.00    +0.038 C 
ENDBRANCH  18  20
ENDBRANCH  17  18
ENDBRANCH  11  17
BRANCH  16  21
ATOM     21  O   UNL     1       1.341  -0.635  -0.620  0.00  0.00    -0.489 OA
BRANCH  21  22
ATOM     22  C   UNL     1       2.653  -0.630  -0.055  0.00  0.00    +0.226 C 
ATOM     23  C   UNL     1       3.206   0.797  -0.063  0.00  0.00    +0.048 C 
ENDBRANCH  21  22
ENDBRANCH  16  21
ENDBRANCH   1  14
BRANCH   2  24
ATOM     24  C   UNL     1       0.524  -5.068   2.477  0.00  0.00    +0.248 C 
ATOM     25  O   UNL     1       1.488  -4.831   3.183  0.00  0.00    -0.270 OA
ATOM     26  N   UNL     1      -0.673  -4.522   2.767  0.00  0.00    -0.282 N 
ATOM     27  H   UNL     1      -1.566  -4.823   2.200  0.00  0.00    +0.155 HD
BRANCH  26  28
ATOM     28  C   UNL     1      -0.780  -3.573   3.788  0.00  0.00    +0.034 A 
ATOM     29  C   UNL     1       0.276  -2.709   4.049  0.00  0.00    +0.023 A 
ATOM     30  C   UNL     1       0.166  -1.769   5.055  0.00  0.00    +0.005 A 
ATOM     31  C   UNL     1      -0.991  -1.695   5.810  0.00  0.00    -0.050 A 
ATOM     32  C   UNL     1      -2.042  -2.557   5.556  0.00  0.00    +0.005 A 
ATOM     33  C   UNL     1      -1.940  -3.495   4.548  0.00  0.00    +0.023 A 
ATOM     34  C   UNL     1      -1.105  -0.672   6.911  0.00  0.00    +0.044 C 
ENDBRANCH  26  28
ENDBRANCH   2  24
TORSDOF 8
