REMARK  Name = ZINC09493294
REMARK  9 active torsions:
REMARK  status: ('A' for Active; 'I' for Inactive)
REMARK    1  A    between atoms: C_1  and  C_2
REMARK    2  A    between atoms: C_2  and  C_4
REMARK    3  A    between atoms: C_2  and  N_46
REMARK    4  A    between atoms: N_6  and  C_7
REMARK    5  A    between atoms: C_9  and  N_14
REMARK    6  A    between atoms: C_17  and  N_46
REMARK    7  A    between atoms: C_18  and  C_19
REMARK    8  A    between atoms: C_18  and  N_46
REMARK    9  A    between atoms: N_21  and  C_22
REMARK                            x       y       z     vdW  Elec       q    Type
REMARK                         _______ _______ _______ _____ _____    ______ ____
ROOT
ATOM      1  C   UNL     1      -7.577  -0.601   1.455  0.00  0.00    -0.004 C 
ATOM      2  C   UNL     1      -6.388  -0.916   0.545  0.00  0.00    +0.017 C 
ENDROOT
BRANCH   2   3
ATOM      3  C   UNL     1      -6.727  -0.538  -0.874  0.00  0.00    +0.203 C 
ATOM      4  O   UNL     1      -6.841  -1.400  -1.720  0.00  0.00    -0.277 OA
ATOM      5  N   UNL     1      -6.903   0.757  -1.203  0.00  0.00    -0.286 N 
ATOM      6  H   UNL     1      -6.748   1.450  -0.542  0.00  0.00    +0.155 HD
BRANCH   5   7
ATOM      7  C   UNL     1      -7.310   1.101  -2.497  0.00  0.00    +0.054 A 
ATOM      8  C   UNL     1      -6.913   0.329  -3.580  0.00  0.00    +0.057 A 
ATOM      9  C   UNL     1      -7.316   0.671  -4.856  0.00  0.00    +0.128 A 
ATOM     10  C   UNL     1      -8.111   1.784  -5.056  0.00  0.00    +0.034 A 
ATOM     11  C   UNL     1      -8.514   2.553  -3.980  0.00  0.00    +0.024 A 
ATOM     12  C   UNL     1      -8.114   2.216  -2.701  0.00  0.00    +0.062 A 
ATOM     13 CL   UNL     1      -8.614   3.185  -1.350  0.00  0.00    -0.082 Cl
BRANCH   9  14
ATOM     14  N   UNL     1      -6.893  -0.152  -6.011  0.00  0.00    +0.056 N 
ATOM     15  O   UNL     1      -6.188  -1.131  -5.836  0.00  0.00    -0.126 OA
ATOM     16  O   UNL     1      -7.252   0.146  -7.136  0.00  0.00    -0.126 OA
ENDBRANCH   9  14
ENDBRANCH   5   7
ENDBRANCH   2   3
BRANCH   2  18
ATOM     17  C   UNL     1      -5.467  -2.702   1.896  0.00  0.00    -0.094 C 
ATOM     18  N   UNL     1      -6.069  -2.359   0.590  0.00  0.00    +0.391 N 
ATOM     19  H   UNL     1      -5.396  -2.575  -0.155  0.00  0.00    -0.080 HD
BRANCH  18  20
ATOM     20  C   UNL     1      -7.296  -3.154   0.375  0.00  0.00    +0.020 C 
BRANCH  20  21
ATOM     21  C   UNL     1      -6.913  -4.602   0.205  0.00  0.00    +0.201 C 
ATOM     22  O   UNL     1      -5.749  -4.933   0.275  0.00  0.00    -0.278 OA
ATOM     23  N   UNL     1      -7.865  -5.528  -0.023  0.00  0.00    -0.287 N 
ATOM     24  H   UNL     1      -8.788  -5.256  -0.144  0.00  0.00    +0.155 HD
BRANCH  23  25
ATOM     25  C   UNL     1      -7.522  -6.884  -0.086  0.00  0.00    +0.035 A 
ATOM     26  C   UNL     1      -6.315  -7.270  -0.656  0.00  0.00    +0.025 A 
ATOM     27  C   UNL     1      -5.975  -8.607  -0.711  0.00  0.00    +0.023 A 
ATOM     28  C   UNL     1      -6.841  -9.564  -0.211  0.00  0.00    +0.059 A 
ATOM     29  C   UNL     1      -8.047  -9.183   0.352  0.00  0.00    +0.061 A 
ATOM     30  C   UNL     1      -8.389  -7.845   0.416  0.00  0.00    +0.044 A 
ATOM     31 CL   UNL     1      -9.131 -10.385   0.980  0.00  0.00    -0.082 Cl
ATOM     32 CL   UNL     1      -6.414 -11.245  -0.289  0.00  0.00    -0.082 Cl
ENDBRANCH  23  25
ENDBRANCH  20  21
ENDBRANCH  18  20
ENDBRANCH   2  18
TORSDOF 7
