REMARK  Name = ZINC64074484
REMARK  4 active torsions:
REMARK  status: ('A' for Active; 'I' for Inactive)
REMARK    1  A    between atoms: C_1  and  O_2
REMARK    2  A    between atoms: O_2  and  C_3
REMARK    3  A    between atoms: C_8  and  C_9
REMARK    4  A    between atoms: C_24  and  C_26
REMARK                            x       y       z     vdW  Elec       q    Type
REMARK                         _______ _______ _______ _____ _____    ______ ____
ROOT
ATOM      1  C   UNL     1       0.070  -2.819  -0.038  0.00  0.00    +0.136 C 
ATOM      2  C   UNL     1      -1.441  -2.921  -0.271  0.00  0.00    +0.131 C 
ATOM      3  C   UNL     1      -1.634  -3.804  -1.497  0.00  0.00    -0.035 C 
ATOM      4  C   UNL     1      -2.350  -3.095  -2.361  0.00  0.00    -0.001 A 
ATOM      5  C   UNL     1      -2.906  -3.432  -3.682  0.00  0.00    +0.010 A 
ATOM      6  C   UNL     1      -3.593  -2.443  -4.313  0.00  0.00    +0.001 A 
ATOM      7  C   UNL     1      -3.781  -1.169  -3.768  0.00  0.00    +0.002 A 
ATOM      8  C   UNL     1      -3.309  -0.774  -2.559  0.00  0.00    +0.026 A 
ATOM      9  C   UNL     1      -2.574  -1.728  -1.798  0.00  0.00    +0.043 A 
ATOM     10  N   UNL     1      -2.031  -1.622  -0.598  0.00  0.00    -0.375 N 
ATOM     11  C   UNL     1      -1.010  -5.173  -1.616  0.00  0.00    +0.052 C 
ATOM     12  C   UNL     1       0.484  -5.009  -1.282  0.00  0.00    +0.113 C 
ATOM     13  N   UNL     1       0.627  -4.180  -0.080  0.00  0.00    -0.288 N 
ATOM     14  C   UNL     1       1.274  -4.669   0.997  0.00  0.00    +0.254 C 
ATOM     15  O   UNL     1       1.312  -4.025   2.028  0.00  0.00    -0.270 OA
ATOM     16  H   UNL     1      -2.016  -0.833  -0.033  0.00  0.00    +0.160 HD
ENDROOT
BRANCH  14  17
ATOM     17  C   UNL     1       1.933  -5.984   0.925  0.00  0.00    +0.122 A 
ATOM     18  C   UNL     1       3.216  -6.121   0.413  0.00  0.00    +0.031 A 
ATOM     19  C   UNL     1       3.772  -7.425   0.347  0.00  0.00    +0.018 A 
ATOM     20  C   UNL     1       5.126  -7.605   0.029  0.00  0.00    +0.011 A 
ATOM     21  C   UNL     1       5.657  -8.863   0.011  0.00  0.00    +0.001 A 
ATOM     22  C   UNL     1       4.865  -9.967   0.296  0.00  0.00    +0.004 A 
ATOM     23  C   UNL     1       3.526  -9.815   0.592  0.00  0.00    +0.047 A 
ATOM     24  C   UNL     1       2.963  -8.546   0.609  0.00  0.00    +0.139 A 
ATOM     25  O   UNL     1       1.641  -8.387   0.856  0.00  0.00    -0.422 OA
ATOM     26  C   UNL     1       1.258  -7.206   1.401  0.00  0.00    +0.350 A 
ATOM     27  O   UNL     1       0.388  -7.154   2.249  0.00  0.00    -0.244 OA
ENDBRANCH  14  17
BRANCH   1  33
ATOM     28  C   UNL     1       1.341  -0.793  -0.795  0.00  0.00    +0.125 A 
ATOM     29  C   UNL     1       1.921  -0.024  -1.793  0.00  0.00    +0.046 A 
ATOM     30  C   UNL     1       1.852  -0.437  -3.109  0.00  0.00    +0.004 A 
ATOM     31  C   UNL     1       1.205  -1.616  -3.433  0.00  0.00    +0.001 A 
ATOM     32  C   UNL     1       0.625  -2.384  -2.440  0.00  0.00    +0.009 A 
ATOM     33  C   UNL     1       0.697  -1.978  -1.121  0.00  0.00    +0.017 A 
BRANCH  28  35
ATOM     34  C   UNL     1       2.086   0.840   0.763  0.00  0.00    +0.277 C 
ATOM     35  O   UNL     1       1.408  -0.390   0.501  0.00  0.00    -0.495 OA
ENDBRANCH  28  35
ENDBRANCH   1  33
TORSDOF 3
