REMARK  Name = ZINC54968317
REMARK  7 active torsions:
REMARK  status: ('A' for Active; 'I' for Inactive)
REMARK    1  A    between atoms: C_1  and  C_2
REMARK    2  A    between atoms: C_8  and  C_10
REMARK    3  A    between atoms: C_13  and  C_19
REMARK    4  A    between atoms: C_14  and  C_16
REMARK    5  A    between atoms: C_19  and  C_20
REMARK    6  A    between atoms: C_19  and  C_21
REMARK    7  A    between atoms: C_19  and  C_22
REMARK                            x       y       z     vdW  Elec       q    Type
REMARK                         _______ _______ _______ _____ _____    ______ ____
ROOT
ATOM      1  C   UNL     1       3.206   1.301  -1.873  0.00  0.00    +0.009 C 
ATOM      2  C   UNL     1       2.653  -0.040  -1.385  0.00  0.00    +0.006 C 
ATOM      3  C   UNL     1       1.123   0.005  -1.392  0.00  0.00    +0.006 C 
ATOM      4  C   UNL     1       0.569  -1.346  -0.935  0.00  0.00    +0.019 C 
ATOM      5  C   UNL     1       1.037  -1.627   0.496  0.00  0.00    +0.107 C 
ATOM      6  N   UNL     1       2.502  -1.529   0.542  0.00  0.00    -0.307 N 
ATOM      7  C   UNL     1       3.145  -0.306   0.041  0.00  0.00    +0.075 C 
ATOM      8  C   UNL     1       2.774   0.874   0.942  0.00  0.00    +0.028 C 
ATOM      9  C   UNL     1       3.259  -2.563   1.046  0.00  0.00    +0.162 A 
ATOM     10  N   UNL     1       2.843  -3.723   1.527  0.00  0.00    -0.228 NA
ATOM     11  C   UNL     1       3.683  -4.618   1.975  0.00  0.00    +0.070 A 
ATOM     12  C   UNL     1       5.032  -4.282   1.916  0.00  0.00    +0.125 A 
ATOM     13  S   UNL     1       4.933  -2.654   1.188  0.00  0.00    -0.045 S 
ENDROOT
BRANCH  11  14
ATOM     14  C   UNL     1       3.217  -5.941   2.525  0.00  0.00    +0.006 C 
ATOM     15  C   UNL     1       1.695  -5.922   2.678  0.00  0.00    +0.017 C 
ATOM     16  C   UNL     1       3.619  -7.063   1.565  0.00  0.00    +0.017 C 
ATOM     17  C   UNL     1       3.863  -6.182   3.891  0.00  0.00    +0.017 C 
ENDBRANCH  11  14
BRANCH  12  18
ATOM     18  C   UNL     1       6.165  -5.024   2.316  0.00  0.00    +0.395 C 
ATOM     19  O   UNL     1       6.120  -6.249   2.337  0.00  0.00    -0.240 OA
ATOM     20  O   UNL     1       7.194  -4.444   2.643  0.00  0.00    -0.240 OA
ENDBRANCH  12  18
TORSDOF 2
