REMARK  Name = ZINC14541993
REMARK  12 active torsions:
REMARK  status: ('A' for Active; 'I' for Inactive)
REMARK    1  A    between atoms: C_1  and  C_2
REMARK    2  A    between atoms: C_2  and  C_3
REMARK    3  A    between atoms: C_2  and  C_4
REMARK    4  A    between atoms: C_2  and  N_5
REMARK    5  A    between atoms: N_5  and  S_6
REMARK    6  A    between atoms: S_6  and  C_9
REMARK    7  A    between atoms: C_11  and  C_20
REMARK    8  A    between atoms: C_13  and  N_15
REMARK    9  A    between atoms: N_15  and  C_16
REMARK   10  A    between atoms: N_22  and  C_23
REMARK   11  A    between atoms: C_23  and  C_24
REMARK   12  A    between atoms: C_30  and  N_66
REMARK                            x       y       z     vdW  Elec       q    Type
REMARK                         _______ _______ _______ _____ _____    ______ ____
ROOT
ATOM      1  C   UNL     1      -0.930   1.920   1.347  0.00  0.00    +0.108 A 
ATOM      2  C   UNL     1      -0.200   3.034   1.706  0.00  0.00    +0.041 A 
ATOM      3  C   UNL     1      -0.592   3.801   2.804  0.00  0.00    +0.040 A 
ATOM      4  C   UNL     1      -1.717   3.431   3.541  0.00  0.00    +0.036 A 
ATOM      5  C   UNL     1      -2.441   2.307   3.175  0.00  0.00    +0.030 A 
ATOM      6  C   UNL     1      -2.044   1.553   2.077  0.00  0.00    +0.051 A 
ENDROOT
BRANCH   3   7
ATOM      7  C   UNL     1       0.185   4.999   3.188  0.00  0.00    +0.244 C 
ATOM      8  O   UNL     1       1.165   5.320   2.545  0.00  0.00    -0.270 OA
ATOM      9  N   UNL     1      -0.193   5.735   4.252  0.00  0.00    -0.311 N 
ATOM     10  H   UNL     1      -0.975   5.479   4.766  0.00  0.00    +0.149 HD
BRANCH   9  11
ATOM     11  C   UNL     1       0.578   6.922   4.633  0.00  0.00    +0.106 C 
BRANCH  11  12
ATOM     12  C   UNL     1      -0.059   7.571   5.863  0.00  0.00    -0.011 C 
ATOM     13  C   UNL     1       0.811   8.739   6.333  0.00  0.00    +0.001 C 
ATOM     14  C   UNL     1       0.136   9.420   7.528  0.00  0.00    -0.018 C 
ATOM     15  C   UNL     1      -1.263   9.886   7.120  0.00  0.00    -0.079 C 
ATOM     16  C   UNL     1      -1.453   8.091   5.503  0.00  0.00    -0.074 C 
ATOM     17  C   UNL     1      -3.447   9.121   6.410  0.00  0.00    -0.096 C 
ATOM     18  N   UNL     1      -2.057   8.712   6.701  0.00  0.00    +0.378 N 
ATOM     19  H   UNL     1      -2.064   8.026   7.465  0.00  0.00    -0.082 HD
ENDBRANCH  11  12
ENDBRANCH   9  11
ENDBRANCH   3   7
BRANCH   1  20
ATOM     20  S   UNL     1      -0.435   0.957  -0.044  0.00  0.00    +0.059 S 
ATOM     21  O   UNL     1      -0.632  -0.404   0.314  0.00  0.00    -0.153 OA
ATOM     22  O   UNL     1       0.828   1.461  -0.458  0.00  0.00    -0.153 OA
BRANCH  20  23
ATOM     23  N   UNL     1      -1.500   1.284  -1.269  0.00  0.00    -0.185 NA
ATOM     24  H   UNL     1      -2.119   0.600  -1.569  0.00  0.00    +0.149 HD
BRANCH  23  26
ATOM     25  C   UNL     1      -0.143   2.872  -2.541  0.00  0.00    +0.029 C 
ATOM     26  C   UNL     1      -1.507   2.605  -1.901  0.00  0.00    +0.032 C 
ATOM     27  C   UNL     1      -2.593   2.651  -2.977  0.00  0.00    +0.029 C 
ATOM     28  C   UNL     1      -1.791   3.674  -0.844  0.00  0.00    +0.029 C 
ENDBRANCH  23  26
ENDBRANCH  20  23
ENDBRANCH   1  20
BRANCH   5  29
ATOM     29  N   UNL     1      -3.568   1.932   3.910  0.00  0.00    -0.341 N 
ATOM     30  H   UNL     1      -4.075   1.146   3.653  0.00  0.00    +0.146 HD
BRANCH  29  31
ATOM     31  C   UNL     1      -3.986   2.727   5.067  0.00  0.00    +0.070 C 
ATOM     32  C   UNL     1      -3.679   2.058   6.417  0.00  0.00    +0.022 C 
ATOM     33  C   UNL     1      -5.050   2.573   6.893  0.00  0.00    +0.004 C 
ATOM     34  C   UNL     1      -5.476   2.572   5.416  0.00  0.00    +0.022 C 
ENDBRANCH  29  31
ENDBRANCH   5  29
TORSDOF 8
