REMARK  Name = ZINC36647949
REMARK  10 active torsions:
REMARK  status: ('A' for Active; 'I' for Inactive)
REMARK    1  A    between atoms: C_1  and  C_2
REMARK    2  A    between atoms: C_2  and  N_3
REMARK    3  A    between atoms: N_3  and  C_4
REMARK    4  A    between atoms: N_3  and  C_6
REMARK    5  A    between atoms: C_4  and  C_5
REMARK    6  A    between atoms: C_6  and  C_7
REMARK    7  A    between atoms: C_7  and  N_8
REMARK    8  A    between atoms: C_19  and  C_21
REMARK    9  A    between atoms: N_26  and  S_28
REMARK   10  A    between atoms: S_28  and  C_31
REMARK                            x       y       z     vdW  Elec       q    Type
REMARK                         _______ _______ _______ _____ _____    ______ ____
ROOT
ATOM      1  N   UNL     1      -2.949  -4.027   0.546  0.00  0.00    -0.252 N 
ATOM      2  C   UNL     1      -2.975  -4.713   1.751  0.00  0.00    +0.168 A 
ATOM      3  N   UNL     1      -3.030  -4.231   2.970  0.00  0.00    -0.224 NA
ATOM      4  C   UNL     1      -3.050  -5.025   4.064  0.00  0.00    +0.080 A 
ATOM      5  C   UNL     1      -3.106  -4.637   5.422  0.00  0.00    +0.032 A 
ATOM      6  C   UNL     1      -3.118  -5.577   6.420  0.00  0.00    +0.040 A 
ATOM      7  C   UNL     1      -3.076  -6.936   6.136  0.00  0.00    +0.125 A 
ATOM      8  C   UNL     1      -3.021  -7.351   4.816  0.00  0.00    +0.055 A 
ATOM      9  C   UNL     1      -3.009  -6.415   3.812  0.00  0.00    +0.043 A 
ATOM     10  S   UNL     1      -2.952  -6.476   2.037  0.00  0.00    -0.052 S 
ATOM     11  F   UNL     1      -3.088  -7.843   7.137  0.00  0.00    -0.205 F 
ATOM     12  C   UNL     1      -3.022  -4.705  -0.616  0.00  0.00    +0.226 C 
ATOM     13  O   UNL     1      -2.900  -4.117  -1.670  0.00  0.00    -0.275 OA
ENDROOT
BRANCH  12  14
ATOM     14  C   UNL     1      -3.257  -6.194  -0.607  0.00  0.00    +0.091 C 
ATOM     15  C   UNL     1      -4.688  -6.483  -0.149  0.00  0.00    +0.015 C 
ATOM     16  C   UNL     1      -4.917  -7.995  -0.108  0.00  0.00    +0.018 C 
ATOM     17  C   UNL     1      -4.734  -8.574  -1.515  0.00  0.00    +0.109 C 
ATOM     18  N   UNL     1      -3.413  -8.177  -2.021  0.00  0.00    -0.175 NA
ATOM     19  C   UNL     1      -3.054  -6.752  -2.019  0.00  0.00    +0.122 C 
BRANCH  18  20
ATOM     20  S   UNL     1      -2.347  -9.314  -2.582  0.00  0.00    +0.067 S 
ATOM     21  O   UNL     1      -1.049  -8.748  -2.462  0.00  0.00    -0.152 OA
ATOM     22  O   UNL     1      -2.703 -10.543  -1.964  0.00  0.00    -0.152 OA
BRANCH  20  23
ATOM     23  C   UNL     1      -2.654  -9.509  -4.306  0.00  0.00    +0.143 A 
ATOM     24  C   UNL     1      -2.099  -8.849  -5.352  0.00  0.00    +0.036 A 
ATOM     25  C   UNL     1      -2.496  -9.172  -6.636  0.00  0.00    +0.010 A 
ATOM     26  C   UNL     1      -3.428 -10.141  -6.811  0.00  0.00    +0.047 A 
ATOM     27  S   UNL     1      -3.770 -10.633  -5.129  0.00  0.00    -0.077 S 
ENDBRANCH  20  23
ENDBRANCH  18  20
ENDBRANCH  12  14
BRANCH   1  28
ATOM     28  C   UNL     1      -2.841  -2.566   0.537  0.00  0.00    +0.097 C 
BRANCH  28  29
ATOM     29  C   UNL     1      -1.372  -2.165   0.388  0.00  0.00    -0.059 C 
BRANCH  29  30
ATOM     30  N   UNL     1      -1.275  -0.706   0.248  0.00  0.00    +0.380 N 
ATOM     31  H   UNL     1      -1.869  -0.400  -0.508  0.00  0.00    -0.082 HD
BRANCH  30  33
ATOM     32  C   UNL     1      -1.724   1.454   1.312  0.00  0.00    -0.017 C 
ATOM     33  C   UNL     1      -1.706  -0.065   1.498  0.00  0.00    -0.082 C 
ENDBRANCH  30  33
BRANCH  30  34
ATOM     34  C   UNL     1       0.116  -0.332  -0.039  0.00  0.00    -0.082 C 
ATOM     35  C   UNL     1       0.517  -0.877  -1.412  0.00  0.00    -0.017 C 
ENDBRANCH  30  34
ENDBRANCH  29  30
ENDBRANCH  28  29
ENDBRANCH   1  28
TORSDOF 8
