REMARK  Name = ZINC13541490
REMARK  2 active torsions:
REMARK  status: ('A' for Active; 'I' for Inactive)
REMARK    1  A    between atoms: C_4  and  C_7
REMARK    2  A    between atoms: C_7  and  N_8
REMARK                            x       y       z     vdW  Elec       q    Type
REMARK                         _______ _______ _______ _____ _____    ______ ____
ROOT
ATOM      1  N   UNL     1       4.152  -0.952   1.338  0.00  0.00    -0.219 N 
ATOM      2  C   UNL     1       4.915  -0.039   1.953  0.00  0.00    +0.241 C 
ATOM      3  O   UNL     1       5.222   0.972   1.357  0.00  0.00    -0.274 OA
ATOM      4  C   UNL     1       5.402  -0.233   3.367  0.00  0.00    +0.152 C 
ATOM      5  C   UNL     1       6.925  -0.257   3.364  0.00  0.00    +0.072 C 
ATOM      6  C   UNL     1       7.583   0.720   4.282  0.00  0.00    +0.057 A 
ATOM      7  C   UNL     1       6.917   1.256   5.384  0.00  0.00    +0.109 A 
ATOM      8  N   UNL     1       7.525   2.075   6.222  0.00  0.00    -0.329 N 
ATOM      9  C   UNL     1       8.790   2.443   6.012  0.00  0.00    +0.119 A 
ATOM     10  C   UNL     1       9.418   3.314   6.922  0.00  0.00    +0.045 A 
ATOM     11  C   UNL     1      10.703   3.704   6.696  0.00  0.00    +0.005 A 
ATOM     12  C   UNL     1      11.380   3.231   5.562  0.00  0.00    +0.018 A 
ATOM     13  C   UNL     1      10.763   2.389   4.704  0.00  0.00    +0.096 A 
ATOM     14  N   UNL     1       9.480   1.984   4.924  0.00  0.00    -0.269 N 
ATOM     15  C   UNL     1       8.901   1.122   4.061  0.00  0.00    +0.263 A 
ATOM     16  O   UNL     1       9.524   0.699   3.099  0.00  0.00    -0.267 OA
ATOM     17  N   UNL     1       5.571   0.927   5.502  0.00  0.00    -0.307 N 
ATOM     18  C   UNL     1       4.851   0.900   4.233  0.00  0.00    +0.129 C 
ATOM     19  C   UNL     1       3.369   0.783   4.401  0.00  0.00    -0.022 A 
ATOM     20  C   UNL     1       2.591   0.603   3.264  0.00  0.00    +0.006 A 
ATOM     21  C   UNL     1       1.221   0.479   3.363  0.00  0.00    +0.000 A 
ATOM     22  C   UNL     1       0.613   0.533   4.604  0.00  0.00    +0.000 A 
ATOM     23  C   UNL     1       1.382   0.716   5.734  0.00  0.00    +0.004 A 
ATOM     24  C   UNL     1       2.761   0.848   5.636  0.00  0.00    -0.041 A 
ATOM     25  C   UNL     1       3.541   1.077   6.898  0.00  0.00    +0.054 C 
ATOM     26  C   UNL     1       4.979   0.611   6.782  0.00  0.00    +0.112 C 
ATOM     27  C   UNL     1       4.894  -1.545   3.908  0.00  0.00    +0.258 C 
ATOM     28  O   UNL     1       5.220  -1.893   5.163  0.00  0.00    -0.272 OA
ATOM     29  N   UNL     1       4.157  -2.352   3.212  0.00  0.00    -0.127 NA
ATOM     30  C   UNL     1       3.777  -2.085   1.954  0.00  0.00    +0.335 C 
ATOM     31  O   UNL     1       3.082  -2.886   1.358  0.00  0.00    -0.250 OA
ATOM     32  H   UNL     1       7.049   2.412   6.997  0.00  0.00    +0.168 HD
ENDROOT
BRANCH   1  33
ATOM     33  C   UNL     1       3.711  -0.707  -0.038  0.00  0.00    +0.153 C 
BRANCH  33  37
ATOM     34  C   UNL     1      -0.017   1.378   0.010  0.00  0.00    +0.000 A 
ATOM     35  C   UNL     1       1.171   2.086   0.002  0.00  0.00    +0.000 A 
ATOM     36  C   UNL     1       2.377   1.411  -0.013  0.00  0.00    +0.005 A 
ATOM     37  C   UNL     1       2.396   0.029  -0.020  0.00  0.00    -0.030 A 
ATOM     38  C   UNL     1       1.208  -0.679  -0.012  0.00  0.00    +0.005 A 
ATOM     39  C   UNL     1       0.002  -0.004   0.002  0.00  0.00    +0.000 A 
ENDBRANCH  33  37
ENDBRANCH   1  33
TORSDOF 2
