REMARK  Name = ZINC35535101
REMARK  6 active torsions:
REMARK  status: ('A' for Active; 'I' for Inactive)
REMARK    1  A    between atoms: C_6  and  S_7
REMARK    2  A    between atoms: S_7  and  N_10
REMARK    3  A    between atoms: N_13  and  C_16
REMARK    4  A    between atoms: C_16  and  C_17
REMARK    5  A    between atoms: N_19  and  C_20
REMARK    6  A    between atoms: C_21  and  C_29
REMARK                            x       y       z     vdW  Elec       q    Type
REMARK                         _______ _______ _______ _____ _____    ______ ____
ROOT
ATOM      1  N   UNL     1      -1.948  -1.147  -1.567  0.00  0.00    -0.174 NA
ATOM      2  C   UNL     1      -2.788  -0.170  -2.276  0.00  0.00    +0.125 C 
ATOM      3  C   UNL     1      -3.963  -0.914  -2.919  0.00  0.00    +0.102 C 
ATOM      4  N   UNL     1      -3.449  -2.010  -3.751  0.00  0.00    -0.291 NA
ATOM      5  C   UNL     1      -2.732  -3.003  -2.939  0.00  0.00    +0.102 C 
ATOM      6  C   UNL     1      -1.502  -2.342  -2.299  0.00  0.00    +0.125 C 
ENDROOT
BRANCH   1   7
ATOM      7  S   UNL     1      -1.512  -0.905   0.012  0.00  0.00    +0.061 S 
ATOM      8  O   UNL     1      -1.218  -2.186   0.553  0.00  0.00    -0.153 OA
ATOM      9  O   UNL     1      -2.492  -0.046   0.577  0.00  0.00    -0.153 OA
BRANCH   7  15
ATOM     10  C   UNL     1      -0.017   1.378   0.010  0.00  0.00    +0.030 A 
ATOM     11  C   UNL     1       1.171   2.086   0.002  0.00  0.00    +0.022 A 
ATOM     12  C   UNL     1       2.378   1.410  -0.013  0.00  0.00    +0.041 A 
ATOM     13  C   UNL     1       2.396   0.027  -0.021  0.00  0.00    +0.022 A 
ATOM     14  C   UNL     1       1.208  -0.679  -0.013  0.00  0.00    +0.030 A 
ATOM     15  C   UNL     1       0.002  -0.004   0.002  0.00  0.00    +0.106 A 
ATOM     16 CL   UNL     1       3.870   2.298  -0.023  0.00  0.00    -0.084 Cl
ENDBRANCH   7  15
ENDBRANCH   1   7
BRANCH   4  17
ATOM     17  C   UNL     1      -4.530  -2.640  -4.519  0.00  0.00    +0.180 C 
BRANCH  17  18
ATOM     18  C   UNL     1      -3.941  -3.585  -5.534  0.00  0.00    +0.232 C 
ATOM     19  O   UNL     1      -2.738  -3.721  -5.610  0.00  0.00    -0.274 OA
ATOM     20  N   UNL     1      -4.750  -4.280  -6.358  0.00  0.00    -0.278 N 
ATOM     21  H   UNL     1      -5.713  -4.171  -6.298  0.00  0.00    +0.155 HD
BRANCH  20  22
ATOM     22  C   UNL     1      -4.207  -5.151  -7.293  0.00  0.00    +0.090 A 
ATOM     23  C   UNL     1      -4.878  -5.935  -8.217  0.00  0.00    +0.084 A 
ATOM     24  C   UNL     1      -4.073  -6.768  -9.092  0.00  0.00    -0.018 A 
ATOM     25  C   UNL     1      -2.742  -6.663  -8.882  0.00  0.00    -0.004 A 
ATOM     26  S   UNL     1      -2.586  -5.489  -7.569  0.00  0.00    -0.077 S 
ATOM     27  C   UNL     1      -1.657  -7.389  -9.615  0.00  0.00    +0.043 C 
ATOM     28  C   UNL     1      -2.292  -8.554 -10.388  0.00  0.00    +0.005 C 
ATOM     29  C   UNL     1      -3.516  -8.035 -11.149  0.00  0.00    +0.005 C 
ATOM     30  C   UNL     1      -4.635  -7.690 -10.164  0.00  0.00    +0.037 C 
BRANCH  23  31
ATOM     31  C   UNL     1      -6.308  -5.925  -8.305  0.00  0.00    +0.102 C 
ATOM     32  N   UNL     1      -7.442  -5.918  -8.374  0.00  0.00    -0.191 NA
ENDBRANCH  23  31
ENDBRANCH  20  22
ENDBRANCH  17  18
ENDBRANCH   4  17
TORSDOF 6
