REMARK  Name = ZINC09312608
REMARK  6 active torsions:
REMARK  status: ('A' for Active; 'I' for Inactive)
REMARK    1  A    between atoms: C_1  and  N_2
REMARK    2  A    between atoms: N_7  and  N_8
REMARK    3  A    between atoms: N_8  and  C_9
REMARK    4  A    between atoms: N_16  and  C_19
REMARK    5  A    between atoms: N_26  and  C_33
REMARK    6  A    between atoms: N_29  and  C_32
REMARK                            x       y       z     vdW  Elec       q    Type
REMARK                         _______ _______ _______ _____ _____    ______ ____
ROOT
ATOM      1  N   UNL     1       0.029  -1.341   3.435  0.00  0.00    -0.271 N 
ATOM      2  H   UNL     1       0.024  -2.289   3.228  0.00  0.00    +0.169 HD
ENDROOT
BRANCH   1   9
ATOM      3  C   UNL     1      -0.053   1.468   0.015  0.00  0.00    +0.152 C 
ATOM      4  N   UNL     1      -0.054   0.003   0.004  0.00  0.00    -0.308 N 
ATOM      5  C   UNL     1      -0.075  -0.818  -1.115  0.00  0.00    +0.153 A 
ATOM      6  C   UNL     1      -0.066  -2.126  -0.642  0.00  0.00    +0.170 A 
ATOM      7  N   UNL     1      -0.040  -2.071   0.690  0.00  0.00    -0.195 NA
ATOM      8  C   UNL     1      -0.028  -0.815   1.089  0.00  0.00    +0.214 A 
ATOM      9  N   UNL     1       0.004  -0.398   2.400  0.00  0.00    -0.236 N 
ATOM     10  N   UNL     1      -0.084  -3.166  -1.557  0.00  0.00    -0.280 N 
ATOM     11  C   UNL     1      -0.109  -2.904  -2.877  0.00  0.00    +0.333 A 
ATOM     12  O   UNL     1      -0.124  -3.829  -3.666  0.00  0.00    -0.246 OA
ATOM     13  N   UNL     1      -0.118  -1.643  -3.345  0.00  0.00    -0.262 N 
ATOM     14  C   UNL     1      -0.102  -0.590  -2.502  0.00  0.00    +0.282 A 
ATOM     15  O   UNL     1      -0.110   0.548  -2.939  0.00  0.00    -0.265 OA
ATOM     16  C   UNL     1      -0.145  -1.411  -4.791  0.00  0.00    +0.157 C 
ATOM     17  C   UNL     1      -0.074  -4.554  -1.087  0.00  0.00    +0.155 C 
ATOM     18  H   UNL     1       0.009   0.550   2.607  0.00  0.00    +0.173 HD
ENDBRANCH   1   9
BRANCH   1  19
ATOM     19  C   UNL     1       0.060  -0.933   4.718  0.00  0.00    +0.106 C 
ATOM     20  C   UNL     1      -0.022  -1.862   5.744  0.00  0.00    +0.116 C 
ATOM     21  C   UNL     1      -0.133  -1.446   7.148  0.00  0.00    +0.278 C 
ATOM     22  O   UNL     1      -0.159  -0.139   7.481  0.00  0.00    -0.268 OA
ATOM     23  N   UNL     1      -0.207  -2.383   8.080  0.00  0.00    -0.123 NA
ATOM     24  C   UNL     1      -0.184  -3.679   7.781  0.00  0.00    +0.340 C 
ATOM     25  O   UNL     1      -0.257  -4.482   8.694  0.00  0.00    -0.250 OA
ATOM     26  N   UNL     1      -0.085  -4.149   6.529  0.00  0.00    -0.187 N 
ATOM     27  C   UNL     1      -0.007  -3.311   5.473  0.00  0.00    +0.265 C 
ATOM     28  O   UNL     1       0.077  -3.737   4.336  0.00  0.00    -0.269 OA
BRANCH  26  29
ATOM     29  C   UNL     1      -0.069  -5.534   6.312  0.00  0.00    +0.064 A 
ATOM     30  C   UNL     1      -1.258  -6.220   6.104  0.00  0.00    +0.025 A 
ATOM     31  C   UNL     1      -1.239  -7.584   5.890  0.00  0.00    +0.002 A 
ATOM     32  C   UNL     1      -0.037  -8.268   5.884  0.00  0.00    +0.002 A 
ATOM     33  C   UNL     1       1.150  -7.589   6.090  0.00  0.00    +0.022 A 
ATOM     34  C   UNL     1       1.138  -6.222   6.299  0.00  0.00    +0.063 A 
ATOM     35 CL   UNL     1       2.628  -5.369   6.551  0.00  0.00    -0.082 Cl
ENDBRANCH  26  29
ENDBRANCH   1  19
TORSDOF 3
