REMARK  Name = ZINC13346273
REMARK  13 active torsions:
REMARK  status: ('A' for Active; 'I' for Inactive)
REMARK    1  A    between atoms: C_1  and  C_2
REMARK    2  A    between atoms: C_2  and  C_3
REMARK    3  A    between atoms: C_2  and  C_4
REMARK    4  A    between atoms: C_2  and  C_5
REMARK    5  A    between atoms: C_8  and  C_11
REMARK    6  A    between atoms: C_14  and  S_19
REMARK    7  A    between atoms: N_15  and  C_16
REMARK    8  A    between atoms: C_16  and  C_17
REMARK    9  A    between atoms: S_19  and  C_20
REMARK   10  A    between atoms: C_20  and  C_21
REMARK   11  A    between atoms: N_23  and  C_24
REMARK   12  A    between atoms: C_26  and  C_32
REMARK   13  A    between atoms: C_28  and  C_30
REMARK                            x       y       z     vdW  Elec       q    Type
REMARK                         _______ _______ _______ _____ _____    ______ ____
ROOT
ATOM      1  C   UNL     1      -0.144  -0.564  -0.464  0.00  0.00    +0.165 A 
ATOM      2  N   UNL     1       1.016  -1.043  -0.079  0.00  0.00    -0.128 NA
ATOM      3  N   UNL     1       1.038  -2.318  -0.240  0.00  0.00    -0.122 NA
ATOM      4  C   UNL     1      -0.106  -2.731  -0.738  0.00  0.00    +0.193 A 
ATOM      5  N   UNL     1      -0.900  -1.631  -0.892  0.00  0.00    -0.298 N 
ENDROOT
BRANCH   1   9
ATOM      6  C   UNL     1      -1.344   3.510  -0.382  0.00  0.00    -0.042 A 
ATOM      7  C   UNL     1      -0.278   3.090   0.394  0.00  0.00    +0.005 A 
ATOM      8  C   UNL     1       0.117   1.769   0.372  0.00  0.00    +0.012 A 
ATOM      9  C   UNL     1      -0.562   0.854  -0.435  0.00  0.00    +0.019 A 
ATOM     10  C   UNL     1      -1.633   1.285  -1.220  0.00  0.00    +0.012 A 
ATOM     11  C   UNL     1      -2.021   2.609  -1.184  0.00  0.00    +0.005 A 
BRANCH   6  13
ATOM     12  C   UNL     1      -0.608   5.839  -0.810  0.00  0.00    +0.015 C 
ATOM     13  C   UNL     1      -1.770   4.955  -0.352  0.00  0.00    -0.013 C 
ATOM     14  C   UNL     1      -2.962   5.155  -1.291  0.00  0.00    +0.015 C 
ATOM     15  C   UNL     1      -2.173   5.339   1.073  0.00  0.00    +0.015 C 
ENDBRANCH   6  13
ENDBRANCH   1   9
BRANCH   5  16
ATOM     16  C   UNL     1      -2.271  -1.593  -1.409  0.00  0.00    +0.152 C 
BRANCH  16  17
ATOM     17  C   UNL     1      -2.238  -1.450  -2.909  0.00  0.00    -0.013 C 
ATOM     18  C   UNL     1      -2.866  -2.317  -3.664  0.00  0.00    +0.005 C 
ENDBRANCH  16  17
ENDBRANCH   5  16
BRANCH   4  19
ATOM     19  S   UNL     1      -0.538  -4.394  -1.126  0.00  0.00    -0.077 S 
BRANCH  19  20
ATOM     20  C   UNL     1       0.992  -5.236  -0.648  0.00  0.00    +0.173 C 
BRANCH  20  21
ATOM     21  C   UNL     1       0.851  -6.715  -0.900  0.00  0.00    +0.227 C 
ATOM     22  O   UNL     1      -0.182  -7.157  -1.357  0.00  0.00    -0.275 OA
ATOM     23  N   UNL     1       1.872  -7.547  -0.616  0.00  0.00    -0.285 N 
ATOM     24  H   UNL     1       2.672  -7.205  -0.187  0.00  0.00    +0.155 HD
BRANCH  23  25
ATOM     25  C   UNL     1       1.780  -8.905  -0.941  0.00  0.00    +0.035 A 
ATOM     26  C   UNL     1       0.560  -9.559  -0.844  0.00  0.00    +0.038 A 
ATOM     27  C   UNL     1       0.463 -10.912  -1.173  0.00  0.00    +0.066 A 
ATOM     28  C   UNL     1       1.595 -11.610  -1.589  0.00  0.00    +0.030 A 
ATOM     29  C   UNL     1       2.820 -10.951  -1.681  0.00  0.00    +0.066 A 
ATOM     30  C   UNL     1       2.909  -9.596  -1.355  0.00  0.00    +0.038 A 
BRANCH  29  31
ATOM     31  C   UNL     1       4.024 -11.686  -2.122  0.00  0.00    +0.387 C 
ATOM     32  O   UNL     1       5.091 -11.112  -2.202  0.00  0.00    -0.241 OA
ATOM     33  O   UNL     1       3.937 -12.993  -2.436  0.00  0.00    -0.241 OA
ENDBRANCH  29  31
BRANCH  27  34
ATOM     34  C   UNL     1      -0.838 -11.606  -1.073  0.00  0.00    +0.387 C 
ATOM     35  O   UNL     1      -1.825 -10.997  -0.710  0.00  0.00    -0.241 OA
ATOM     36  O   UNL     1      -0.930 -12.913  -1.386  0.00  0.00    -0.241 OA
ENDBRANCH  27  34
ENDBRANCH  23  25
ENDBRANCH  20  21
ENDBRANCH  19  20
ENDBRANCH   4  19
TORSDOF 10
