REMARK  Name = ZINC63962750
REMARK  3 active torsions:
REMARK  status: ('A' for Active; 'I' for Inactive)
REMARK    1  A    between atoms: C_10  and  C_12
REMARK    2  A    between atoms: N_14  and  C_15
REMARK    3  A    between atoms: C_22  and  C_24
REMARK                            x       y       z     vdW  Elec       q    Type
REMARK                         _______ _______ _______ _____ _____    ______ ____
ROOT
ATOM      1  C   UNL     1       5.824  -0.462   0.943  0.00  0.00    +0.284 C 
ATOM      2  O   UNL     1       6.642   0.170   1.581  0.00  0.00    -0.266 OA
ATOM      3  N   UNL     1       6.125  -1.699   0.499  0.00  0.00    -0.279 N 
ATOM      4  H   UNL     1       5.447  -2.233   0.057  0.00  0.00    +0.155 HD
ENDROOT
BRANCH   1  14
ATOM      5  C   UNL     1       0.281   1.149  -1.752  0.00  0.00    +0.001 A 
ATOM      6  C   UNL     1       0.690  -0.115  -2.152  0.00  0.00    +0.004 A 
ATOM      7  C   UNL     1       1.804  -0.706  -1.595  0.00  0.00    +0.047 A 
ATOM      8  C   UNL     1       2.530  -0.031  -0.619  0.00  0.00    +0.139 A 
ATOM      9  C   UNL     1       2.111   1.252  -0.224  0.00  0.00    +0.064 A 
ATOM     10  C   UNL     1       0.981   1.832  -0.795  0.00  0.00    +0.015 A 
ATOM     11  C   UNL     1       2.907   1.957   0.801  0.00  0.00    +0.193 A 
ATOM     12  O   UNL     1       2.499   2.961   1.357  0.00  0.00    -0.287 OA
ATOM     13  C   UNL     1       4.223   1.373   1.110  0.00  0.00    +0.103 A 
ATOM     14  C   UNL     1       4.496   0.127   0.651  0.00  0.00    +0.194 A 
ATOM     15  O   UNL     1       3.615  -0.595  -0.056  0.00  0.00    -0.450 OA
ENDBRANCH   1  14
BRANCH   3  16
ATOM     16  C   UNL     1       7.413  -2.212   0.678  0.00  0.00    +0.035 A 
ATOM     17  C   UNL     1       7.605  -3.578   0.883  0.00  0.00    +0.025 A 
ATOM     18  C   UNL     1       8.848  -4.102   1.060  0.00  0.00    +0.031 A 
ATOM     19  C   UNL     1       9.989  -3.272   1.041  0.00  0.00    +0.079 A 
ATOM     20  C   UNL     1       9.770  -1.892   0.831  0.00  0.00    +0.041 A 
ATOM     21  C   UNL     1       8.515  -1.366   0.647  0.00  0.00    +0.040 A 
ATOM     22  S   UNL     1      11.421  -1.246   0.879  0.00  0.00    -0.072 S 
ATOM     23  C   UNL     1      12.233  -2.695   1.149  0.00  0.00    +0.083 A 
ATOM     24  N   UNL     1      11.291  -3.590   1.194  0.00  0.00    -0.244 NA
BRANCH  23  25
ATOM     25  C   UNL     1      13.718  -2.907   1.303  0.00  0.00    +0.045 C 
ATOM     26  C   UNL     1      14.225  -4.350   1.339  0.00  0.00    +0.011 C 
ATOM     27  C   UNL     1      14.212  -3.510   2.619  0.00  0.00    +0.011 C 
ENDBRANCH  23  25
ENDBRANCH   3  16
TORSDOF 3
