REMARK  Name = ZINC49003411
REMARK  8 active torsions:
REMARK  status: ('A' for Active; 'I' for Inactive)
REMARK    1  A    between atoms: C_1  and  C_2
REMARK    2  A    between atoms: C_5  and  N_8
REMARK    3  A    between atoms: N_8  and  S_9
REMARK    4  A    between atoms: S_9  and  C_12
REMARK    5  A    between atoms: C_13  and  C_19
REMARK    6  A    between atoms: C_14  and  C_18
REMARK    7  A    between atoms: N_21  and  C_22
REMARK    8  A    between atoms: C_22  and  C_23
REMARK                            x       y       z     vdW  Elec       q    Type
REMARK                         _______ _______ _______ _____ _____    ______ ____
ROOT
ATOM      1  C   UNL     1       0.097  -6.719   1.009  0.00  0.00    +0.232 A 
ATOM      2  C   UNL     1       1.250  -7.512   0.815  0.00  0.00    +0.104 A 
ATOM      3  C   UNL     1       0.820  -8.791   0.521  0.00  0.00    +0.047 A 
ATOM      4  N   UNL     1      -0.522  -8.777   0.535  0.00  0.00    -0.279 N 
ATOM      5  N   UNL     1      -0.949  -7.481   0.846  0.00  0.00    -0.152 NA
ATOM      6  H   UNL     1      -1.099  -9.537   0.363  0.00  0.00    +0.189 HD
ATOM      7  C   UNL     1       1.697  -9.983   0.236  0.00  0.00    +0.066 C 
ENDROOT
BRANCH   2   8
ATOM      8  C   UNL     1       2.650  -7.060   0.908  0.00  0.00    +0.250 C 
ATOM      9  O   UNL     1       3.236  -7.112   1.973  0.00  0.00    -0.270 OA
ATOM     10  N   UNL     1       3.280  -6.588  -0.185  0.00  0.00    -0.307 N 
ATOM     11  H   UNL     1       2.813  -6.547  -1.034  0.00  0.00    +0.149 HD
BRANCH  10  12
ATOM     12  C   UNL     1       4.671  -6.138  -0.092  0.00  0.00    +0.139 C 
BRANCH  12  13
ATOM     13  C   UNL     1       5.137  -5.662  -1.444  0.00  0.00    -0.030 A 
ATOM     14  C   UNL     1       5.721  -6.552  -2.326  0.00  0.00    +0.008 A 
ATOM     15  C   UNL     1       6.148  -6.117  -3.567  0.00  0.00    +0.038 A 
ATOM     16  C   UNL     1       5.991  -4.788  -3.925  0.00  0.00    +0.123 A 
ATOM     17  C   UNL     1       5.406  -3.898  -3.041  0.00  0.00    +0.038 A 
ATOM     18  C   UNL     1       4.975  -4.337  -1.803  0.00  0.00    +0.008 A 
ATOM     19  F   UNL     1       6.408  -4.362  -5.137  0.00  0.00    -0.205 F 
ENDBRANCH  12  13
ENDBRANCH  10  12
ENDBRANCH   2   8
BRANCH   1  20
ATOM     20  S   UNL     1       0.076  -5.003   1.409  0.00  0.00    +0.111 S 
ATOM     21  O   UNL     1       1.321  -4.716   2.031  0.00  0.00    -0.147 OA
ATOM     22  O   UNL     1      -1.169  -4.749   2.043  0.00  0.00    -0.147 OA
BRANCH  20  23
ATOM     23  N   UNL     1       0.058  -4.167  -0.021  0.00  0.00    -0.096 NA
BRANCH  23  28
ATOM     24  C   UNL     1      -0.018   1.503   0.010  0.00  0.00    +0.044 C 
ATOM     25  C   UNL     1       0.002  -0.004   0.002  0.00  0.00    -0.050 A 
ATOM     26  C   UNL     1       0.006  -0.687  -1.200  0.00  0.00    +0.005 A 
ATOM     27  C   UNL     1       0.024  -2.068  -1.212  0.00  0.00    +0.027 A 
ATOM     28  C   UNL     1       0.040  -2.771  -0.013  0.00  0.00    +0.074 A 
ATOM     29  C   UNL     1       0.036  -2.081   1.193  0.00  0.00    +0.027 A 
ATOM     30  C   UNL     1       0.023  -0.700   1.197  0.00  0.00    +0.005 A 
ENDBRANCH  23  28
ENDBRANCH  20  23
ENDBRANCH   1  20
TORSDOF 6
