REMARK  Name = ZINC58405530
REMARK  7 active torsions:
REMARK  status: ('A' for Active; 'I' for Inactive)
REMARK    1  A    between atoms: C_1  and  C_2
REMARK    2  A    between atoms: C_2  and  C_4
REMARK    3  A    between atoms: C_2  and  N_24
REMARK    4  A    between atoms: C_4  and  N_5
REMARK    5  A    between atoms: N_8  and  C_9
REMARK    6  A    between atoms: C_9  and  C_10
REMARK    7  A    between atoms: N_14  and  C_16
REMARK                            x       y       z     vdW  Elec       q    Type
REMARK                         _______ _______ _______ _____ _____    ______ ____
ROOT
ATOM      1  N   UNL     1       0.500  -1.951   1.505  0.00  0.00    -0.301 N 
ATOM      2  C   UNL     1       0.921  -2.564   2.629  0.00  0.00    +0.300 C 
ATOM      3  O   UNL     1       1.459  -1.919   3.508  0.00  0.00    -0.253 OA
ATOM      4  N   UNL     1       0.746  -3.892   2.778  0.00  0.00    -0.299 N 
ATOM      5  H   UNL     1       0.070  -2.465   0.804  0.00  0.00    +0.150 HD
ATOM      6  H   UNL     1       0.317  -4.406   2.076  0.00  0.00    +0.150 HD
ENDROOT
BRANCH   1   7
ATOM      7  C   UNL     1       0.690  -0.507   1.343  0.00  0.00    +0.090 C 
BRANCH   7   9
ATOM      8  C   UNL     1       0.111   1.478  -0.059  0.00  0.00    -0.012 C 
ATOM      9  C   UNL     1       0.012  -0.045   0.052  0.00  0.00    -0.054 C 
BRANCH   9  10
ATOM     10  N   UNL     1      -1.402  -0.444   0.072  0.00  0.00    +0.382 N 
ATOM     11  C   UNL     1      -2.015  -0.131  -1.225  0.00  0.00    -0.078 C 
ATOM     12  C   UNL     1      -3.466  -0.618  -1.238  0.00  0.00    -0.019 C 
ATOM     13  C   UNL     1      -4.244   0.084  -0.121  0.00  0.00    -0.004 C 
ATOM     14  C   UNL     1      -3.553  -0.188   1.218  0.00  0.00    -0.019 C 
ATOM     15  C   UNL     1      -2.099   0.283   1.140  0.00  0.00    -0.078 C 
ATOM     16  H   UNL     1      -1.468  -1.436   0.242  0.00  0.00    -0.081 HD
ENDBRANCH   9  10
ENDBRANCH   7   9
ENDBRANCH   1   7
BRANCH   4  17
ATOM     17  C   UNL     1       1.204  -4.559   3.999  0.00  0.00    +0.110 C 
BRANCH  17  18
ATOM     18  C   UNL     1       0.887  -6.053   3.914  0.00  0.00    +0.025 C 
ATOM     19  C   UNL     1      -0.642  -6.303   4.002  0.00  0.00    +0.025 C 
ATOM     20  C   UNL     1      -0.726  -7.732   4.578  0.00  0.00    +0.105 C 
ATOM     21  N   UNL     1       0.544  -8.000   5.269  0.00  0.00    -0.329 N 
ATOM     22  C   UNL     1       1.398  -6.802   5.170  0.00  0.00    +0.110 C 
BRANCH  21  23
ATOM     23  C   UNL     1       0.885  -9.193   5.913  0.00  0.00    +0.033 A 
ATOM     24  C   UNL     1       2.120  -9.318   6.537  0.00  0.00    +0.026 A 
ATOM     25  C   UNL     1       2.456 -10.497   7.173  0.00  0.00    +0.043 A 
ATOM     26  C   UNL     1       1.564 -11.555   7.189  0.00  0.00    +0.159 A 
ATOM     27  C   UNL     1       0.331 -11.434   6.567  0.00  0.00    +0.160 A 
ATOM     28  C   UNL     1      -0.012 -10.252   5.935  0.00  0.00    +0.064 A 
ATOM     29  F   UNL     1      -0.538 -12.468   6.584  0.00  0.00    -0.202 F 
ATOM     30  F   UNL     1       1.896 -12.707   7.811  0.00  0.00    -0.202 F 
ENDBRANCH  21  23
ENDBRANCH  17  18
ENDBRANCH   4  17
TORSDOF 6
