REMARK  Name = ZINC40706242
REMARK  10 active torsions:
REMARK  status: ('A' for Active; 'I' for Inactive)
REMARK    1  A    between atoms: C_1  and  C_2
REMARK    2  A    between atoms: C_2  and  C_3
REMARK    3  A    between atoms: C_2  and  C_4
REMARK    4  A    between atoms: C_7  and  N_10
REMARK    5  A    between atoms: C_12  and  N_34
REMARK    6  A    between atoms: C_13  and  N_17
REMARK    7  A    between atoms: N_17  and  N_18
REMARK    8  A    between atoms: C_19  and  C_21
REMARK    9  A    between atoms: C_21  and  C_22
REMARK   10  A    between atoms: C_21  and  C_28
REMARK                            x       y       z     vdW  Elec       q    Type
REMARK                         _______ _______ _______ _____ _____    ______ ____
ROOT
ATOM      1  N   UNL     1       3.275  -2.574  -2.765  0.00  0.00    -0.298 N 
ATOM      2  C   UNL     1       4.515  -3.160  -2.997  0.00  0.00    +0.149 A 
ATOM      3  C   UNL     1       4.940  -3.428  -4.299  0.00  0.00    +0.107 A 
ATOM      4  C   UNL     1       6.193  -4.018  -4.475  0.00  0.00    +0.161 A 
ATOM      5  N   UNL     1       6.929  -4.301  -3.403  0.00  0.00    -0.217 NA
ATOM      6  C   UNL     1       6.490  -4.031  -2.190  0.00  0.00    +0.225 A 
ATOM      7  N   UNL     1       5.316  -3.470  -1.980  0.00  0.00    -0.219 NA
ATOM      8  H   UNL     1       2.666  -2.420  -3.504  0.00  0.00    +0.154 HD
ENDROOT
BRANCH   1  12
ATOM      9  C   UNL     1       2.180  -1.476   1.100  0.00  0.00    -0.045 A 
ATOM     10  C   UNL     1       3.505  -1.404   0.712  0.00  0.00    +0.006 A 
ATOM     11  C   UNL     1       3.872  -1.767  -0.569  0.00  0.00    +0.023 A 
ATOM     12  C   UNL     1       2.908  -2.206  -1.468  0.00  0.00    +0.032 A 
ATOM     13  C   UNL     1       1.577  -2.277  -1.075  0.00  0.00    +0.023 A 
ATOM     14  C   UNL     1       1.218  -1.917   0.209  0.00  0.00    +0.006 A 
BRANCH   9  16
ATOM     15  C   UNL     1       2.519  -1.962   3.507  0.00  0.00    +0.012 C 
ATOM     16  C   UNL     1       1.783  -1.078   2.498  0.00  0.00    +0.013 C 
ATOM     17  C   UNL     1       2.155   0.387   2.737  0.00  0.00    +0.012 C 
ENDBRANCH   9  16
ENDBRANCH   1  12
BRANCH   3  18
ATOM     18  N   UNL     1       4.130  -3.113  -5.402  0.00  0.00    -0.353 N 
ATOM     19  H   UNL     1       3.261  -2.703  -5.264  0.00  0.00    +0.143 HD
ATOM     20  H   UNL     1       4.439  -3.304  -6.301  0.00  0.00    +0.143 HD
ENDBRANCH   3  18
BRANCH   4  21
ATOM     21  N   UNL     1       6.665  -4.306  -5.750  0.00  0.00    -0.247 N 
ATOM     22  H   UNL     1       6.122  -4.097  -6.527  0.00  0.00    +0.172 HD
BRANCH  21  23
ATOM     23  N   UNL     1       7.924  -4.898  -5.914  0.00  0.00    -0.235 N 
ATOM     24  C   UNL     1       8.381  -5.177  -7.151  0.00  0.00    +0.241 C 
ATOM     25  O   UNL     1       7.702  -4.916  -8.122  0.00  0.00    -0.273 OA
ATOM     26  H   UNL     1       8.466  -5.107  -5.138  0.00  0.00    +0.173 HD
BRANCH  24  27
ATOM     27  C   UNL     1       9.735  -5.814  -7.328  0.00  0.00    +0.136 C 
BRANCH  27  28
ATOM     28  C   UNL     1       9.761  -7.145  -6.621  0.00  0.00    -0.031 A 
ATOM     29  C   UNL     1       8.747  -8.061  -6.835  0.00  0.00    +0.005 A 
ATOM     30  C   UNL     1       8.771  -9.281  -6.187  0.00  0.00    +0.000 A 
ATOM     31  C   UNL     1       9.807  -9.586  -5.325  0.00  0.00    +0.000 A 
ATOM     32  C   UNL     1      10.821  -8.671  -5.111  0.00  0.00    +0.000 A 
ATOM     33  C   UNL     1      10.800  -7.452  -5.763  0.00  0.00    +0.005 A 
ENDBRANCH  27  28
BRANCH  27  34
ATOM     34  C   UNL     1      10.006  -6.020  -8.796  0.00  0.00    -0.031 A 
ATOM     35  C   UNL     1       9.088  -6.691  -9.581  0.00  0.00    +0.005 A 
ATOM     36  C   UNL     1       9.336  -6.880 -10.927  0.00  0.00    +0.000 A 
ATOM     37  C   UNL     1      10.503  -6.396 -11.489  0.00  0.00    +0.000 A 
ATOM     38  C   UNL     1      11.421  -5.724 -10.705  0.00  0.00    +0.000 A 
ATOM     39  C   UNL     1      11.171  -5.532  -9.359  0.00  0.00    +0.005 A 
ENDBRANCH  27  34
ENDBRANCH  24  27
ENDBRANCH  21  23
ENDBRANCH   4  21
TORSDOF 8
