REMARK  Name = ZINC65329898
REMARK  9 active torsions:
REMARK  status: ('A' for Active; 'I' for Inactive)
REMARK    1  A    between atoms: C_1  and  C_2
REMARK    2  A    between atoms: C_6  and  N_8
REMARK    3  A    between atoms: N_10  and  C_11
REMARK    4  A    between atoms: C_11  and  C_12
REMARK    5  A    between atoms: C_12  and  C_13
REMARK    6  A    between atoms: N_22  and  C_23
REMARK    7  A    between atoms: C_23  and  C_25
REMARK    8  A    between atoms: C_29  and  N_31
REMARK    9  A    between atoms: C_32  and  C_34
REMARK                            x       y       z     vdW  Elec       q    Type
REMARK                         _______ _______ _______ _____ _____    ______ ____
ROOT
ATOM      1  N   UNL     1       1.048  -2.515   1.904  0.00  0.00    -0.328 N 
ATOM      2  C   UNL     1       1.036  -3.793   2.384  0.00  0.00    +0.194 C 
ATOM      3  N   UNL     1       1.277  -4.027   3.706  0.00  0.00    -0.357 N 
ATOM      4  N   UNL     1       0.790  -4.806   1.567  0.00  0.00    -0.143 NA
ATOM      5  H   UNL     1       1.599  -4.895   3.994  0.00  0.00    +0.162 HD
ATOM      6  H   UNL     1       0.346  -2.216   1.304  0.00  0.00    +0.169 HD
ENDROOT
BRANCH   1  12
ATOM      7  C   UNL     1       2.595   2.081   2.707  0.00  0.00    +0.044 C 
ATOM      8  C   UNL     1       2.849   0.596   2.674  0.00  0.00    -0.049 A 
ATOM      9  C   UNL     1       4.094   0.100   3.014  0.00  0.00    +0.003 A 
ATOM     10  C   UNL     1       4.330  -1.262   2.985  0.00  0.00    +0.002 A 
ATOM     11  C   UNL     1       3.322  -2.132   2.617  0.00  0.00    +0.026 A 
ATOM     12  C   UNL     1       2.071  -1.637   2.276  0.00  0.00    +0.042 A 
ATOM     13  C   UNL     1       1.835  -0.269   2.311  0.00  0.00    +0.029 A 
ENDBRANCH   1  12
BRANCH   4  14
ATOM     14  C   UNL     1       0.506  -4.573   0.279  0.00  0.00    +0.270 C 
ATOM     15  O   UNL     1       0.564  -3.439  -0.163  0.00  0.00    -0.268 OA
BRANCH  14  16
ATOM     16  C   UNL     1       0.120  -5.694  -0.609  0.00  0.00    +0.041 A 
ATOM     17  C   UNL     1      -0.056  -6.974  -0.083  0.00  0.00    +0.013 A 
ATOM     18  C   UNL     1      -0.416  -8.018  -0.911  0.00  0.00    +0.003 A 
ATOM     19  C   UNL     1      -0.603  -7.799  -2.263  0.00  0.00    +0.023 A 
ATOM     20  C   UNL     1      -0.430  -6.528  -2.797  0.00  0.00    +0.034 A 
ATOM     21  C   UNL     1      -0.074  -5.473  -1.971  0.00  0.00    +0.036 A 
BRANCH  20  22
ATOM     22  N   UNL     1      -0.620  -6.312  -4.166  0.00  0.00    -0.286 N 
ATOM     23  C   UNL     1       0.136  -5.405  -4.817  0.00  0.00    +0.214 C 
ATOM     24  O   UNL     1       1.042  -4.843  -4.237  0.00  0.00    -0.276 OA
ATOM     25  C   UNL     1      -0.144  -5.089  -6.263  0.00  0.00    +0.109 C 
ATOM     26  H   UNL     1      -1.296  -6.814  -4.647  0.00  0.00    +0.155 HD
ENDBRANCH  20  22
ENDBRANCH  14  16
ENDBRANCH   4  14
BRANCH   3  27
ATOM     27  C   UNL     1       1.049  -2.966   4.691  0.00  0.00    +0.120 C 
BRANCH  27  28
ATOM     28  C   UNL     1       1.502  -3.446   6.071  0.00  0.00    +0.054 C 
BRANCH  28  29
ATOM     29  C   UNL     1       1.157  -2.404   7.104  0.00  0.00    -0.040 C 
ATOM     30  C   UNL     1       0.025  -2.334   7.842  0.00  0.00    -0.001 A 
ATOM     31  C   UNL     1      -1.177  -3.175   7.901  0.00  0.00    +0.010 A 
ATOM     32  C   UNL     1      -2.167  -2.843   8.759  0.00  0.00    +0.001 A 
ATOM     33  C   UNL     1      -2.075  -1.720   9.592  0.00  0.00    +0.002 A 
ATOM     34  C   UNL     1      -1.003  -0.900   9.595  0.00  0.00    +0.026 A 
ATOM     35  C   UNL     1       0.098  -1.154   8.732  0.00  0.00    +0.043 A 
ATOM     36  N   UNL     1       1.231  -0.518   8.552  0.00  0.00    -0.380 N 
ATOM     37  C   UNL     1       2.008  -1.228   7.530  0.00  0.00    +0.144 C 
ATOM     38  H   UNL     1       1.510   0.285   9.019  0.00  0.00    +0.160 HD
ENDBRANCH  28  29
ENDBRANCH  27  28
ENDBRANCH   3  27
TORSDOF 7
