REMARK  Name = ZINC40019898
REMARK  17 active torsions:
REMARK  status: ('A' for Active; 'I' for Inactive)
REMARK    1  A    between atoms: C_1  and  C_2
REMARK    2  A    between atoms: C_2  and  C_3
REMARK    3  A    between atoms: C_3  and  C_4
REMARK    4  A    between atoms: C_4  and  N_5
REMARK    5  A    between atoms: N_5  and  C_6
REMARK    6  A    between atoms: N_5  and  C_10
REMARK    7  A    between atoms: C_6  and  C_7
REMARK    8  A    between atoms: C_7  and  C_8
REMARK    9  A    between atoms: C_8  and  C_9
REMARK   10  A    between atoms: C_10  and  C_11
REMARK   11  A    between atoms: C_11  and  C_12
REMARK   12  A    between atoms: C_12  and  N_13
REMARK   13  A    between atoms: C_14  and  C_31
REMARK   14  A    between atoms: C_16  and  C_21
REMARK   15  A    between atoms: C_21  and  C_23
REMARK   16  A    between atoms: C_26  and  C_30
REMARK   17  A    between atoms: C_34  and  C_37
REMARK                            x       y       z     vdW  Elec       q    Type
REMARK                         _______ _______ _______ _____ _____    ______ ____
ROOT
ATOM      1  N   UNL     1       4.554  -6.378  -0.440  0.00  0.00    -0.284 N 
ATOM      2  C   UNL     1       4.335  -6.644  -1.867  0.00  0.00    +0.145 C 
ATOM      3  C   UNL     1       5.682  -7.018  -2.438  0.00  0.00    +0.076 C 
ATOM      4  C   UNL     1       6.569  -6.963  -1.416  0.00  0.00    +0.249 C 
ATOM      5  C   UNL     1       5.862  -6.560  -0.181  0.00  0.00    +0.288 C 
ATOM      6  O   UNL     1       6.384  -6.418   0.906  0.00  0.00    -0.266 OA
ATOM      7  O   UNL     1       7.891  -7.231  -1.510  0.00  0.00    -0.282 OA
ENDROOT
BRANCH   2   8
ATOM      8  C   UNL     1       3.806  -5.408  -2.549  0.00  0.00    -0.022 A 
ATOM      9  C   UNL     1       4.448  -4.196  -2.376  0.00  0.00    +0.006 A 
ATOM     10  C   UNL     1       3.963  -3.062  -3.002  0.00  0.00    +0.004 A 
ATOM     11  C   UNL     1       2.837  -3.141  -3.800  0.00  0.00    -0.050 A 
ATOM     12  C   UNL     1       2.196  -4.354  -3.973  0.00  0.00    +0.004 A 
ATOM     13  C   UNL     1       2.683  -5.488  -3.351  0.00  0.00    +0.006 A 
ATOM     14  C   UNL     1       2.308  -1.905  -4.481  0.00  0.00    +0.044 C 
ENDBRANCH   2   8
BRANCH   3  15
ATOM     15  C   UNL     1       5.974  -7.372  -3.830  0.00  0.00    +0.195 C 
ATOM     16  O   UNL     1       6.675  -6.645  -4.508  0.00  0.00    -0.287 OA
BRANCH  15  17
ATOM     17  C   UNL     1       5.416  -8.612  -4.410  0.00  0.00    +0.025 A 
ATOM     18  C   UNL     1       4.642  -9.468  -3.623  0.00  0.00    +0.012 A 
ATOM     19  C   UNL     1       4.123 -10.623  -4.168  0.00  0.00    +0.007 A 
ATOM     20  C   UNL     1       4.368 -10.937  -5.494  0.00  0.00    -0.015 A 
ATOM     21  C   UNL     1       5.136 -10.094  -6.281  0.00  0.00    +0.127 A 
ATOM     22  C   UNL     1       5.656  -8.931  -5.747  0.00  0.00    +0.050 A 
ATOM     23  F   UNL     1       5.372 -10.408  -7.574  0.00  0.00    -0.205 F 
ATOM     24  C   UNL     1       3.798 -12.202  -6.083  0.00  0.00    +0.047 C 
ENDBRANCH  15  17
ENDBRANCH   3  15
BRANCH   1  25
ATOM     25  C   UNL     1       3.531  -5.978   0.530  0.00  0.00    +0.107 C 
BRANCH  25  26
ATOM     26  C   UNL     1       3.429  -4.452   0.564  0.00  0.00    +0.000 C 
BRANCH  26  27
ATOM     27  C   UNL     1       2.361  -4.035   1.577  0.00  0.00    -0.077 C 
BRANCH  27  28
ATOM     28  N   UNL     1       2.264  -2.569   1.609  0.00  0.00    +0.380 N 
ATOM     29  H   UNL     1       3.173  -2.175   1.799  0.00  0.00    -0.082 HD
BRANCH  28  30
ATOM     30  C   UNL     1       1.780  -2.082   0.311  0.00  0.00    -0.079 C 
BRANCH  30  31
ATOM     31  C   UNL     1       1.808  -0.552   0.297  0.00  0.00    -0.019 C 
BRANCH  31  33
ATOM     32  C   UNL     1       1.458   1.483  -1.110  0.00  0.00    +0.004 C 
ATOM     33  C   UNL     1       1.430  -0.047  -1.096  0.00  0.00    -0.005 C 
ENDBRANCH  31  33
ENDBRANCH  30  31
ENDBRANCH  28  30
BRANCH  28  34
ATOM     34  C   UNL     1       1.325  -2.164   2.665  0.00  0.00    -0.079 C 
BRANCH  34  35
ATOM     35  C   UNL     1       1.899  -2.546   4.031  0.00  0.00    -0.019 C 
BRANCH  35  36
ATOM     36  C   UNL     1       0.986  -2.011   5.135  0.00  0.00    -0.005 C 
ATOM     37  C   UNL     1       1.560  -2.393   6.501  0.00  0.00    +0.004 C 
ENDBRANCH  35  36
ENDBRANCH  34  35
ENDBRANCH  28  34
ENDBRANCH  27  28
ENDBRANCH  26  27
ENDBRANCH  25  26
ENDBRANCH   1  25
TORSDOF 13
