REMARK  Name = ZINC38903836
REMARK  13 active torsions:
REMARK  status: ('A' for Active; 'I' for Inactive)
REMARK    1  A    between atoms: C_1  and  C_2
REMARK    2  A    between atoms: C_2  and  C_41
REMARK    3  A    between atoms: C_4  and  N_15
REMARK    4  A    between atoms: C_9  and  O_13
REMARK    5  A    between atoms: O_13  and  C_14
REMARK    6  A    between atoms: C_16  and  C_18
REMARK    7  A    between atoms: N_23  and  C_25
REMARK    8  A    between atoms: C_25  and  C_26
REMARK    9  A    between atoms: C_28  and  C_31
REMARK   10  A    between atoms: C_34  and  C_37
REMARK   11  A    between atoms: C_37  and  C_38
REMARK   12  A    between atoms: C_37  and  C_39
REMARK   13  A    between atoms: C_37  and  C_40
REMARK                            x       y       z     vdW  Elec       q    Type
REMARK                         _______ _______ _______ _____ _____    ______ ____
ROOT
ATOM      1  C   UNL     1       4.841  -0.550  -3.884  0.00  0.00    +0.058 C 
ATOM      2  C   UNL     1       3.966  -0.951  -5.076  0.00  0.00    +0.009 C 
ATOM      3  C   UNL     1       4.852  -1.572  -6.160  0.00  0.00    -0.018 C 
ATOM      4  C   UNL     1       5.944  -0.575  -6.552  0.00  0.00    -0.078 C 
ATOM      5  N   UNL     1       6.762  -0.252  -5.377  0.00  0.00    +0.386 N 
ATOM      6  C   UNL     1       5.934   0.409  -4.360  0.00  0.00    -0.065 C 
ATOM      7  H   UNL     1       7.148  -1.101  -4.993  0.00  0.00    -0.081 HD
ENDROOT
BRANCH   1   9
ATOM      8  N   UNL     1       2.958  -0.525  -2.280  0.00  0.00    -0.308 N 
ATOM      9  C   UNL     1       3.991   0.132  -2.844  0.00  0.00    +0.215 C 
ATOM     10  O   UNL     1       4.237   1.273  -2.513  0.00  0.00    -0.276 OA
ATOM     11  H   UNL     1       2.762  -1.438  -2.545  0.00  0.00    +0.149 HD
BRANCH   8  15
ATOM     12  C   UNL     1      -0.019   1.526   0.010  0.00  0.00    +0.055 C 
ATOM     13  C   UNL     1       0.002  -0.004   0.002  0.00  0.00    +0.107 C 
ATOM     14  C   UNL     1       0.743  -0.504  -1.245  0.00  0.00    +0.074 C 
ATOM     15  C   UNL     1       2.132   0.138  -1.268  0.00  0.00    +0.110 C 
ATOM     16  C   UNL     1       2.782  -0.010   0.084  0.00  0.00    +0.015 A 
ATOM     17  C   UNL     1       4.154   0.154   0.184  0.00  0.00    +0.012 A 
ATOM     18  C   UNL     1       4.785   0.031   1.406  0.00  0.00    +0.046 A 
ATOM     19  C   UNL     1       4.042  -0.258   2.542  0.00  0.00    +0.124 A 
ATOM     20  C   UNL     1       2.671  -0.424   2.446  0.00  0.00    +0.091 A 
ATOM     21  C   UNL     1       2.037  -0.302   1.214  0.00  0.00    +0.130 A 
ATOM     22  O   UNL     1       0.692  -0.482   1.157  0.00  0.00    -0.486 OA
ATOM     23  C   UNL     1      -1.431  -0.539  -0.000  0.00  0.00    +0.055 C 
BRANCH  19  24
ATOM     24  O   UNL     1       4.660  -0.377   3.747  0.00  0.00    -0.495 OA
ATOM     25  C   UNL     1       6.076  -0.193   3.771  0.00  0.00    +0.277 C 
ENDBRANCH  19  24
ENDBRANCH   8  15
ENDBRANCH   1   9
BRANCH   5  26
ATOM     26  C   UNL     1       7.856   0.644  -5.774  0.00  0.00    +0.022 C 
BRANCH  26  27
ATOM     27  C   UNL     1       8.781  -0.080  -6.717  0.00  0.00    +0.211 A 
ATOM     28  N   UNL     1       8.678  -0.105  -8.015  0.00  0.00    -0.193 NA
ATOM     29  C   UNL     1       9.670  -0.845  -8.542  0.00  0.00    +0.202 A 
ATOM     30  N   UNL     1      10.418  -1.298  -7.566  0.00  0.00    -0.056 NA
ATOM     31  O   UNL     1       9.852  -0.801  -6.362  0.00  0.00    -0.340 OA
BRANCH  29  32
ATOM     32  C   UNL     1       9.883  -1.105  -9.988  0.00  0.00    +0.022 A 
ATOM     33  C   UNL     1       9.015  -0.558 -10.931  0.00  0.00    +0.012 A 
ATOM     34  C   UNL     1       9.217  -0.803 -12.274  0.00  0.00    +0.005 A 
ATOM     35  C   UNL     1      10.278  -1.590 -12.684  0.00  0.00    -0.042 A 
ATOM     36  C   UNL     1      11.143  -2.135 -11.752  0.00  0.00    +0.005 A 
ATOM     37  C   UNL     1      10.954  -1.891 -10.407  0.00  0.00    +0.012 A 
BRANCH  35  38
ATOM     38  C   UNL     1      10.493  -1.855 -14.152  0.00  0.00    -0.013 C 
ATOM     39  C   UNL     1      10.710  -0.528 -14.883  0.00  0.00    +0.015 C 
ATOM     40  C   UNL     1      11.724  -2.745 -14.335  0.00  0.00    +0.015 C 
ATOM     41  C   UNL     1       9.264  -2.560 -14.729  0.00  0.00    +0.015 C 
ENDBRANCH  35  38
ENDBRANCH  29  32
ENDBRANCH  26  27
ENDBRANCH   5  26
TORSDOF 7
