REMARK  Name = ZINC14552887
REMARK  11 active torsions:
REMARK  status: ('A' for Active; 'I' for Inactive)
REMARK    1  A    between atoms: C_1  and  C_2
REMARK    2  A    between atoms: C_7  and  C_8
REMARK    3  A    between atoms: N_10  and  C_11
REMARK    4  A    between atoms: C_14  and  N_17
REMARK    5  A    between atoms: N_17  and  C_18
REMARK    6  A    between atoms: C_18  and  N_20
REMARK    7  A    between atoms: C_21  and  C_23
REMARK    8  A    between atoms: C_28  and  O_29
REMARK    9  A    between atoms: O_29  and  C_30
REMARK   10  A    between atoms: C_30  and  C_31
REMARK   11  A    between atoms: C_30  and  C_32
REMARK                            x       y       z     vdW  Elec       q    Type
REMARK                         _______ _______ _______ _____ _____    ______ ____
ROOT
ATOM      1  N   UNL     1      -0.949   1.619  -1.269  0.00  0.00    -0.297 N 
ATOM      2  H   UNL     1      -0.869   2.493  -1.681  0.00  0.00    +0.154 HD
ENDROOT
BRANCH   1   6
ATOM      3  C   UNL     1      -4.698  -0.157  -0.853  0.00  0.00    +0.034 A 
ATOM      4  C   UNL     1      -3.806  -0.161   0.212  0.00  0.00    +0.025 A 
ATOM      5  C   UNL     1      -2.565   0.427   0.074  0.00  0.00    +0.025 A 
ATOM      6  C   UNL     1      -2.208   1.023  -1.129  0.00  0.00    +0.033 A 
ATOM      7  C   UNL     1      -3.102   1.031  -2.192  0.00  0.00    +0.025 A 
ATOM      8  C   UNL     1      -4.341   0.438  -2.056  0.00  0.00    +0.025 A 
BRANCH   3  11
ATOM      9  C   UNL     1      -7.041  -0.179  -1.272  0.00  0.00    +0.249 C 
ATOM     10  O   UNL     1      -6.915   0.813  -1.963  0.00  0.00    -0.270 OA
ATOM     11  N   UNL     1      -5.957  -0.754  -0.714  0.00  0.00    -0.281 N 
ATOM     12  H   UNL     1      -6.049  -1.581  -0.215  0.00  0.00    +0.155 HD
BRANCH   9  19
ATOM     13  C   UNL     1      -9.380   1.210  -2.257  0.00  0.00    +0.044 C 
ATOM     14  C   UNL     1      -9.519  -0.093  -1.513  0.00  0.00    -0.038 A 
ATOM     15  C   UNL     1     -10.769  -0.636  -1.296  0.00  0.00    +0.004 A 
ATOM     16  C   UNL     1     -10.898  -1.832  -0.614  0.00  0.00    +0.000 A 
ATOM     17  C   UNL     1      -9.776  -2.492  -0.144  0.00  0.00    +0.001 A 
ATOM     18  C   UNL     1      -8.520  -1.964  -0.359  0.00  0.00    +0.013 A 
ATOM     19  C   UNL     1      -8.383  -0.754  -1.042  0.00  0.00    +0.040 A 
ENDBRANCH   9  19
ENDBRANCH   3  11
ENDBRANCH   1   6
BRANCH   1  20
ATOM     20  C   UNL     1       0.153   0.979  -0.830  0.00  0.00    +0.141 C 
ATOM     21  S   UNL     1       0.004  -0.519  -0.014  0.00  0.00    -0.018 S 
BRANCH  20  22
ATOM     22  N   UNL     1       1.372   1.514  -1.037  0.00  0.00    -0.263 N 
ATOM     23  C   UNL     1       2.474   0.871  -0.603  0.00  0.00    +0.253 C 
ATOM     24  O   UNL     1       2.368  -0.193  -0.024  0.00  0.00    -0.270 OA
ATOM     25  H   UNL     1       1.456   2.363  -1.499  0.00  0.00    +0.157 HD
BRANCH  23  26
ATOM     26  C   UNL     1       3.807   1.458  -0.830  0.00  0.00    +0.079 A 
ATOM     27  C   UNL     1       3.934   2.677  -1.500  0.00  0.00    +0.017 A 
ATOM     28  C   UNL     1       5.183   3.222  -1.706  0.00  0.00    +0.001 A 
ATOM     29  C   UNL     1       6.316   2.561  -1.259  0.00  0.00    +0.004 A 
ATOM     30  C   UNL     1       6.205   1.353  -0.600  0.00  0.00    +0.046 A 
ATOM     31  C   UNL     1       4.956   0.792  -0.380  0.00  0.00    +0.133 A 
BRANCH  31  32
ATOM     32  O   UNL     1       4.846  -0.395   0.267  0.00  0.00    -0.489 OA
BRANCH  32  33
ATOM     33  C   UNL     1       6.047  -0.958   0.798  0.00  0.00    +0.167 C 
ATOM     34  C   UNL     1       5.703  -1.886   1.965  0.00  0.00    +0.051 C 
ATOM     35  C   UNL     1       6.764  -1.755  -0.293  0.00  0.00    +0.051 C 
ENDBRANCH  32  33
ENDBRANCH  31  32
ENDBRANCH  23  26
ENDBRANCH  20  22
ENDBRANCH   1  20
TORSDOF 8
