REMARK  Name = ZINC39710009
REMARK  4 active torsions:
REMARK  status: ('A' for Active; 'I' for Inactive)
REMARK    1  A    between atoms: C_4  and  C_7
REMARK    2  A    between atoms: N_9  and  C_10
REMARK    3  A    between atoms: C_13  and  C_16
REMARK    4  A    between atoms: C_27  and  C_29
REMARK                            x       y       z     vdW  Elec       q    Type
REMARK                         _______ _______ _______ _____ _____    ______ ____
ROOT
ATOM      1  C   UNL     1       9.069  -4.768   0.503  0.00  0.00    +0.218 C 
ATOM      2  N   UNL     1       8.976  -6.004  -0.278  0.00  0.00    -0.360 N 
ATOM      3  C   UNL     1       9.788  -5.928  -1.292  0.00  0.00    +0.060 C 
ATOM      4  C   UNL     1      10.083  -6.883  -2.379  0.00  0.00    +0.029 C 
ATOM      5  C   UNL     1      10.982  -6.551  -3.322  0.00  0.00    +0.025 C 
ATOM      6  C   UNL     1      11.665  -5.253  -3.274  0.00  0.00    +0.036 C 
ATOM      7  C   UNL     1      11.395  -4.331  -2.243  0.00  0.00    +0.050 C 
ATOM      8  C   UNL     1      10.493  -4.627  -1.270  0.00  0.00    +0.075 C 
ATOM      9  N   UNL     1      10.055  -3.915  -0.172  0.00  0.00    -0.220 NA
ATOM     10  N   UNL     1      12.553  -4.942  -4.218  0.00  0.00    -0.281 N 
ATOM     11  C   UNL     1      12.814  -5.811  -5.203  0.00  0.00    +0.248 C 
ATOM     12  O   UNL     1      13.183  -6.941  -4.936  0.00  0.00    -0.270 OA
ATOM     13  H   UNL     1      13.010  -4.087  -4.191  0.00  0.00    +0.155 HD
ATOM     14  H   UNL     1       8.402  -6.758  -0.072  0.00  0.00    +0.162 HD
ENDROOT
BRANCH   1  18
ATOM     15  C   UNL     1       5.270  -2.813   0.606  0.00  0.00    +0.034 A 
ATOM     16  C   UNL     1       6.439  -2.065   0.659  0.00  0.00    +0.024 A 
ATOM     17  C   UNL     1       7.665  -2.700   0.626  0.00  0.00    +0.009 A 
ATOM     18  C   UNL     1       7.729  -4.079   0.540  0.00  0.00    -0.006 A 
ATOM     19  C   UNL     1       6.567  -4.826   0.486  0.00  0.00    +0.009 A 
ATOM     20  C   UNL     1       5.338  -4.198   0.525  0.00  0.00    +0.024 A 
BRANCH  15  23
ATOM     21  C   UNL     1       2.994  -2.743   1.292  0.00  0.00    +0.248 C 
ATOM     22  O   UNL     1       3.112  -3.856   1.764  0.00  0.00    -0.270 OA
ATOM     23  N   UNL     1       4.027  -2.174   0.640  0.00  0.00    -0.282 N 
ATOM     24  H   UNL     1       3.908  -1.321   0.194  0.00  0.00    +0.155 HD
BRANCH  21  28
ATOM     25  C   UNL     1      -0.677  -0.644   1.698  0.00  0.00    +0.000 A 
ATOM     26  C   UNL     1      -0.545  -1.911   2.236  0.00  0.00    +0.001 A 
ATOM     27  C   UNL     1       0.644  -2.599   2.108  0.00  0.00    +0.013 A 
ATOM     28  C   UNL     1       1.716  -2.012   1.433  0.00  0.00    +0.037 A 
ATOM     29  C   UNL     1       1.577  -0.733   0.892  0.00  0.00    +0.013 A 
ATOM     30  C   UNL     1       0.382  -0.057   1.027  0.00  0.00    +0.001 A 
ENDBRANCH  21  28
ENDBRANCH  15  23
ENDBRANCH   1  18
BRANCH  11  31
ATOM     31  C   UNL     1      12.656  -5.397  -6.615  0.00  0.00    +0.037 A 
ATOM     32  C   UNL     1      12.239  -4.102  -6.924  0.00  0.00    +0.013 A 
ATOM     33  C   UNL     1      12.094  -3.723  -8.242  0.00  0.00    +0.001 A 
ATOM     34  C   UNL     1      12.359  -4.624  -9.258  0.00  0.00    +0.000 A 
ATOM     35  C   UNL     1      12.772  -5.911  -8.959  0.00  0.00    +0.001 A 
ATOM     36  C   UNL     1      12.928  -6.300  -7.644  0.00  0.00    +0.013 A 
ENDBRANCH  11  31
TORSDOF 4
