REMARK  Name = ZINC11912362
REMARK  10 active torsions:
REMARK  status: ('A' for Active; 'I' for Inactive)
REMARK    1  A    between atoms: C_5  and  N_7
REMARK    2  A    between atoms: C_12  and  C_13
REMARK    3  A    between atoms: C_12  and  N_64
REMARK    4  A    between atoms: C_16  and  O_19
REMARK    5  A    between atoms: O_19  and  C_20
REMARK    6  A    between atoms: C_20  and  C_21
REMARK    7  A    between atoms: C_21  and  C_22
REMARK    8  A    between atoms: C_22  and  N_23
REMARK    9  A    between atoms: N_23  and  S_24
REMARK   10  A    between atoms: S_24  and  C_27
REMARK                            x       y       z     vdW  Elec       q    Type
REMARK                         _______ _______ _______ _____ _____    ______ ____
ROOT
ATOM      1  C   UNL     1       0.740  -0.545  -0.057  0.00  0.00    -0.064 A 
ATOM      2  C   UNL     1      -0.570  -0.117   0.044  0.00  0.00    +0.005 A 
ATOM      3  C   UNL     1      -0.857   1.234   0.064  0.00  0.00    +0.046 A 
ATOM      4  C   UNL     1       0.172   2.162  -0.019  0.00  0.00    +0.121 A 
ATOM      5  C   UNL     1       1.486   1.729  -0.120  0.00  0.00    +0.046 A 
ATOM      6  C   UNL     1       1.767   0.377  -0.140  0.00  0.00    +0.005 A 
ENDROOT
BRANCH   1   7
ATOM      7  C   UNL     1       1.050  -2.020  -0.078  0.00  0.00    -0.043 C 
BRANCH   7  13
ATOM      8  N   UNL     1       0.269  -4.229  -3.593  0.00  0.00    -0.332 N 
ATOM      9  C   UNL     1       1.618  -4.308  -3.016  0.00  0.00    +0.086 C 
ATOM     10  C   UNL     1       1.569  -3.872  -1.550  0.00  0.00    -0.059 C 
ATOM     11  C   UNL     1      -0.307  -2.424  -2.043  0.00  0.00    -0.059 C 
ATOM     12  C   UNL     1      -0.257  -2.860  -3.509  0.00  0.00    +0.086 C 
ATOM     13  N   UNL     1       1.059  -2.487  -1.481  0.00  0.00    +0.384 N 
ATOM     14  H   UNL     1       1.675  -1.877  -2.031  0.00  0.00    -0.081 HD
BRANCH   8  19
ATOM     15  C   UNL     1       0.007  -4.262  -7.259  0.00  0.00    +0.002 A 
ATOM     16  C   UNL     1       0.247  -5.597  -7.527  0.00  0.00    +0.002 A 
ATOM     17  C   UNL     1       0.495  -6.480  -6.492  0.00  0.00    +0.022 A 
ATOM     18  C   UNL     1       0.503  -6.029  -5.186  0.00  0.00    +0.062 A 
ATOM     19  C   UNL     1       0.262  -4.688  -4.913  0.00  0.00    +0.048 A 
ATOM     20  C   UNL     1       0.008  -3.806  -5.956  0.00  0.00    +0.024 A 
ATOM     21 CL   UNL     1       0.813  -7.138  -3.886  0.00  0.00    -0.082 Cl
ENDBRANCH   8  19
ENDBRANCH   7  13
ENDBRANCH   1   7
BRANCH   4  22
ATOM     22  O   UNL     1      -0.107   3.491  -0.000  0.00  0.00    -0.492 OA
BRANCH  22  23
ATOM     23  C   UNL     1       1.002   4.388  -0.089  0.00  0.00    +0.230 C 
BRANCH  23  24
ATOM     24  C   UNL     1       0.494   5.832  -0.053  0.00  0.00    +0.058 C 
BRANCH  24  25
ATOM     25  C   UNL     1       1.682   6.792  -0.148  0.00  0.00    +0.109 C 
BRANCH  25  26
ATOM     26  N   UNL     1       1.196   8.174  -0.113  0.00  0.00    -0.190 NA
ATOM     27  H   UNL     1       0.255   8.361  -0.258  0.00  0.00    +0.148 HD
BRANCH  26  28
ATOM     28  S   UNL     1       2.253   9.416   0.173  0.00  0.00    +0.061 S 
ATOM     29  O   UNL     1       1.494  10.616   0.118  0.00  0.00    -0.153 OA
ATOM     30  O   UNL     1       3.013   9.047   1.316  0.00  0.00    -0.153 OA
BRANCH  28  31
ATOM     31  C   UNL     1       3.376   9.468  -1.183  0.00  0.00    +0.140 A 
ATOM     32  C   UNL     1       3.390  10.561  -2.028  0.00  0.00    +0.031 A 
ATOM     33  C   UNL     1       4.275  10.605  -3.089  0.00  0.00    +0.002 A 
ATOM     34  C   UNL     1       5.140   9.550  -3.313  0.00  0.00    +0.003 A 
ATOM     35  C   UNL     1       5.124   8.453  -2.473  0.00  0.00    +0.040 A 
ATOM     36  C   UNL     1       4.242   8.411  -1.406  0.00  0.00    +0.150 A 
ATOM     37  F   UNL     1       4.225   7.338  -0.584  0.00  0.00    -0.203 F 
ENDBRANCH  28  31
ENDBRANCH  26  28
ENDBRANCH  25  26
ENDBRANCH  24  25
ENDBRANCH  23  24
ENDBRANCH  22  23
ENDBRANCH   4  22
TORSDOF 10
