REMARK  Name = ZINC38703169
REMARK  6 active torsions:
REMARK  status: ('A' for Active; 'I' for Inactive)
REMARK    1  A    between atoms: C_1  and  C_2
REMARK    2  A    between atoms: C_12  and  C_13
REMARK    3  A    between atoms: C_17  and  C_19
REMARK    4  A    between atoms: C_21  and  O_27
REMARK    5  A    between atoms: C_22  and  O_26
REMARK    6  A    between atoms: O_27  and  C_28
REMARK                            x       y       z     vdW  Elec       q    Type
REMARK                         _______ _______ _______ _____ _____    ______ ____
ROOT
ATOM      1  C   UNL     1      -0.018   1.503   0.010  0.00  0.00    +0.044 C 
ATOM      2  C   UNL     1       0.002  -0.004   0.002  0.00  0.00    -0.044 A 
ATOM      3  C   UNL     1       0.005  -0.683  -1.209  0.00  0.00    +0.004 A 
ATOM      4  C   UNL     1       0.021  -2.050  -1.232  0.00  0.00    +0.015 A 
ATOM      5  C   UNL     1       0.033  -2.761  -0.032  0.00  0.00    +0.065 A 
ATOM      6  C   UNL     1       0.036  -4.246  -0.038  0.00  0.00    +0.199 A 
ATOM      7  O   UNL     1       0.200  -4.908  -1.047  0.00  0.00    -0.287 OA
ATOM      8  C   UNL     1      -0.176  -4.839   1.286  0.00  0.00    +0.072 A 
ATOM      9  C   UNL     1      -0.158  -4.068   2.414  0.00  0.00    +0.199 A 
ATOM     10  O   UNL     1       0.060  -2.739   2.383  0.00  0.00    -0.449 OA
ATOM     11  C   UNL     1       0.036  -2.085   1.199  0.00  0.00    +0.143 A 
ATOM     12  C   UNL     1       0.023  -0.690   1.195  0.00  0.00    -0.005 A 
ATOM     13  C   UNL     1       0.025   0.066   2.499  0.00  0.00    +0.048 C 
ATOM     14  C   UNL     1      -0.408  -4.941   3.575  0.00  0.00    +0.281 C 
ATOM     15  O   UNL     1      -0.459  -4.566   4.729  0.00  0.00    -0.267 OA
ATOM     16  N   UNL     1      -0.571  -6.217   3.168  0.00  0.00    -0.298 N 
ATOM     17  C   UNL     1      -0.436  -6.249   1.703  0.00  0.00    +0.142 C 
ATOM     18  H   UNL     1      -0.745  -6.980   3.742  0.00  0.00    +0.150 HD
ENDROOT
BRANCH  17  19
ATOM     19  C   UNL     1      -1.711  -6.750   1.075  0.00  0.00    -0.018 A 
ATOM     20  C   UNL     1      -1.657  -7.556  -0.048  0.00  0.00    +0.055 A 
ATOM     21  C   UNL     1      -2.828  -8.017  -0.627  0.00  0.00    +0.163 A 
ATOM     22  C   UNL     1      -4.058  -7.669  -0.076  0.00  0.00    +0.173 A 
ATOM     23  C   UNL     1      -4.105  -6.861   1.050  0.00  0.00    +0.063 A 
ATOM     24  C   UNL     1      -2.932  -6.408   1.625  0.00  0.00    +0.025 A 
ATOM     25 BR   UNL     1      -5.774  -6.385   1.802  0.00  0.00    -0.046 Br
BRANCH  22  26
ATOM     26  O   UNL     1      -5.210  -8.119  -0.641  0.00  0.00    -0.503 OA
ATOM     27  H   UNL     1      -5.516  -8.966  -0.289  0.00  0.00    +0.292 HD
ENDBRANCH  22  26
BRANCH  21  28
ATOM     28  O   UNL     1      -2.776  -8.809  -1.731  0.00  0.00    -0.491 OA
ATOM     29  C   UNL     1      -1.480  -9.126  -2.242  0.00  0.00    +0.277 C 
ENDBRANCH  21  28
ENDBRANCH  17  19
TORSDOF 3
