REMARK  Name = ZINC30825474
REMARK  4 active torsions:
REMARK  status: ('A' for Active; 'I' for Inactive)
REMARK    1  A    between atoms: C_5  and  C_7
REMARK    2  A    between atoms: N_13  and  C_16
REMARK    3  A    between atoms: C_19  and  S_22
REMARK    4  A    between atoms: S_22  and  N_25
REMARK                            x       y       z     vdW  Elec       q    Type
REMARK                         _______ _______ _______ _____ _____    ______ ____
ROOT
ATOM      1  C   UNL     1      -1.313  -0.388   0.003  0.00  0.00    +0.169 A 
ATOM      2  N   UNL     1      -2.027   0.708   0.143  0.00  0.00    -0.128 NA
ATOM      3  N   UNL     1      -1.260   1.743   0.101  0.00  0.00    -0.122 NA
ATOM      4  C   UNL     1      -0.021   1.366  -0.063  0.00  0.00    +0.195 A 
ATOM      5  N   UNL     1      -0.006   0.000  -0.130  0.00  0.00    -0.285 N 
ATOM      6  C   UNL     1       1.174  -0.839  -0.302  0.00  0.00    +0.235 C 
ATOM      7  N   UNL     1       2.292  -0.069  -0.855  0.00  0.00    -0.302 N 
ATOM      8  C   UNL     1       2.667   1.063   0.007  0.00  0.00    +0.184 C 
ATOM      9  S   UNL     1       1.423   2.372  -0.193  0.00  0.00    -0.067 S 
ENDROOT
BRANCH   1  14
ATOM     10  C   UNL     1      -1.678  -4.053   0.739  0.00  0.00    +0.001 A 
ATOM     11  C   UNL     1      -2.782  -4.375  -0.030  0.00  0.00    +0.003 A 
ATOM     12  C   UNL     1      -3.411  -3.405  -0.790  0.00  0.00    +0.039 A 
ATOM     13  C   UNL     1      -2.939  -2.106  -0.784  0.00  0.00    +0.134 A 
ATOM     14  C   UNL     1      -1.825  -1.775  -0.008  0.00  0.00    +0.054 A 
ATOM     15  C   UNL     1      -1.194  -2.762   0.751  0.00  0.00    +0.014 A 
ATOM     16  F   UNL     1      -3.554  -1.159  -1.526  0.00  0.00    -0.205 F 
ENDBRANCH   1  14
BRANCH   7  17
ATOM     17  C   UNL     1       3.392  -0.893  -1.107  0.00  0.00    +0.032 A 
ATOM     18  C   UNL     1       3.323  -2.251  -0.824  0.00  0.00    +0.025 A 
ATOM     19  C   UNL     1       4.410  -3.064  -1.079  0.00  0.00    +0.030 A 
ATOM     20  C   UNL     1       5.570  -2.524  -1.604  0.00  0.00    +0.105 A 
ATOM     21  C   UNL     1       5.644  -1.172  -1.881  0.00  0.00    +0.030 A 
ATOM     22  C   UNL     1       4.558  -0.354  -1.634  0.00  0.00    +0.025 A 
BRANCH  20  23
ATOM     23  S   UNL     1       6.958  -3.563  -1.920  0.00  0.00    +0.056 S 
ATOM     24  O   UNL     1       6.450  -4.880  -2.086  0.00  0.00    -0.153 OA
ATOM     25  O   UNL     1       7.732  -2.914  -2.920  0.00  0.00    -0.153 OA
BRANCH  23  26
ATOM     26  N   UNL     1       7.880  -3.581  -0.545  0.00  0.00    -0.204 NA
ATOM     27  H   UNL     1       8.760  -4.222  -0.702  0.00  0.00    +0.144 HD
ATOM     28  H   UNL     1       7.284  -3.976   0.291  0.00  0.00    +0.144 HD
ENDBRANCH  23  26
ENDBRANCH  20  23
ENDBRANCH   7  17
TORSDOF 4
