REMARK  Name = ZINC43266156
REMARK  2 active torsions:
REMARK  status: ('A' for Active; 'I' for Inactive)
REMARK    1  A    between atoms: C_6  and  C_7
REMARK    2  A    between atoms: N_16  and  C_17
REMARK                            x       y       z     vdW  Elec       q    Type
REMARK                         _______ _______ _______ _____ _____    ______ ____
ROOT
ATOM      1  C   UNL     1      -0.740  -1.089   1.135  0.00  0.00    +0.166 C 
ATOM      2  C   UNL     1      -1.369  -1.925   2.256  0.00  0.00    +0.145 C 
ATOM      3  N   UNL     1      -2.677  -2.412   1.793  0.00  0.00    -0.280 N 
ATOM      4  C   UNL     1      -2.743  -3.082   0.484  0.00  0.00    +0.137 C 
ATOM      5  C   UNL     1      -2.047  -2.190  -0.550  0.00  0.00    +0.179 C 
ATOM      6  O   UNL     1      -0.742  -1.848  -0.077  0.00  0.00    -0.369 OA
ATOM      7  C   UNL     1      -3.784  -2.251   2.545  0.00  0.00    +0.307 C 
ATOM      8  O   UNL     1      -3.696  -1.780   3.663  0.00  0.00    -0.252 OA
ATOM      9  N   UNL     1      -4.988  -2.612   2.059  0.00  0.00    -0.269 N 
ATOM     10  H   UNL     1      -5.048  -3.082   1.213  0.00  0.00    +0.156 HD
ENDROOT
BRANCH   9  11
ATOM     11  C   UNL     1      -6.152  -2.308   2.776  0.00  0.00    +0.038 A 
ATOM     12  C   UNL     1      -6.222  -1.141   3.526  0.00  0.00    +0.026 A 
ATOM     13  C   UNL     1      -7.371  -0.842   4.232  0.00  0.00    +0.043 A 
ATOM     14  C   UNL     1      -8.453  -1.704   4.194  0.00  0.00    +0.159 A 
ATOM     15  C   UNL     1      -8.386  -2.870   3.446  0.00  0.00    +0.160 A 
ATOM     16  C   UNL     1      -7.239  -3.170   2.733  0.00  0.00    +0.064 A 
ATOM     17  F   UNL     1      -9.443  -3.711   3.410  0.00  0.00    -0.202 F 
ATOM     18  F   UNL     1      -9.575  -1.409   4.886  0.00  0.00    -0.202 F 
ENDBRANCH   9  11
BRANCH   1  24
ATOM     19  C   UNL     1       0.953   0.475   2.111  0.00  0.00    +0.009 A 
ATOM     20  C   UNL     1       2.252   0.800   2.450  0.00  0.00    +0.039 A 
ATOM     21  C   UNL     1       3.280  -0.089   2.185  0.00  0.00    +0.123 A 
ATOM     22  C   UNL     1       3.003  -1.303   1.579  0.00  0.00    +0.039 A 
ATOM     23  C   UNL     1       1.703  -1.626   1.240  0.00  0.00    +0.009 A 
ATOM     24  C   UNL     1       0.678  -0.737   1.505  0.00  0.00    -0.017 A 
ATOM     25  F   UNL     1       4.551   0.227   2.516  0.00  0.00    -0.205 F 
ENDBRANCH   1  24
TORSDOF 2
