REMARK  Name = ZINC09444142
REMARK  7 active torsions:
REMARK  status: ('A' for Active; 'I' for Inactive)
REMARK    1  A    between atoms: C_1  and  C_2
REMARK    2  A    between atoms: N_4  and  C_31
REMARK    3  A    between atoms: C_8  and  C_9
REMARK    4  A    between atoms: C_8  and  N_15
REMARK    5  A    between atoms: N_15  and  N_16
REMARK    6  A    between atoms: C_17  and  C_19
REMARK    7  A    between atoms: C_21  and  C_25
REMARK                            x       y       z     vdW  Elec       q    Type
REMARK                         _______ _______ _______ _____ _____    ______ ____
ROOT
ATOM      1  C   UNL     1      -1.491   1.418   0.631  0.00  0.00    +0.068 C 
ATOM      2  C   UNL     1      -1.093  -0.015   0.394  0.00  0.00    +0.071 C 
ATOM      3  N   UNL     1      -1.394  -0.736  -0.647  0.00  0.00    -0.176 NA
ATOM      4  N   UNL     1      -0.852  -2.016  -0.519  0.00  0.00    -0.156 N 
ATOM      5  C   UNL     1      -0.183  -2.114   0.646  0.00  0.00    +0.274 C 
ATOM      6  O   UNL     1       0.407  -3.096   1.065  0.00  0.00    -0.268 OA
ATOM      7  C   UNL     1      -0.290  -0.853   1.290  0.00  0.00    +0.084 C 
ATOM      8  C   UNL     1       0.255  -0.487   2.525  0.00  0.00    +0.065 C 
ENDROOT
BRANCH   8   9
ATOM      9  C   UNL     1       0.179   0.913   2.978  0.00  0.00    -0.002 A 
ATOM     10  C   UNL     1      -0.402   1.221   4.213  0.00  0.00    +0.010 A 
ATOM     11  C   UNL     1      -0.470   2.534   4.630  0.00  0.00    +0.001 A 
ATOM     12  C   UNL     1       0.035   3.545   3.830  0.00  0.00    +0.000 A 
ATOM     13  C   UNL     1       0.610   3.247   2.607  0.00  0.00    +0.001 A 
ATOM     14  C   UNL     1       0.691   1.939   2.179  0.00  0.00    +0.010 A 
ENDBRANCH   8   9
BRANCH   4  15
ATOM     15  C   UNL     1      -0.986  -3.045  -1.461  0.00  0.00    +0.060 A 
ATOM     16  C   UNL     1      -0.407  -4.285  -1.223  0.00  0.00    +0.025 A 
ATOM     17  C   UNL     1      -0.541  -5.297  -2.153  0.00  0.00    +0.002 A 
ATOM     18  C   UNL     1      -1.250  -5.077  -3.320  0.00  0.00    +0.000 A 
ATOM     19  C   UNL     1      -1.827  -3.843  -3.559  0.00  0.00    +0.002 A 
ATOM     20  C   UNL     1      -1.702  -2.829  -2.631  0.00  0.00    +0.025 A 
ENDBRANCH   4  15
BRANCH   8  21
ATOM     21  N   UNL     1       0.858  -1.427   3.311  0.00  0.00    -0.263 N 
ATOM     22  H   UNL     1       0.835  -2.362   3.053  0.00  0.00    +0.170 HD
BRANCH  21  23
ATOM     23  N   UNL     1       1.510  -1.041   4.489  0.00  0.00    -0.231 N 
ATOM     24  C   UNL     1       2.187  -1.953   5.214  0.00  0.00    +0.278 C 
ATOM     25  O   UNL     1       2.233  -3.111   4.845  0.00  0.00    -0.267 OA
ATOM     26  H   UNL     1       1.473  -0.117   4.784  0.00  0.00    +0.173 HD
BRANCH  24  27
ATOM     27  C   UNL     1       2.872  -1.548   6.453  0.00  0.00    +0.122 A 
ATOM     28  C   UNL     1       3.606  -2.360   7.296  0.00  0.00    +0.062 A 
ATOM     29  C   UNL     1       4.053  -1.516   8.328  0.00  0.00    +0.093 A 
ATOM     30  N   UNL     1       3.597  -0.306   8.079  0.00  0.00    -0.173 NA
ATOM     31  N   UNL     1       2.911  -0.293   6.993  0.00  0.00    -0.272 N 
ATOM     32  H   UNL     1       2.483   0.490   6.614  0.00  0.00    +0.189 HD
BRANCH  29  33
ATOM     33  C   UNL     1       4.887  -1.916   9.489  0.00  0.00    +0.002 A 
ATOM     34  C   UNL     1       5.306  -3.237   9.627  0.00  0.00    +0.010 A 
ATOM     35  C   UNL     1       6.081  -3.604  10.708  0.00  0.00    +0.001 A 
ATOM     36  C   UNL     1       6.442  -2.662  11.655  0.00  0.00    +0.000 A 
ATOM     37  C   UNL     1       6.028  -1.349  11.524  0.00  0.00    +0.001 A 
ATOM     38  C   UNL     1       5.258  -0.970  10.442  0.00  0.00    +0.010 A 
ENDBRANCH  29  33
ENDBRANCH  24  27
ENDBRANCH  21  23
ENDBRANCH   8  21
TORSDOF 6
