REMARK  Name = ZINC04033842
REMARK  2 active torsions:
REMARK  status: ('A' for Active; 'I' for Inactive)
REMARK    1  A    between atoms: C_11  and  C_13
REMARK    2  A    between atoms: N_19  and  C_22
REMARK                            x       y       z     vdW  Elec       q    Type
REMARK                         _______ _______ _______ _____ _____    ______ ____
ROOT
ATOM      1  C   UNL     1       3.604   6.618  -0.125  0.00  0.00    +0.118 A 
ATOM      2  C   UNL     1       4.503   5.921   0.659  0.00  0.00    +0.106 A 
ATOM      3  N   UNL     1       4.438   4.565   0.701  0.00  0.00    -0.313 N 
ATOM      4  H   UNL     1       5.090   4.062   1.269  0.00  0.00    +0.170 HD
ATOM      5  C   UNL     1       3.519   3.885  -0.002  0.00  0.00    +0.334 A 
ATOM      6  O   UNL     1       3.503   2.672   0.070  0.00  0.00    -0.246 OA
ATOM      7  N   UNL     1       2.617   4.502  -0.783  0.00  0.00    -0.228 N 
ATOM      8  C   UNL     1       2.610   5.848  -0.890  0.00  0.00    +0.273 A 
ATOM      9  O   UNL     1       1.798   6.412  -1.599  0.00  0.00    -0.266 OA
ENDROOT
BRANCH   1  20
ATOM     10  C   UNL     1       2.579  12.914  -0.776  0.00  0.00    +0.000 A 
ATOM     11  C   UNL     1       3.749  12.226  -0.512  0.00  0.00    +0.002 A 
ATOM     12  C   UNL     1       3.715  10.860  -0.316  0.00  0.00    +0.024 A 
ATOM     13  C   UNL     1       2.505  10.177  -0.383  0.00  0.00    +0.040 A 
ATOM     14  C   UNL     1       1.333  10.868  -0.645  0.00  0.00    -0.026 A 
ATOM     15  C   UNL     1       1.376  12.239  -0.842  0.00  0.00    +0.005 A 
ATOM     16  C   UNL     1       0.004  10.164  -0.720  0.00  0.00    +0.038 C 
ATOM     17  C   UNL     1       0.204   8.671  -0.983  0.00  0.00    +0.024 C 
ATOM     18  C   UNL     1       1.205   8.117   0.033  0.00  0.00    +0.114 C 
ATOM     19  N   UNL     1       2.492   8.791  -0.184  0.00  0.00    -0.267 N 
ATOM     20  C   UNL     1       3.641   8.086  -0.196  0.00  0.00    +0.258 C 
ATOM     21  O   UNL     1       4.709   8.665  -0.266  0.00  0.00    -0.269 OA
ENDBRANCH   1  20
BRANCH   7  22
ATOM     22  C   UNL     1       1.679   3.743  -1.498  0.00  0.00    +0.056 A 
ATOM     23  C   UNL     1       0.445   3.451  -0.931  0.00  0.00    +0.029 A 
ATOM     24  C   UNL     1      -0.478   2.703  -1.636  0.00  0.00    +0.042 A 
ATOM     25  C   UNL     1      -0.176   2.248  -2.908  0.00  0.00    +0.142 A 
ATOM     26  C   UNL     1       1.057   2.533  -3.473  0.00  0.00    +0.078 A 
ATOM     27  C   UNL     1       1.983   3.281  -2.771  0.00  0.00    +0.049 A 
ATOM     28 CL   UNL     1       1.436   1.955  -5.065  0.00  0.00    -0.081 Cl
ATOM     29  F   UNL     1      -1.082   1.521  -3.598  0.00  0.00    -0.204 F 
ENDBRANCH   7  22
TORSDOF 2
