REMARK  Name = ZINC09915658
REMARK  13 active torsions:
REMARK  status: ('A' for Active; 'I' for Inactive)
REMARK    1  A    between atoms: C_1  and  C_2
REMARK    2  A    between atoms: N_4  and  C_5
REMARK    3  A    between atoms: C_5  and  C_32
REMARK    4  A    between atoms: C_6  and  C_30
REMARK    5  A    between atoms: C_6  and  O_31
REMARK    6  A    between atoms: C_7  and  C_28
REMARK    7  A    between atoms: C_7  and  O_29
REMARK    8  A    between atoms: C_8  and  C_25
REMARK    9  A    between atoms: C_8  and  C_26
REMARK   10  A    between atoms: C_10  and  C_11
REMARK   11  A    between atoms: C_10  and  O_12
REMARK   12  A    between atoms: O_12  and  C_13
REMARK   13  A    between atoms: C_26  and  O_27
REMARK                            x       y       z     vdW  Elec       q    Type
REMARK                         _______ _______ _______ _____ _____    ______ ____
ROOT
ATOM      1  C   UNL     1       2.456  -5.441   0.013  0.00  0.00    +0.128 C 
ATOM      2  C   UNL     1       2.090  -6.825   0.520  0.00  0.00    +0.121 C 
ATOM      3  C   UNL     1       1.154  -6.839   1.716  0.00  0.00    +0.124 C 
ATOM      4  C   UNL     1       0.016  -5.831   1.610  0.00  0.00    +0.125 C 
ATOM      5  O   UNL     1       0.413  -4.595   1.070  0.00  0.00    -0.326 OA
ATOM      6  C   UNL     1       1.276  -4.479  -0.033  0.00  0.00    +0.234 C 
ATOM      7  C   UNL     1       0.522  -4.650  -1.357  0.00  0.00    +0.091 C 
ATOM      8  C   UNL     1      -1.140  -6.445   0.809  0.00  0.00    +0.047 C 
ATOM      9  C   UNL     1       1.927  -6.606   3.019  0.00  0.00    +0.047 C 
ATOM     10  C   UNL     1       3.391  -7.555   0.916  0.00  0.00    +0.047 C 
ATOM     11  C   UNL     1       3.583  -4.832   0.854  0.00  0.00    +0.041 C 
ENDROOT
BRANCH   1  15
ATOM     12  C   UNL     1       3.948  -4.650  -3.439  0.00  0.00    +0.109 C 
ATOM     13  C   UNL     1       3.424  -4.504  -2.034  0.00  0.00    +0.211 C 
ATOM     14  O   UNL     1       3.409  -3.414  -1.503  0.00  0.00    -0.276 OA
ATOM     15  N   UNL     1       2.971  -5.585  -1.368  0.00  0.00    -0.302 N 
ATOM     16  H   UNL     1       2.983  -6.457  -1.793  0.00  0.00    +0.150 HD
ENDBRANCH   1  15
BRANCH   3  17
ATOM     17  O   UNL     1       0.564  -8.155   1.802  0.00  0.00    -0.383 OA
ATOM     18  H   UNL     1      -0.019  -8.276   2.564  0.00  0.00    +0.210 HD
ENDBRANCH   3  17
BRANCH   2  19
ATOM     19  O   UNL     1       1.496  -7.578  -0.552  0.00  0.00    -0.384 OA
ATOM     20  H   UNL     1       1.321  -8.504  -0.334  0.00  0.00    +0.210 HD
ENDBRANCH   2  19
BRANCH   6  21
ATOM     21  O   UNL     1       1.817  -3.136  -0.032  0.00  0.00    -0.457 OA
BRANCH  21  22
ATOM     22  C   UNL     1       0.922  -2.110  -0.018  0.00  0.00    +0.149 A 
ATOM     23  C   UNL     1      -0.418  -2.216  -0.005  0.00  0.00    +0.130 A 
ATOM     24  N   UNL     1      -0.985  -0.964   0.007  0.00  0.00    -0.358 N 
ATOM     25  H   UNL     1      -1.938  -0.783   0.017  0.00  0.00    +0.165 HD
ATOM     26  C   UNL     1       0.002  -0.004   0.002  0.00  0.00    +0.052 A 
ATOM     27  C   UNL     1       1.238  -0.677  -0.013  0.00  0.00    +0.043 A 
ATOM     28  C   UNL     1       2.428   0.052  -0.022  0.00  0.00    +0.030 A 
ATOM     29  C   UNL     1       2.388   1.418  -0.015  0.00  0.00    +0.037 A 
ATOM     30  C   UNL     1       1.170   2.088   0.002  0.00  0.00    +0.057 A 
ATOM     31  C   UNL     1      -0.017   1.387   0.010  0.00  0.00    +0.047 A 
ATOM     32 CL   UNL     1       1.144   3.824   0.011  0.00  0.00    -0.082 Cl
ATOM     33 BR   UNL     1       4.001   2.405  -0.026  0.00  0.00    -0.049 Br
ENDBRANCH  21  22
ENDBRANCH   6  21
BRANCH   4  34
ATOM     34  C   UNL     1      -0.513  -5.577   3.041  0.00  0.00    +0.193 C 
BRANCH  34  35
ATOM     35  O   UNL     1      -1.694  -4.776   2.977  0.00  0.00    -0.392 OA
ATOM     36  H   UNL     1      -2.082  -4.577   3.841  0.00  0.00    +0.210 HD
ENDBRANCH  34  35
ENDBRANCH   4  34
TORSDOF 7
