REMARK  Name = ZINC05400291
REMARK  7 active torsions:
REMARK  status: ('A' for Active; 'I' for Inactive)
REMARK    1  A    between atoms: C_1  and  O_2
REMARK    2  A    between atoms: O_2  and  C_3
REMARK    3  A    between atoms: C_5  and  C_12
REMARK    4  A    between atoms: C_7  and  N_9
REMARK    5  A    between atoms: C_13  and  C_22
REMARK    6  A    between atoms: C_16  and  N_20
REMARK    7  A    between atoms: C_17  and  C_18
REMARK                            x       y       z     vdW  Elec       q    Type
REMARK                         _______ _______ _______ _____ _____    ______ ____
ROOT
ATOM      1  C   UNL     1      -0.009   1.088   0.009  0.00  0.00    +0.085 C 
ATOM      2  C   UNL     1      -0.668   1.549   1.263  0.00  0.00    +0.159 C 
ATOM      3  C   UNL     1      -1.445   2.636   1.385  0.00  0.00    +0.089 C 
ATOM      4  S   UNL     1      -1.824   3.699   0.041  0.00  0.00    -0.058 S 
ATOM      5  C   UNL     1      -1.476   2.648  -1.321  0.00  0.00    +0.079 C 
ATOM      6  C   UNL     1      -0.693   1.559  -1.228  0.00  0.00    +0.066 C 
ATOM      7  N   UNL     1      -1.969   2.932   2.621  0.00  0.00    -0.296 NA
ATOM      8  H   UNL     1      -2.533   3.713   2.735  0.00  0.00    +0.187 HD
ENDROOT
BRANCH   1  11
ATOM      9  C   UNL     1       3.768   1.156  -0.029  0.00  0.00    +0.169 A 
ATOM     10  C   UNL     1       2.461   0.694  -0.012  0.00  0.00    +0.054 A 
ATOM     11  C   UNL     1       1.411   1.592  -0.004  0.00  0.00    -0.032 A 
ATOM     12  C   UNL     1       1.660   2.952  -0.000  0.00  0.00    +0.041 A 
ATOM     13  C   UNL     1       2.961   3.420  -0.012  0.00  0.00    +0.177 A 
ATOM     14  C   UNL     1       4.019   2.525  -0.026  0.00  0.00    +0.250 A 
ATOM     15  O   UNL     1       5.299   2.983  -0.037  0.00  0.00    -0.282 OA
BRANCH  13  16
ATOM     16  N   UNL     1       3.224   4.876  -0.009  0.00  0.00    +0.060 N 
ATOM     17  O   UNL     1       2.294   5.663   0.003  0.00  0.00    -0.126 OA
ATOM     18  O   UNL     1       4.370   5.288  -0.019  0.00  0.00    -0.126 OA
ENDBRANCH  13  16
BRANCH   9  20
ATOM     19  C   UNL     1       4.470  -1.116  -0.044  0.00  0.00    +0.277 C 
ATOM     20  O   UNL     1       4.803   0.274  -0.042  0.00  0.00    -0.491 OA
ENDBRANCH   9  20
ENDBRANCH   1  11
BRANCH   5  21
ATOM     21  N   UNL     1      -2.028   2.954  -2.543  0.00  0.00    -0.352 N 
ATOM     22  H   UNL     1      -1.849   2.389  -3.311  0.00  0.00    +0.143 HD
ATOM     23  H   UNL     1      -3.025   2.951  -2.468  0.00  0.00    +0.143 HD
ENDBRANCH   5  21
BRANCH   6  24
ATOM     24  C   UNL     1      -0.501   0.786  -2.418  0.00  0.00    +0.098 C 
ATOM     25  N   UNL     1      -0.348   0.173  -3.362  0.00  0.00    -0.191 NA
ENDBRANCH   6  24
BRANCH   2  26
ATOM     26  C   UNL     1      -0.451   0.766   2.443  0.00  0.00    +0.074 C 
ATOM     27  N   UNL     1      -0.279   0.145   3.378  0.00  0.00    -0.196 NA
ENDBRANCH   2  26
TORSDOF 6
