REMARK  Name = ZINC39140215
REMARK  8 active torsions:
REMARK  status: ('A' for Active; 'I' for Inactive)
REMARK    1  A    between atoms: C_1  and  C_2
REMARK    2  A    between atoms: N_4  and  C_5
REMARK    3  A    between atoms: C_8  and  N_11
REMARK    4  A    between atoms: N_12  and  C_13
REMARK    5  A    between atoms: C_15  and  C_27
REMARK    6  A    between atoms: N_18  and  C_21
REMARK    7  A    between atoms: C_27  and  O_29
REMARK    8  A    between atoms: O_29  and  C_30
REMARK                            x       y       z     vdW  Elec       q    Type
REMARK                         _______ _______ _______ _____ _____    ______ ____
ROOT
ATOM      1  C   UNL     1      -2.469  -8.182  -0.567  0.00  0.00    +0.198 A 
ATOM      2  C   UNL     1      -3.707  -8.857  -0.658  0.00  0.00    +0.230 A 
ATOM      3  C   UNL     1      -3.705 -10.258  -0.746  0.00  0.00    +0.172 A 
ATOM      4  C   UNL     1      -2.470 -10.950  -0.740  0.00  0.00    +0.276 A 
ATOM      5  O   UNL     1      -2.458 -12.166  -0.815  0.00  0.00    -0.266 OA
ATOM      6  N   UNL     1      -1.310 -10.275  -0.651  0.00  0.00    -0.241 N 
ATOM      7  C   UNL     1      -1.285  -8.918  -0.572  0.00  0.00    +0.290 A 
ATOM      8  O   UNL     1      -0.102  -8.277  -0.490  0.00  0.00    -0.265 OA
ATOM      9  O   UNL     1      -4.869  -8.168  -0.661  0.00  0.00    -0.284 OA
ENDROOT
BRANCH   6  10
ATOM     10  C   UNL     1      -0.103 -10.985  -0.647  0.00  0.00    +0.053 A 
ATOM     11  C   UNL     1       0.291 -11.695  -1.774  0.00  0.00    +0.026 A 
ATOM     12  C   UNL     1       1.482 -12.394  -1.767  0.00  0.00    +0.002 A 
ATOM     13  C   UNL     1       2.282 -12.388  -0.639  0.00  0.00    +0.000 A 
ATOM     14  C   UNL     1       1.893 -11.682   0.485  0.00  0.00    +0.002 A 
ATOM     15  C   UNL     1       0.706 -10.976   0.481  0.00  0.00    +0.026 A 
ENDBRANCH   6  10
BRANCH   1  17
ATOM     16  N   UNL     1      -1.300  -6.212  -0.403  0.00  0.00    -0.149 NA
ATOM     17  N   UNL     1      -2.433  -6.824  -0.481  0.00  0.00    -0.140 NA
BRANCH  16  21
ATOM     18  C   UNL     1      -1.190  -2.083  -0.143  0.00  0.00    +0.034 A 
ATOM     19  C   UNL     1      -0.004  -2.810  -0.146  0.00  0.00    +0.025 A 
ATOM     20  C   UNL     1      -0.037  -4.184  -0.233  0.00  0.00    +0.031 A 
ATOM     21  C   UNL     1      -1.264  -4.849  -0.317  0.00  0.00    +0.086 A 
ATOM     22  C   UNL     1      -2.454  -4.115  -0.313  0.00  0.00    +0.031 A 
ATOM     23  C   UNL     1      -2.413  -2.741  -0.221  0.00  0.00    +0.025 A 
BRANCH  18  27
ATOM     24  C   UNL     1      -0.175   1.504  -0.646  0.00  0.00    +0.109 C 
ATOM     25  C   UNL     1      -0.161  -0.003  -0.656  0.00  0.00    +0.214 C 
ATOM     26  O   UNL     1       0.743  -0.597  -1.204  0.00  0.00    -0.276 OA
ATOM     27  N   UNL     1      -1.153  -0.690  -0.055  0.00  0.00    -0.286 N 
ATOM     28  H   UNL     1      -1.841  -0.216   0.438  0.00  0.00    +0.155 HD
ENDBRANCH  18  27
ENDBRANCH  16  21
ENDBRANCH   1  17
BRANCH   3  29
ATOM     29  C   UNL     1      -4.966 -10.995  -0.841  0.00  0.00    +0.348 C 
ATOM     30  O   UNL     1      -6.024 -10.394  -0.845  0.00  0.00    -0.245 OA
BRANCH  29  31
ATOM     31  O   UNL     1      -4.956 -12.341  -0.924  0.00  0.00    -0.464 OA
ATOM     32  C   UNL     1      -6.223 -12.996  -1.015  0.00  0.00    +0.280 C 
ENDBRANCH  29  31
ENDBRANCH   3  29
TORSDOF 6
