REMARK  Name = ZINC63350095
REMARK  6 active torsions:
REMARK  status: ('A' for Active; 'I' for Inactive)
REMARK    1  A    between atoms: C_1  and  O_2
REMARK    2  A    between atoms: O_2  and  C_3
REMARK    3  A    between atoms: C_6  and  C_11
REMARK    4  A    between atoms: C_8  and  O_9
REMARK    5  A    between atoms: O_9  and  C_10
REMARK    6  A    between atoms: N_29  and  C_32
REMARK                            x       y       z     vdW  Elec       q    Type
REMARK                         _______ _______ _______ _____ _____    ______ ____
ROOT
ATOM      1  C   UNL     1      -4.707  -2.495   0.268  0.00  0.00    +0.133 C 
ATOM      2  C   UNL     1      -5.294  -2.658  -1.141  0.00  0.00    +0.131 C 
ATOM      3  C   UNL     1      -6.011  -1.358  -1.478  0.00  0.00    -0.034 C 
ATOM      4  C   UNL     1      -5.466  -0.912  -2.605  0.00  0.00    -0.001 A 
ATOM      5  C   UNL     1      -5.776   0.255  -3.447  0.00  0.00    +0.010 A 
ATOM      6  C   UNL     1      -4.997   0.423  -4.548  0.00  0.00    +0.001 A 
ATOM      7  C   UNL     1      -3.954  -0.442  -4.892  0.00  0.00    +0.002 A 
ATOM      8  C   UNL     1      -3.601  -1.540  -4.178  0.00  0.00    +0.026 A 
ATOM      9  C   UNL     1      -4.350  -1.825  -2.999  0.00  0.00    +0.043 A 
ATOM     10  N   UNL     1      -4.239  -2.825  -2.143  0.00  0.00    -0.375 N 
ATOM     11  C   UNL     1      -7.073  -0.744  -0.596  0.00  0.00    +0.065 C 
ATOM     12  C   UNL     1      -6.464  -0.639   0.813  0.00  0.00    +0.167 C 
ATOM     13  N   UNL     1      -5.760  -1.907   1.106  0.00  0.00    -0.291 N 
ATOM     14  C   UNL     1      -6.287  -2.392   2.237  0.00  0.00    +0.148 C 
ATOM     15  S   UNL     1      -5.680  -3.765   3.061  0.00  0.00    -0.018 S 
ATOM     16  N   UNL     1      -7.344  -1.679   2.650  0.00  0.00    -0.220 N 
ATOM     17  C   UNL     1      -7.566  -0.584   1.849  0.00  0.00    +0.246 C 
ATOM     18  O   UNL     1      -8.447   0.245   1.938  0.00  0.00    -0.273 OA
ATOM     19  H   UNL     1      -3.583  -3.538  -2.163  0.00  0.00    +0.160 HD
ENDROOT
BRANCH   1  23
ATOM     20  C   UNL     1      -1.318   0.110   0.144  0.00  0.00    +0.162 A 
ATOM     21  C   UNL     1      -2.583   0.600  -0.138  0.00  0.00    +0.050 A 
ATOM     22  C   UNL     1      -3.677  -0.244  -0.097  0.00  0.00    +0.009 A 
ATOM     23  C   UNL     1      -3.511  -1.579   0.225  0.00  0.00    -0.021 A 
ATOM     24  C   UNL     1      -2.252  -2.074   0.508  0.00  0.00    +0.055 A 
ATOM     25  C   UNL     1      -1.151  -1.234   0.463  0.00  0.00    +0.162 A 
BRANCH  20  27
ATOM     26  C   UNL     1      -0.488   2.307  -0.230  0.00  0.00    +0.277 C 
ATOM     27  O   UNL     1      -0.241   0.940   0.104  0.00  0.00    -0.491 OA
ENDBRANCH  20  27
BRANCH  25  28
ATOM     28  O   UNL     1       0.089  -1.721   0.735  0.00  0.00    -0.491 OA
ATOM     29  C   UNL     1       0.185  -3.110   1.054  0.00  0.00    +0.277 C 
ENDBRANCH  25  28
ENDBRANCH   1  23
BRANCH  16  30
ATOM     30  C   UNL     1      -8.124  -2.003   3.768  0.00  0.00    +0.043 A 
ATOM     31  C   UNL     1      -8.907  -3.149   3.762  0.00  0.00    +0.024 A 
ATOM     32  C   UNL     1      -9.675  -3.465   4.865  0.00  0.00    +0.002 A 
ATOM     33  C   UNL     1      -9.664  -2.642   5.976  0.00  0.00    +0.000 A 
ATOM     34  C   UNL     1      -8.885  -1.499   5.986  0.00  0.00    +0.002 A 
ATOM     35  C   UNL     1      -8.111  -1.181   4.887  0.00  0.00    +0.024 A 
ENDBRANCH  16  30
TORSDOF 4
