REMARK  Name = ZINC09080867
REMARK  9 active torsions:
REMARK  status: ('A' for Active; 'I' for Inactive)
REMARK    1  A    between atoms: C_1  and  N_2
REMARK    2  A    between atoms: N_2  and  C_3
REMARK    3  A    between atoms: N_2  and  C_4
REMARK    4  A    between atoms: C_7  and  C_10
REMARK    5  A    between atoms: C_10  and  C_12
REMARK    6  A    between atoms: C_10  and  S_22
REMARK    7  A    between atoms: C_12  and  N_13
REMARK    8  A    between atoms: C_14  and  C_16
REMARK    9  A    between atoms: S_22  and  C_25
REMARK                            x       y       z     vdW  Elec       q    Type
REMARK                         _______ _______ _______ _____ _____    ______ ____
ROOT
ATOM      1  C   UNL     1      -2.571  -2.688   0.012  0.00  0.00    +0.183 C 
ENDROOT
BRANCH   1   5
ATOM      2  C   UNL     1      -2.513  -6.962  -0.011  0.00  0.00    +0.029 A 
ATOM      3  C   UNL     1      -3.114  -6.279   1.039  0.00  0.00    +0.023 A 
ATOM      4  C   UNL     1      -3.131  -4.899   1.044  0.00  0.00    +0.007 A 
ATOM      5  C   UNL     1      -2.551  -4.195   0.004  0.00  0.00    -0.021 A 
ATOM      6  C   UNL     1      -1.957  -4.871  -1.046  0.00  0.00    +0.007 A 
ATOM      7  C   UNL     1      -1.932  -6.252  -1.054  0.00  0.00    +0.023 A 
BRANCH   2   9
ATOM      8  C   UNL     1      -3.109  -9.105   1.081  0.00  0.00    +0.129 C 
ATOM      9  N   UNL     1      -2.495  -8.358  -0.019  0.00  0.00    -0.336 N 
ATOM     10  C   UNL     1      -1.861  -9.076  -1.128  0.00  0.00    +0.129 C 
ENDBRANCH   2   9
ENDBRANCH   1   5
BRANCH   1  11
ATOM     11  S   UNL     1      -3.449  -2.087  -1.457  0.00  0.00    +0.005 S 
ATOM     12  O   UNL     1      -4.722  -2.711  -1.556  0.00  0.00    -0.169 OA
ATOM     13  O   UNL     1      -3.324  -0.675  -1.559  0.00  0.00    -0.169 OA
BRANCH  11  14
ATOM     14  C   UNL     1      -2.531  -2.719  -2.822  0.00  0.00    +0.089 A 
ATOM     15  C   UNL     1      -1.497  -1.978  -3.363  0.00  0.00    +0.028 A 
ATOM     16  C   UNL     1      -0.773  -2.475  -4.430  0.00  0.00    +0.022 A 
ATOM     17  C   UNL     1      -1.091  -3.711  -4.965  0.00  0.00    +0.041 A 
ATOM     18  C   UNL     1      -2.130  -4.450  -4.427  0.00  0.00    +0.022 A 
ATOM     19  C   UNL     1      -2.849  -3.954  -3.357  0.00  0.00    +0.028 A 
ATOM     20 CL   UNL     1      -0.187  -4.334  -6.309  0.00  0.00    -0.084 Cl
ENDBRANCH  11  14
ENDBRANCH   1  11
BRANCH   1  21
ATOM     21  C   UNL     1      -1.136  -2.159   0.001  0.00  0.00    +0.135 C 
BRANCH  21  22
ATOM     22  N   UNL     1      -1.156  -0.694   0.009  0.00  0.00    -0.309 N 
ATOM     23  C   UNL     1       0.002  -0.004   0.002  0.00  0.00    +0.244 C 
ATOM     24  O   UNL     1       1.062  -0.597  -0.011  0.00  0.00    -0.270 OA
ATOM     25  H   UNL     1      -2.002  -0.220   0.020  0.00  0.00    +0.149 HD
BRANCH  23  26
ATOM     26  C   UNL     1      -0.018   1.477   0.010  0.00  0.00    +0.040 A 
ATOM     27  C   UNL     1      -1.227   2.179   0.020  0.00  0.00    +0.033 A 
ATOM     28  C   UNL     1      -1.200   3.561   0.032  0.00  0.00    +0.111 A 
ATOM     29  N   UNL     1      -0.055   4.215   0.024  0.00  0.00    -0.263 NA
ATOM     30  C   UNL     1       1.107   3.592   0.010  0.00  0.00    +0.111 A 
ATOM     31  C   UNL     1       1.171   2.212   0.003  0.00  0.00    +0.033 A 
ENDBRANCH  23  26
ENDBRANCH  21  22
ENDBRANCH   1  21
TORSDOF 7
