REMARK  Name = ZINC20152026
REMARK  9 active torsions:
REMARK  status: ('A' for Active; 'I' for Inactive)
REMARK    1  A    between atoms: C_1  and  O_2
REMARK    2  A    between atoms: O_2  and  C_3
REMARK    3  A    between atoms: C_6  and  N_16
REMARK    4  A    between atoms: C_8  and  C_9
REMARK    5  A    between atoms: C_12  and  C_14
REMARK    6  A    between atoms: C_14  and  O_15
REMARK    7  A    between atoms: N_16  and  C_17
REMARK    8  A    between atoms: C_17  and  N_19
REMARK    9  A    between atoms: C_20  and  C_22
REMARK                            x       y       z     vdW  Elec       q    Type
REMARK                         _______ _______ _______ _____ _____    ______ ____
ROOT
ATOM      1  C   UNL     1       0.573  -0.648  -1.052  0.00  0.00    +0.131 A 
ATOM      2  C   UNL     1       0.786   0.068  -2.218  0.00  0.00    +0.048 A 
ATOM      3  C   UNL     1       1.411  -0.529  -3.296  0.00  0.00    +0.027 A 
ATOM      4  C   UNL     1       1.832  -1.851  -3.217  0.00  0.00    +0.033 A 
ATOM      5  C   UNL     1       1.625  -2.579  -2.056  0.00  0.00    +0.038 A 
ATOM      6  C   UNL     1       0.998  -1.979  -0.964  0.00  0.00    +0.061 A 
ENDROOT
BRANCH   6   7
ATOM      7  C   UNL     1       0.780  -2.747   0.280  0.00  0.00    +0.139 A 
ATOM      8  C   UNL     1       0.228  -3.986   0.366  0.00  0.00    +0.050 A 
ATOM      9  C   UNL     1       0.214  -4.331   1.732  0.00  0.00    +0.047 A 
ATOM     10  C   UNL     1       0.751  -3.295   2.406  0.00  0.00    +0.131 A 
ATOM     11  O   UNL     1       1.098  -2.342   1.525  0.00  0.00    -0.457 OA
BRANCH  10  12
ATOM     12  C   UNL     1       0.939  -3.221   3.899  0.00  0.00    +0.230 C 
BRANCH  12  13
ATOM     13  O   UNL     1       2.221  -3.750   4.245  0.00  0.00    -0.387 OA
ATOM     14  H   UNL     1       2.410  -3.734   5.193  0.00  0.00    +0.210 HD
ENDBRANCH  12  13
ENDBRANCH  10  12
ENDBRANCH   6   7
BRANCH   1  16
ATOM     15  C   UNL     1      -0.450   1.302  -0.155  0.00  0.00    +0.277 C 
ATOM     16  O   UNL     1      -0.043  -0.059   0.007  0.00  0.00    -0.494 OA
ENDBRANCH   1  16
BRANCH   4  17
ATOM     17  N   UNL     1       2.466  -2.450  -4.314  0.00  0.00    -0.297 N 
ATOM     18  H   UNL     1       2.101  -2.337  -5.205  0.00  0.00    +0.154 HD
BRANCH  17  19
ATOM     19  C   UNL     1       3.582  -3.183  -4.130  0.00  0.00    +0.141 C 
ATOM     20  S   UNL     1       4.164  -3.472  -2.546  0.00  0.00    -0.018 S 
BRANCH  19  21
ATOM     21  N   UNL     1       4.240  -3.687  -5.192  0.00  0.00    -0.264 N 
ATOM     22  C   UNL     1       5.356  -4.420  -5.008  0.00  0.00    +0.251 C 
ATOM     23  O   UNL     1       5.769  -4.625  -3.884  0.00  0.00    -0.270 OA
ATOM     24  H   UNL     1       3.910  -3.523  -6.089  0.00  0.00    +0.157 HD
BRANCH  22  25
ATOM     25  C   UNL     1       6.077  -4.973  -6.173  0.00  0.00    +0.056 A 
ATOM     26  C   UNL     1       5.608  -4.734  -7.466  0.00  0.00    +0.029 A 
ATOM     27  C   UNL     1       6.286  -5.253  -8.550  0.00  0.00    +0.019 A 
ATOM     28  C   UNL     1       7.430  -6.010  -8.357  0.00  0.00    +0.017 A 
ATOM     29  C   UNL     1       7.900  -6.252  -7.079  0.00  0.00    +0.022 A 
ATOM     30  C   UNL     1       7.234  -5.733  -5.985  0.00  0.00    +0.053 A 
ATOM     31 CL   UNL     1       7.830  -6.030  -4.382  0.00  0.00    -0.083 Cl
ATOM     32 BR   UNL     1       5.652  -4.931 -10.302  0.00  0.00    -0.050 Br
ENDBRANCH  22  25
ENDBRANCH  19  21
ENDBRANCH  17  19
ENDBRANCH   4  17
TORSDOF 8
