REMARK  Name = ZINC05625277
REMARK  5 active torsions:
REMARK  status: ('A' for Active; 'I' for Inactive)
REMARK    1  A    between atoms: C_1  and  C_2
REMARK    2  A    between atoms: C_2  and  C_28
REMARK    3  A    between atoms: C_6  and  N_20
REMARK    4  A    between atoms: C_15  and  S_18
REMARK    5  A    between atoms: S_18  and  C_19
REMARK                            x       y       z     vdW  Elec       q    Type
REMARK                         _______ _______ _______ _____ _____    ______ ____
ROOT
ATOM      1  C   UNL     1      -2.352  -3.010   0.143  0.00  0.00    +0.041 C 
ATOM      2  C   UNL     1      -1.099  -2.209  -0.216  0.00  0.00    +0.068 C 
ATOM      3  C   UNL     1      -1.308  -0.736   0.144  0.00  0.00    +0.070 C 
ATOM      4  C   UNL     1       0.003  -0.003   0.065  0.00  0.00    -0.024 A 
ATOM      5  C   UNL     1       1.194  -0.656   0.048  0.00  0.00    +0.020 A 
ATOM      6  C   UNL     1       2.389   0.072  -0.019  0.00  0.00    +0.105 A 
ATOM      7  C   UNL     1       1.234   2.059  -0.059  0.00  0.00    +0.089 A 
ATOM      8  C   UNL     1      -0.017   1.415   0.009  0.00  0.00    +0.033 A 
ATOM      9  C   UNL     1      -1.192   2.295   0.009  0.00  0.00    +0.070 A 
ATOM     10  C   UNL     1      -0.942   3.654  -0.049  0.00  0.00    +0.104 A 
ATOM     11  S   UNL     1       0.825   3.787  -0.115  0.00  0.00    -0.064 S 
ATOM     12  C   UNL     1      -1.993   4.591  -0.050  0.00  0.00    +0.288 A 
ATOM     13  O   UNL     1      -1.755   5.788  -0.105  0.00  0.00    -0.265 OA
ATOM     14  N   UNL     1      -3.261   4.151   0.011  0.00  0.00    -0.184 NA
ATOM     15  C   UNL     1      -3.515   2.860   0.071  0.00  0.00    +0.170 A 
ATOM     16  N   UNL     1      -2.537   1.922   0.075  0.00  0.00    -0.333 N 
ATOM     17  H   UNL     1      -2.773   0.983   0.120  0.00  0.00    +0.168 HD
ATOM     18  C   UNL     1       1.267  -2.160   0.098  0.00  0.00    +0.199 C 
ATOM     19  O   UNL     1       0.020  -2.701   0.531  0.00  0.00    -0.369 OA
ATOM     20  C   UNL     1      -0.816  -2.338  -1.714  0.00  0.00    +0.041 C 
ATOM     21  N   UNL     1       2.435   1.432  -0.074  0.00  0.00    -0.337 N 
ATOM     22  H   UNL     1       3.321   1.949  -0.124  0.00  0.00    +0.168 HD
ENDROOT
BRANCH   6  23
ATOM     23  N   UNL     1       3.604  -0.599  -0.032  0.00  0.00    -0.312 N 
ATOM     24  C   UNL     1       4.419  -0.235   1.136  0.00  0.00    +0.134 C 
ATOM     25  C   UNL     1       5.721  -1.041   1.115  0.00  0.00    +0.178 C 
ATOM     26  O   UNL     1       6.404  -0.800  -0.119  0.00  0.00    -0.377 OA
ATOM     27  C   UNL     1       5.639  -1.145  -1.277  0.00  0.00    +0.178 C 
ATOM     28  C   UNL     1       4.336  -0.340  -1.280  0.00  0.00    +0.134 C 
ENDBRANCH   6  23
BRANCH  15  29
ATOM     29  S   UNL     1      -5.194   2.331   0.150  0.00  0.00    -0.091 S 
ATOM     30  C   UNL     1      -6.031   3.936   0.115  0.00  0.00    +0.093 C 
ENDBRANCH  15  29
TORSDOF 2
