REMARK  Name = ZINC13342038
REMARK  8 active torsions:
REMARK  status: ('A' for Active; 'I' for Inactive)
REMARK    1  A    between atoms: C_1  and  C_2
REMARK    2  A    between atoms: C_2  and  N_3
REMARK    3  A    between atoms: C_13  and  S_14
REMARK    4  A    between atoms: S_14  and  C_15
REMARK    5  A    between atoms: C_15  and  C_16
REMARK    6  A    between atoms: N_18  and  C_19
REMARK    7  A    between atoms: C_21  and  C_27
REMARK    8  A    between atoms: C_23  and  C_25
REMARK                            x       y       z     vdW  Elec       q    Type
REMARK                         _______ _______ _______ _____ _____    ______ ____
ROOT
ATOM      1  C   UNL     1      -5.231  -2.006   0.214  0.00  0.00    +0.227 C 
ATOM      2  O   UNL     1      -5.462  -3.187   0.366  0.00  0.00    -0.275 OA
ATOM      3  N   UNL     1      -6.248  -1.135   0.060  0.00  0.00    -0.285 N 
ATOM      4  H   UNL     1      -6.068  -0.183   0.014  0.00  0.00    +0.155 HD
ENDROOT
BRANCH   3   5
ATOM      5  C   UNL     1      -7.563  -1.605  -0.035  0.00  0.00    +0.035 A 
ATOM      6  C   UNL     1      -7.821  -2.821  -0.650  0.00  0.00    +0.038 A 
ATOM      7  C   UNL     1      -9.131  -3.295  -0.741  0.00  0.00    +0.066 A 
ATOM      8  C   UNL     1     -10.182  -2.540  -0.223  0.00  0.00    +0.030 A 
ATOM      9  C   UNL     1      -9.920  -1.315   0.388  0.00  0.00    +0.066 A 
ATOM     10  C   UNL     1      -8.606  -0.850   0.481  0.00  0.00    +0.038 A 
BRANCH   9  11
ATOM     11  C   UNL     1     -11.030  -0.511   0.939  0.00  0.00    +0.387 C 
ATOM     12  O   UNL     1     -10.801   0.556   1.472  0.00  0.00    -0.241 OA
ATOM     13  O   UNL     1     -12.296  -0.960   0.849  0.00  0.00    -0.241 OA
ENDBRANCH   9  11
BRANCH   7  14
ATOM     14  C   UNL     1      -9.404  -4.594  -1.391  0.00  0.00    +0.387 C 
ATOM     15  O   UNL     1      -8.488  -5.252  -1.841  0.00  0.00    -0.241 OA
ATOM     16  O   UNL     1     -10.669  -5.048  -1.483  0.00  0.00    -0.241 OA
ENDBRANCH   7  14
ENDBRANCH   3   5
BRANCH   1  17
ATOM     17  C   UNL     1      -3.807  -1.512   0.197  0.00  0.00    +0.173 C 
BRANCH  17  18
ATOM     18  S   UNL     1      -2.681  -2.911   0.426  0.00  0.00    -0.078 S 
BRANCH  18  29
ATOM     19  N   UNL     1       0.011  -2.803   0.506  0.00  0.00    -0.288 N 
ATOM     20  C   UNL     1       1.221  -2.199   0.467  0.00  0.00    +0.262 A 
ATOM     21  O   UNL     1       2.250  -2.837   0.591  0.00  0.00    -0.267 OA
ATOM     22  C   UNL     1       1.246  -0.743   0.270  0.00  0.00    +0.065 A 
ATOM     23  C   UNL     1       2.442  -0.028   0.215  0.00  0.00    +0.015 A 
ATOM     24  C   UNL     1       2.408   1.327   0.030  0.00  0.00    +0.001 A 
ATOM     25  C   UNL     1       1.198   1.996  -0.104  0.00  0.00    +0.002 A 
ATOM     26  C   UNL     1       0.012   1.319  -0.055  0.00  0.00    +0.028 A 
ATOM     27  C   UNL     1       0.013  -0.066   0.134  0.00  0.00    +0.079 A 
ATOM     28  N   UNL     1      -1.134  -0.772   0.189  0.00  0.00    -0.223 NA
ATOM     29  C   UNL     1      -1.133  -2.071   0.366  0.00  0.00    +0.173 A 
BRANCH  19  31
ATOM     30  C   UNL     1      -0.152  -4.563   2.197  0.00  0.00    +0.027 C 
ATOM     31  C   UNL     1      -0.073  -4.253   0.701  0.00  0.00    +0.124 C 
ENDBRANCH  19  31
ENDBRANCH  18  29
ENDBRANCH  17  18
ENDBRANCH   1  17
TORSDOF 7
