REMARK  Name = ZINC12406385
REMARK  6 active torsions:
REMARK  status: ('A' for Active; 'I' for Inactive)
REMARK    1  A    between atoms: C_1  and  C_2
REMARK    2  A    between atoms: C_2  and  C_31
REMARK    3  A    between atoms: C_9  and  C_21
REMARK    4  A    between atoms: C_17  and  C_19
REMARK    5  A    between atoms: C_17  and  C_20
REMARK    6  A    between atoms: N_23  and  C_24
REMARK                            x       y       z     vdW  Elec       q    Type
REMARK                         _______ _______ _______ _____ _____    ______ ____
ROOT
ATOM      1  C   UNL     1      -0.726   1.948  -1.240  0.00  0.00    +0.074 C 
ATOM      2  C   UNL     1       0.006   1.436   0.002  0.00  0.00    +0.166 C 
ATOM      3  O   UNL     1       1.360   1.910  -0.006  0.00  0.00    -0.341 OA
ATOM      4  C   UNL     1       2.218   0.739  -0.057  0.00  0.00    +0.187 C 
ATOM      5  C   UNL     1       1.305  -0.344   0.547  0.00  0.00    +0.191 C 
ATOM      6  O   UNL     1       0.019  -0.005  -0.004  0.00  0.00    -0.340 OA
ATOM      7  C   UNL     1       1.746  -1.741   0.164  0.00  0.00    +0.238 C 
ATOM      8  O   UNL     1       1.856  -1.857  -1.251  0.00  0.00    -0.333 OA
ATOM      9  C   UNL     1       2.857  -1.014  -1.832  0.00  0.00    +0.286 C 
ATOM     10  C   UNL     1       2.551   0.456  -1.502  0.00  0.00    +0.209 C 
ATOM     11  O   UNL     1       1.429   0.729  -2.391  0.00  0.00    -0.338 OA
ATOM     12  C   UNL     1       1.743   0.002  -3.595  0.00  0.00    +0.168 C 
ATOM     13  O   UNL     1       2.643  -1.067  -3.267  0.00  0.00    -0.318 OA
ATOM     14  C   UNL     1       2.405   0.940  -4.605  0.00  0.00    +0.074 C 
ATOM     15  C   UNL     1       0.460  -0.574  -4.197  0.00  0.00    +0.074 C 
ATOM     16  C   UNL     1      -0.707   1.938   1.259  0.00  0.00    +0.074 C 
ENDROOT
BRANCH   7  17
ATOM     17  C   UNL     1       0.735  -2.739   0.669  0.00  0.00    +0.249 C 
ATOM     18  O   UNL     1       0.089  -3.398  -0.118  0.00  0.00    -0.273 OA
ATOM     19  N   UNL     1       0.548  -2.897   1.994  0.00  0.00    -0.283 N 
ATOM     20  H   UNL     1       1.007  -2.317   2.621  0.00  0.00    +0.155 HD
BRANCH  19  21
ATOM     21  C   UNL     1      -0.307  -3.900   2.465  0.00  0.00    +0.034 A 
ATOM     22  C   UNL     1      -1.064  -3.687   3.611  0.00  0.00    +0.025 A 
ATOM     23  C   UNL     1      -1.911  -4.676   4.071  0.00  0.00    +0.022 A 
ATOM     24  C   UNL     1      -1.999  -5.882   3.398  0.00  0.00    +0.041 A 
ATOM     25  C   UNL     1      -1.242  -6.098   2.259  0.00  0.00    +0.022 A 
ATOM     26  C   UNL     1      -0.398  -5.111   1.792  0.00  0.00    +0.025 A 
ATOM     27 CL   UNL     1      -3.060  -7.125   3.983  0.00  0.00    -0.084 Cl
ENDBRANCH  19  21
ENDBRANCH   7  17
TORSDOF 2
