REMARK  Name = ZINC41076365
REMARK  4 active torsions:
REMARK  status: ('A' for Active; 'I' for Inactive)
REMARK    1  A    between atoms: C_3  and  C_16
REMARK    2  A    between atoms: N_4  and  C_6
REMARK    3  A    between atoms: C_9  and  N_13
REMARK    4  A    between atoms: C_26  and  C_28
REMARK                            x       y       z     vdW  Elec       q    Type
REMARK                         _______ _______ _______ _____ _____    ______ ____
ROOT
ATOM      1  C   UNL     1       3.322   0.558   0.579  0.00  0.00    +0.042 C 
ATOM      2  C   UNL     1       3.956  -0.627   0.913  0.00  0.00    +0.082 C 
ATOM      3  C   UNL     1       5.374  -0.658   1.362  0.00  0.00    +0.153 C 
ATOM      4  N   UNL     1       5.928   0.303   2.055  0.00  0.00    -0.283 NA
ATOM      5  N   UNL     1       6.062  -1.825   0.967  0.00  0.00    -0.152 N 
ATOM      6  C   UNL     1       5.308  -2.946   0.695  0.00  0.00    +0.181 C 
ATOM      7  N   UNL     1       4.003  -3.042   0.665  0.00  0.00    -0.152 NA
ATOM      8  C   UNL     1       3.256  -1.931   0.848  0.00  0.00    +0.273 C 
ATOM      9  O   UNL     1       2.041  -1.998   0.952  0.00  0.00    -0.268 OA
ATOM     10  S   UNL     1       6.556  -4.167   0.385  0.00  0.00    -0.038 S 
ATOM     11  C   UNL     1       7.977  -3.093   0.537  0.00  0.00    +0.103 C 
ATOM     12  N   UNL     1       7.429  -1.951   0.839  0.00  0.00    -0.169 NA
ATOM     13  H   UNL     1       6.858   0.234   2.323  0.00  0.00    +0.188 HD
ENDROOT
BRANCH  11  14
ATOM     14  C   UNL     1       9.437  -3.424   0.362  0.00  0.00    +0.046 C 
ATOM     15  C   UNL     1      10.284  -2.433   1.161  0.00  0.00    +0.010 C 
ATOM     16  C   UNL     1      11.766  -2.769   0.983  0.00  0.00    +0.001 C 
ATOM     17  C   UNL     1      12.136  -2.678  -0.499  0.00  0.00    +0.000 C 
ATOM     18  C   UNL     1      11.288  -3.669  -1.298  0.00  0.00    +0.001 C 
ATOM     19  C   UNL     1       9.806  -3.333  -1.120  0.00  0.00    +0.010 C 
ENDBRANCH  11  14
BRANCH   1  22
ATOM     20  C   UNL     1       0.252   0.598  -1.316  0.00  0.00    +0.020 A 
ATOM     21  C   UNL     1       1.643   0.688  -1.262  0.00  0.00    +0.027 A 
ATOM     22  C   UNL     1       2.010   0.535   0.068  0.00  0.00    +0.047 A 
ATOM     23  N   UNL     1       0.852   0.356   0.798  0.00  0.00    -0.315 N 
ATOM     24  C   UNL     1      -0.205   0.396  -0.053  0.00  0.00    +0.092 A 
BRANCH  23  25
ATOM     25  C   UNL     1       0.779   0.164   2.184  0.00  0.00    +0.065 A 
ATOM     26  C   UNL     1       0.381  -1.064   2.696  0.00  0.00    +0.030 A 
ATOM     27  C   UNL     1       0.311  -1.250   4.063  0.00  0.00    +0.035 A 
ATOM     28  C   UNL     1       0.635  -0.215   4.921  0.00  0.00    +0.128 A 
ATOM     29  C   UNL     1       1.031   1.009   4.415  0.00  0.00    +0.054 A 
ATOM     30  C   UNL     1       1.110   1.200   3.048  0.00  0.00    +0.067 A 
ATOM     31 CL   UNL     1       1.615   2.735   2.413  0.00  0.00    -0.081 Cl
BRANCH  28  32
ATOM     32  N   UNL     1       0.558  -0.419   6.386  0.00  0.00    +0.056 N 
ATOM     33  O   UNL     1       0.212  -1.488   6.830  0.00  0.00    -0.126 OA
ATOM     34  O   UNL     1       0.841   0.485   7.137  0.00  0.00    -0.126 OA
ENDBRANCH  28  32
ENDBRANCH  23  25
ENDBRANCH   1  22
TORSDOF 4
