REMARK  Name = ZINC33123139
REMARK  6 active torsions:
REMARK  status: ('A' for Active; 'I' for Inactive)
REMARK    1  A    between atoms: C_1  and  C_2
REMARK    2  A    between atoms: C_5  and  C_20
REMARK    3  A    between atoms: C_7  and  S_8
REMARK    4  A    between atoms: S_8  and  N_11
REMARK    5  A    between atoms: N_11  and  C_12
REMARK    6  A    between atoms: C_21  and  C_32
REMARK                            x       y       z     vdW  Elec       q    Type
REMARK                         _______ _______ _______ _____ _____    ______ ____
ROOT
ATOM      1  C   UNL     1      -2.494  -0.060  -0.889  0.00  0.00    +0.046 C 
ATOM      2  C   UNL     1      -2.019   1.055  -1.785  0.00  0.00    -0.024 A 
ATOM      3  C   UNL     1      -2.711   1.349  -2.946  0.00  0.00    +0.006 A 
ATOM      4  C   UNL     1      -2.280   2.369  -3.770  0.00  0.00    +0.009 A 
ATOM      5  C   UNL     1      -1.146   3.104  -3.430  0.00  0.00    -0.011 A 
ATOM      6  C   UNL     1      -0.457   2.809  -2.255  0.00  0.00    +0.037 A 
ATOM      7  C   UNL     1      -0.893   1.782  -1.442  0.00  0.00    +0.112 A 
ENDROOT
BRANCH   5   8
ATOM      8  C   UNL     1      -0.679   4.202  -4.311  0.00  0.00    +0.045 A 
ATOM      9  C   UNL     1      -0.640   5.571  -3.987  0.00  0.00    +0.070 A 
ATOM     10  N   UNL     1      -0.153   6.220  -5.004  0.00  0.00    -0.167 NA
ATOM     11  N   UNL     1       0.181   5.304  -6.020  0.00  0.00    -0.185 N 
ATOM     12  C   UNL     1      -0.192   4.066  -5.606  0.00  0.00    +0.139 A 
ATOM     13  N   UNL     1      -0.215   2.869  -6.293  0.00  0.00    -0.270 N 
ATOM     14  C   UNL     1       0.678   2.504  -7.236  0.00  0.00    +0.219 C 
ATOM     15  O   UNL     1       0.567   1.434  -7.797  0.00  0.00    -0.275 OA
ATOM     16  C   UNL     1       1.802   3.419  -7.590  0.00  0.00    +0.105 C 
ATOM     17  C   UNL     1       1.304   4.722  -8.160  0.00  0.00    +0.110 C 
ATOM     18  C   UNL     1       0.804   5.679  -7.157  0.00  0.00    +0.250 C 
ATOM     19  O   UNL     1       0.961   6.860  -7.362  0.00  0.00    -0.271 OA
ATOM     20  C   UNL     1      -1.087   6.181  -2.683  0.00  0.00    +0.068 C 
ATOM     21  H   UNL     1      -1.004   2.130  -6.085  0.00  0.00    +0.156 HD
ENDBRANCH   5   8
BRANCH   7  22
ATOM     22  S   UNL     1      -0.018   1.402   0.040  0.00  0.00    +0.073 S 
ATOM     23  O   UNL     1       1.075   2.307   0.110  0.00  0.00    -0.150 OA
ATOM     24  O   UNL     1      -0.991   1.300   1.071  0.00  0.00    -0.150 OA
BRANCH  22  25
ATOM     25  N   UNL     1       0.630  -0.110  -0.149  0.00  0.00    -0.215 N 
ATOM     26  H   UNL     1       0.351  -0.919   0.542  0.00  0.00    +0.174 HD
BRANCH  25  27
ATOM     27  C   UNL     1       1.534  -0.359  -1.188  0.00  0.00    +0.066 A 
ATOM     28  C   UNL     1       2.438   0.622  -1.573  0.00  0.00    +0.029 A 
ATOM     29  C   UNL     1       3.329   0.374  -2.599  0.00  0.00    +0.040 A 
ATOM     30  C   UNL     1       3.322  -0.851  -3.244  0.00  0.00    +0.125 A 
ATOM     31  C   UNL     1       2.421  -1.831  -2.863  0.00  0.00    +0.060 A 
ATOM     32  C   UNL     1       1.531  -1.590  -1.833  0.00  0.00    +0.066 A 
ATOM     33 CL   UNL     1       0.407  -2.821  -1.350  0.00  0.00    -0.081 Cl
ATOM     34  F   UNL     1       4.195  -1.091  -4.247  0.00  0.00    -0.205 F 
ENDBRANCH  25  27
ENDBRANCH  22  25
ENDBRANCH   7  22
TORSDOF 4
