REMARK  Name = ZINC49491610
REMARK  5 active torsions:
REMARK  status: ('A' for Active; 'I' for Inactive)
REMARK    1  A    between atoms: C_4  and  S_7
REMARK    2  A    between atoms: S_7  and  N_10
REMARK    3  A    between atoms: C_17  and  N_20
REMARK    4  A    between atoms: C_21  and  C_23
REMARK    5  A    between atoms: N_28  and  C_30
REMARK                            x       y       z     vdW  Elec       q    Type
REMARK                         _______ _______ _______ _____ _____    ______ ____
ROOT
ATOM      1  N   UNL     1       4.647  -1.358   1.456  0.00  0.00    -0.203 N 
ATOM      2  C   UNL     1       5.536  -0.386   2.107  0.00  0.00    +0.132 C 
ATOM      3  C   UNL     1       6.422  -1.152   3.099  0.00  0.00    +0.025 C 
ATOM      4  C   UNL     1       5.533  -1.771   4.178  0.00  0.00    +0.038 C 
ATOM      5  C   UNL     1       4.409  -2.553   3.551  0.00  0.00    -0.025 A 
ATOM      6  C   UNL     1       4.006  -2.321   2.243  0.00  0.00    +0.056 A 
ATOM      7  C   UNL     1       2.959  -3.052   1.695  0.00  0.00    +0.048 A 
ATOM      8  C   UNL     1       2.312  -4.014   2.457  0.00  0.00    +0.035 A 
ATOM      9  C   UNL     1       2.716  -4.242   3.766  0.00  0.00    +0.024 A 
ATOM     10  C   UNL     1       3.765  -3.519   4.306  0.00  0.00    +0.007 A 
ENDROOT
BRANCH   8  11
ATOM     11  N   UNL     1       1.257  -4.751   1.909  0.00  0.00    -0.285 N 
ATOM     12  C   UNL     1       1.095  -6.047   2.243  0.00  0.00    +0.222 C 
ATOM     13  O   UNL     1       1.812  -6.551   3.081  0.00  0.00    -0.275 OA
ATOM     14  H   UNL     1       0.642  -4.330   1.288  0.00  0.00    +0.155 HD
BRANCH  12  15
ATOM     15  C   UNL     1       0.022  -6.869   1.576  0.00  0.00    +0.102 C 
ATOM     16  C   UNL     1       0.303  -7.022   0.063  0.00  0.00    +0.110 C 
ATOM     17  C   UNL     1       1.067  -8.323  -0.042  0.00  0.00    +0.221 C 
ATOM     18  O   UNL     1       1.715  -8.672  -1.006  0.00  0.00    -0.275 OA
ATOM     19  N   UNL     1       0.925  -9.036   1.089  0.00  0.00    -0.271 N 
ATOM     20  C   UNL     1       0.071  -8.336   2.057  0.00  0.00    +0.127 C 
BRANCH  19  21
ATOM     21  C   UNL     1       1.514 -10.285   1.314  0.00  0.00    +0.036 A 
ATOM     22  C   UNL     1       2.214 -10.919   0.296  0.00  0.00    +0.025 A 
ATOM     23  C   UNL     1       2.795 -12.151   0.521  0.00  0.00    +0.022 A 
ATOM     24  C   UNL     1       2.680 -12.755   1.761  0.00  0.00    +0.041 A 
ATOM     25  C   UNL     1       1.984 -12.126   2.778  0.00  0.00    +0.022 A 
ATOM     26  C   UNL     1       1.406 -10.891   2.559  0.00  0.00    +0.025 A 
ATOM     27 CL   UNL     1       3.411 -14.305   2.041  0.00  0.00    -0.084 Cl
ENDBRANCH  19  21
ENDBRANCH  12  15
ENDBRANCH   8  11
BRANCH   1  28
ATOM     28  S   UNL     1       4.402  -1.310  -0.181  0.00  0.00    +0.075 S 
ATOM     29  O   UNL     1       4.115  -2.640  -0.588  0.00  0.00    -0.150 OA
ATOM     30  O   UNL     1       5.477  -0.560  -0.730  0.00  0.00    -0.150 OA
BRANCH  28  34
ATOM     31  C   UNL     1       0.641   1.104  -0.904  0.00  0.00    +0.000 A 
ATOM     32  C   UNL     1       1.870   1.735  -0.861  0.00  0.00    +0.002 A 
ATOM     33  C   UNL     1       3.019   0.998  -0.640  0.00  0.00    +0.029 A 
ATOM     34  C   UNL     1       2.938  -0.370  -0.462  0.00  0.00    +0.109 A 
ATOM     35  C   UNL     1       1.709  -1.001  -0.504  0.00  0.00    +0.029 A 
ATOM     36  C   UNL     1       0.561  -0.265  -0.726  0.00  0.00    +0.002 A 
ENDBRANCH  28  34
ENDBRANCH   1  28
TORSDOF 5
