REMARK  Name = ZINC09494177
REMARK  10 active torsions:
REMARK  status: ('A' for Active; 'I' for Inactive)
REMARK    1  A    between atoms: C_1  and  N_2
REMARK    2  A    between atoms: N_2  and  C_3
REMARK    3  A    between atoms: N_2  and  S_4
REMARK    4  A    between atoms: S_4  and  C_7
REMARK    5  A    between atoms: C_11  and  N_13
REMARK    6  A    between atoms: C_14  and  C_16
REMARK    7  A    between atoms: C_16  and  S_17
REMARK    8  A    between atoms: S_17  and  C_18
REMARK    9  A    between atoms: C_23  and  N_27
REMARK   10  A    between atoms: C_24  and  N_26
REMARK                            x       y       z     vdW  Elec       q    Type
REMARK                         _______ _______ _______ _____ _____    ______ ____
ROOT
ATOM      1  N   UNL     1      -5.140   0.823   0.058  0.00  0.00    -0.284 N 
ATOM      2  C   UNL     1      -4.146   0.107   0.619  0.00  0.00    +0.228 C 
ATOM      3  O   UNL     1      -4.388  -0.960   1.143  0.00  0.00    -0.275 OA
ATOM      4  H   UNL     1      -4.961   1.711  -0.289  0.00  0.00    +0.155 HD
ENDROOT
BRANCH   1   9
ATOM      5  C   UNL     1      -7.884  -1.619  -0.107  0.00  0.00    +0.107 A 
ATOM      6  C   UNL     1      -8.979  -0.778  -0.191  0.00  0.00    +0.030 A 
ATOM      7  C   UNL     1      -8.803   0.593  -0.192  0.00  0.00    +0.024 A 
ATOM      8  C   UNL     1      -7.531   1.128  -0.110  0.00  0.00    +0.062 A 
ATOM      9  C   UNL     1      -6.429   0.285  -0.025  0.00  0.00    +0.054 A 
ATOM     10  C   UNL     1      -6.610  -1.091  -0.029  0.00  0.00    +0.053 A 
ATOM     11 CL   UNL     1      -7.310   2.850  -0.112  0.00  0.00    -0.082 Cl
BRANCH   5  12
ATOM     12  S   UNL     1      -8.115  -3.366  -0.107  0.00  0.00    +0.060 S 
ATOM     13  O   UNL     1      -6.974  -3.926   0.529  0.00  0.00    -0.153 OA
ATOM     14  O   UNL     1      -9.437  -3.601   0.356  0.00  0.00    -0.153 OA
BRANCH  12  16
ATOM     15  C   UNL     1      -6.795  -4.253  -2.294  0.00  0.00    +0.131 C 
ATOM     16  N   UNL     1      -8.070  -3.866  -1.685  0.00  0.00    -0.183 NA
ATOM     17  C   UNL     1      -9.305  -3.922  -2.471  0.00  0.00    +0.131 C 
ENDBRANCH  12  16
ENDBRANCH   5  12
ENDBRANCH   1   9
BRANCH   2  18
ATOM     18  C   UNL     1      -2.733   0.632   0.598  0.00  0.00    +0.173 C 
BRANCH  18  19
ATOM     19  S   UNL     1      -1.638  -0.548   1.425  0.00  0.00    -0.078 S 
BRANCH  19  20
ATOM     20  C   UNL     1      -0.099   0.294   1.258  0.00  0.00    +0.171 A 
ATOM     21  N   UNL     1       1.030  -0.274   1.766  0.00  0.00    -0.300 N 
ATOM     22  H   UNL     1       0.980  -1.133   2.213  0.00  0.00    +0.171 HD
ATOM     23  C   UNL     1       2.217   0.355   1.648  0.00  0.00    +0.275 A 
ATOM     24  O   UNL     1       3.235  -0.146   2.102  0.00  0.00    -0.266 OA
ATOM     25  C   UNL     1       2.263   1.596   0.997  0.00  0.00    +0.130 A 
ATOM     26  C   UNL     1       1.082   2.130   0.497  0.00  0.00    +0.145 A 
ATOM     27  N   UNL     1      -0.065   1.458   0.645  0.00  0.00    -0.207 NA
BRANCH  26  28
ATOM     28  N   UNL     1       1.093   3.353  -0.152  0.00  0.00    -0.341 N 
ATOM     29  H   UNL     1       0.267   3.725  -0.501  0.00  0.00    +0.144 HD
ATOM     30  H   UNL     1       1.926   3.839  -0.258  0.00  0.00    +0.144 HD
ENDBRANCH  26  28
BRANCH  25  31
ATOM     31  N   UNL     1       3.485   2.288   0.852  0.00  0.00    -0.351 N 
ATOM     32  H   UNL     1       4.304   1.906   1.205  0.00  0.00    +0.143 HD
ATOM     33  H   UNL     1       3.506   3.146   0.400  0.00  0.00    +0.143 HD
ENDBRANCH  25  31
ENDBRANCH  19  20
ENDBRANCH  18  19
ENDBRANCH   2  18
TORSDOF 8
