REMARK  Name = ZINC22392893
REMARK  5 active torsions:
REMARK  status: ('A' for Active; 'I' for Inactive)
REMARK    1  A    between atoms: C_1  and  C_2
REMARK    2  A    between atoms: C_3  and  C_25
REMARK    3  A    between atoms: C_7  and  N_11
REMARK    4  A    between atoms: C_14  and  C_17
REMARK    5  A    between atoms: C_17  and  N_19
REMARK                            x       y       z     vdW  Elec       q    Type
REMARK                         _______ _______ _______ _____ _____    ______ ____
ROOT
ATOM      1  N   UNL     1      -0.034   1.158   2.589  0.00  0.00    -0.315 N 
ATOM      2  C   UNL     1      -0.285   2.119   1.506  0.00  0.00    +0.107 C 
ATOM      3  C   UNL     1       0.858   3.139   1.478  0.00  0.00    +0.032 C 
ATOM      4  C   UNL     1       1.002   3.776   2.862  0.00  0.00    +0.080 C 
ATOM      5  C   UNL     1       1.345   2.695   3.889  0.00  0.00    +0.032 C 
ATOM      6  C   UNL     1       0.203   1.669   3.946  0.00  0.00    +0.107 C 
ENDROOT
BRANCH   1  13
ATOM      7  C   UNL     1      -2.890   0.969   2.817  0.00  0.00    +0.045 C 
ATOM      8  C   UNL     1      -2.607  -0.481   2.522  0.00  0.00    -0.028 A 
ATOM      9  C   UNL     1      -3.612  -1.367   2.445  0.00  0.00    -0.008 A 
ATOM     10  S   UNL     1      -2.785  -2.905   2.087  0.00  0.00    -0.074 S 
ATOM     11  C   UNL     1      -1.112  -2.318   2.050  0.00  0.00    +0.114 A 
ATOM     12  C   UNL     1      -1.244  -0.936   2.312  0.00  0.00    +0.051 A 
ATOM     13  C   UNL     1      -0.026  -0.202   2.337  0.00  0.00    +0.133 A 
ATOM     14  N   UNL     1       1.114  -0.836   2.115  0.00  0.00    -0.220 NA
ATOM     15  C   UNL     1       1.162  -2.133   1.871  0.00  0.00    +0.224 A 
ATOM     16  N   UNL     1       0.067  -2.869   1.845  0.00  0.00    -0.228 NA
ATOM     17  C   UNL     1      -5.088  -1.120   2.620  0.00  0.00    +0.052 C 
ENDBRANCH   1  13
BRANCH   4  18
ATOM     18  C   UNL     1       2.102   4.805   2.829  0.00  0.00    +0.241 C 
ATOM     19  O   UNL     1       2.712   5.010   1.797  0.00  0.00    -0.273 OA
BRANCH  18  20
ATOM     20  N   UNL     1       2.406   5.490   3.928  0.00  0.00    -0.159 NA
ATOM     21  C   UNL     1       3.301   6.470   3.875  0.00  0.00    +0.146 C 
ATOM     22  N   UNL     1       4.057   6.801   2.803  0.00  0.00    -0.325 N 
ATOM     23  C   UNL     1       4.997   7.899   2.892  0.00  0.00    +0.114 C 
ATOM     24  C   UNL     1       4.969   8.545   4.293  0.00  0.00    +0.095 C 
ATOM     25  S   UNL     1       3.692   7.521   5.120  0.00  0.00    -0.092 S 
ATOM     26  H   UNL     1       3.969   6.303   1.976  0.00  0.00    +0.148 HD
ENDBRANCH  18  20
ENDBRANCH   4  18
TORSDOF 3
