REMARK  Name = ZINC66199489
REMARK  12 active torsions:
REMARK  status: ('A' for Active; 'I' for Inactive)
REMARK    1  A    between atoms: C_1  and  C_2
REMARK    2  A    between atoms: C_4  and  C_27
REMARK    3  A    between atoms: C_6  and  N_8
REMARK    4  A    between atoms: N_8  and  C_9
REMARK    5  A    between atoms: C_9  and  N_11
REMARK    6  A    between atoms: C_12  and  C_14
REMARK    7  A    between atoms: C_14  and  C_16
REMARK    8  A    between atoms: C_14  and  C_17
REMARK    9  A    between atoms: C_20  and  C_23
REMARK   10  A    between atoms: C_23  and  C_24
REMARK   11  A    between atoms: C_24  and  C_25
REMARK   12  A    between atoms: C_24  and  C_26
REMARK                            x       y       z     vdW  Elec       q    Type
REMARK                         _______ _______ _______ _____ _____    ______ ____
ROOT
ATOM      1  N   UNL     1       0.268  -2.819   4.717  0.00  0.00    -0.267 N 
ATOM      2  C   UNL     1       0.366  -2.156   5.886  0.00  0.00    +0.226 C 
ATOM      3  O   UNL     1       0.350  -0.944   5.899  0.00  0.00    -0.275 OA
ATOM      4  H   UNL     1       0.281  -3.789   4.706  0.00  0.00    +0.157 HD
ENDROOT
BRANCH   1   5
ATOM      5  C   UNL     1       0.151  -2.134   3.562  0.00  0.00    +0.141 C 
ATOM      6  S   UNL     1       0.128  -0.423   3.580  0.00  0.00    -0.018 S 
BRANCH   5   7
ATOM      7  N   UNL     1       0.053  -2.797   2.392  0.00  0.00    -0.297 N 
ATOM      8  H   UNL     1      -0.015  -3.765   2.387  0.00  0.00    +0.154 HD
BRANCH   7  14
ATOM      9  C   UNL     1       1.853   0.833  -0.391  0.00  0.00    +0.044 C 
ATOM     10  C   UNL     1       0.910  -0.325  -0.191  0.00  0.00    -0.048 A 
ATOM     11  C   UNL     1       0.039  -0.690  -1.201  0.00  0.00    +0.006 A 
ATOM     12  C   UNL     1      -0.827  -1.753  -1.021  0.00  0.00    -0.048 A 
ATOM     13  C   UNL     1      -0.825  -2.453   0.169  0.00  0.00    +0.026 A 
ATOM     14  C   UNL     1       0.048  -2.090   1.186  0.00  0.00    +0.033 A 
ATOM     15  C   UNL     1       0.920  -1.025   1.000  0.00  0.00    +0.026 A 
ATOM     16  C   UNL     1      -1.775  -2.147  -2.125  0.00  0.00    +0.044 C 
ENDBRANCH   7  14
ENDBRANCH   5   7
ENDBRANCH   1   5
BRANCH   2  17
ATOM     17  C   UNL     1       0.497  -2.922   7.177  0.00  0.00    +0.102 C 
ATOM     18  C   UNL     1       1.760  -3.784   7.134  0.00  0.00    +0.022 C 
BRANCH  17  19
ATOM     19  C   UNL     1       0.590  -1.954   8.328  0.00  0.00    -0.036 A 
ATOM     20  C   UNL     1       1.619  -1.032   8.375  0.00  0.00    +0.004 A 
ATOM     21  C   UNL     1       1.704  -0.144   9.431  0.00  0.00    +0.004 A 
ATOM     22  C   UNL     1       0.759  -0.177  10.440  0.00  0.00    -0.047 A 
ATOM     23  C   UNL     1      -0.271  -1.097  10.392  0.00  0.00    +0.004 A 
ATOM     24  C   UNL     1      -0.358  -1.983   9.334  0.00  0.00    +0.004 A 
BRANCH  22  25
ATOM     25  C   UNL     1       0.852   0.791  11.591  0.00  0.00    +0.038 C 
BRANCH  25  26
ATOM     26  C   UNL     1       0.073   2.063  11.252  0.00  0.00    -0.013 C 
ATOM     27  C   UNL     1      -1.415   1.731  11.122  0.00  0.00    +0.007 C 
ATOM     28  C   UNL     1       0.270   3.094  12.366  0.00  0.00    +0.007 C 
ENDBRANCH  25  26
ENDBRANCH  22  25
ENDBRANCH  17  19
ENDBRANCH   2  17
TORSDOF 7
