REMARK  Name = ZINC15030592
REMARK  4 active torsions:
REMARK  status: ('A' for Active; 'I' for Inactive)
REMARK    1  A    between atoms: C_6  and  N_7
REMARK    2  A    between atoms: C_11  and  C_13
REMARK    3  A    between atoms: C_13  and  N_14
REMARK    4  A    between atoms: C_24  and  C_27
REMARK                            x       y       z     vdW  Elec       q    Type
REMARK                         _______ _______ _______ _____ _____    ______ ____
ROOT
ATOM      1  C   UNL     1      -0.370   0.677   2.385  0.00  0.00    +0.019 C 
ENDROOT
BRANCH   1   2
ATOM      2  N   UNL     1      -0.683   1.557   1.251  0.00  0.00    +0.386 N 
ATOM      3  C   UNL     1      -0.288   2.916   1.529  0.00  0.00    -0.077 C 
ATOM      4  C   UNL     1      -1.286   3.949   0.965  0.00  0.00    +0.000 C 
ATOM      5  C   UNL     1      -1.783   3.554  -0.441  0.00  0.00    +0.104 C 
ATOM      6  N   UNL     1      -0.730   3.031  -1.276  0.00  0.00    -0.317 N 
ATOM      7  C   UNL     1      -0.706   1.553  -1.189  0.00  0.00    +0.088 C 
ATOM      8  C   UNL     1      -0.022   1.083   0.013  0.00  0.00    -0.059 C 
ATOM      9  C   UNL     1      -0.882   3.451  -2.592  0.00  0.00    +0.121 A 
ATOM     10  C   UNL     1      -0.929   4.811  -2.881  0.00  0.00    +0.044 A 
ATOM     11  C   UNL     1      -1.081   5.214  -4.195  0.00  0.00    +0.017 A 
ATOM     12  C   UNL     1      -1.182   4.240  -5.180  0.00  0.00    +0.073 A 
ATOM     13  C   UNL     1      -1.128   2.908  -4.822  0.00  0.00    +0.125 A 
ATOM     14  N   UNL     1      -0.977   2.553  -3.560  0.00  0.00    -0.240 NA
ATOM     15  H   UNL     1      -1.774   1.552   1.112  0.00  0.00    -0.081 HD
BRANCH  12  16
ATOM     16  C   UNL     1      -1.349   4.633  -6.625  0.00  0.00    +0.419 C 
ATOM     17  F   UNL     1      -0.090   4.769  -7.220  0.00  0.00    -0.166 F 
ATOM     18  F   UNL     1      -2.078   3.646  -7.296  0.00  0.00    -0.166 F 
ATOM     19  F   UNL     1      -2.034   5.851  -6.701  0.00  0.00    -0.166 F 
ENDBRANCH  12  16
ENDBRANCH   1   2
BRANCH   1  24
ATOM     20  N   UNL     1       3.450  -0.593   5.012  0.00  0.00    -0.269 N 
ATOM     21  C   UNL     1       2.932   0.132   4.001  0.00  0.00    +0.310 C 
ATOM     22  O   UNL     1       3.650   0.863   3.347  0.00  0.00    -0.252 OA
ATOM     23  N   UNL     1       1.618   0.047   3.715  0.00  0.00    -0.241 N 
ATOM     24  C   UNL     1       1.100   0.772   2.704  0.00  0.00    +0.204 C 
ATOM     25  O   UNL     1       1.816   1.501   2.052  0.00  0.00    -0.277 OA
ATOM     26  H   UNL     1       2.789  -1.196   5.652  0.00  0.00    +0.156 HD
ATOM     27  H   UNL     1       0.968  -0.615   4.307  0.00  0.00    +0.159 HD
BRANCH  20  33
ATOM     28  C   UNL     1       5.470  -1.726   5.700  0.00  0.00    +0.027 A 
ATOM     29  C   UNL     1       6.833  -1.715   5.929  0.00  0.00    +0.051 A 
ATOM     30  C   UNL     1       7.564  -0.558   5.717  0.00  0.00    +0.166 A 
ATOM     31  C   UNL     1       6.925   0.596   5.268  0.00  0.00    +0.168 A 
ATOM     32  C   UNL     1       5.561   0.583   5.034  0.00  0.00    +0.073 A 
ATOM     33  C   UNL     1       4.832  -0.579   5.248  0.00  0.00    +0.038 A 
ATOM     34  O   UNL     1       7.855   1.587   5.140  0.00  0.00    -0.453 OA
ATOM     35  C   UNL     1       8.994   1.148   5.902  0.00  0.00    +0.466 C 
ATOM     36  O   UNL     1       8.895  -0.288   5.870  0.00  0.00    -0.453 OA
ENDBRANCH  20  33
ENDBRANCH   1  24
TORSDOF 4
