REMARK  Name = ZINC01867698
REMARK  10 active torsions:
REMARK  status: ('A' for Active; 'I' for Inactive)
REMARK    1  A    between atoms: C_1  and  C_2
REMARK    2  A    between atoms: C_2  and  O_3
REMARK    3  A    between atoms: O_3  and  C_4
REMARK    4  A    between atoms: C_7  and  O_10
REMARK    5  A    between atoms: O_10  and  C_11
REMARK    6  A    between atoms: C_13  and  N_20
REMARK    7  A    between atoms: C_15  and  N_17
REMARK    8  A    between atoms: C_21  and  C_23
REMARK    9  A    between atoms: C_29  and  C_38
REMARK   10  A    between atoms: C_32  and  C_34
REMARK                            x       y       z     vdW  Elec       q    Type
REMARK                         _______ _______ _______ _____ _____    ______ ____
ROOT
ATOM      1  N   UNL     1      -1.185   2.092   0.023  0.00  0.00    -0.281 N 
ATOM      2  C   UNL     1      -1.136   3.426   0.208  0.00  0.00    +0.253 C 
ATOM      3  O   UNL     1      -0.066   3.977   0.386  0.00  0.00    -0.270 OA
ATOM      4  H   UNL     1      -2.157   1.581  -0.048  0.00  0.00    +0.155 HD
ENDROOT
BRANCH   2   5
ATOM      5  C   UNL     1      -2.374   4.214   0.197  0.00  0.00    +0.096 A 
ATOM      6  C   UNL     1      -3.687   3.720  -0.002  0.00  0.00    +0.149 A 
ATOM      7  N   UNL     1      -4.515   4.726   0.060  0.00  0.00    -0.177 NA
ATOM      8  N   UNL     1      -3.794   5.899   0.288  0.00  0.00    -0.238 N 
ATOM      9  C   UNL     1      -2.482   5.588   0.372  0.00  0.00    +0.130 A 
ATOM     10  N   UNL     1      -1.463   6.490   0.592  0.00  0.00    -0.321 N 
ATOM     11  C   UNL     1      -1.990   7.747   1.144  0.00  0.00    +0.111 C 
ATOM     12  C   UNL     1      -3.153   8.240   0.278  0.00  0.00    +0.063 C 
ATOM     13  C   UNL     1      -4.327   7.261   0.422  0.00  0.00    +0.215 C 
ATOM     14  H   UNL     1      -0.383   6.378   0.412  0.00  0.00    +0.148 HD
BRANCH  11  15
ATOM     15  C   UNL     1      -0.898   8.786   1.157  0.00  0.00    +0.010 A 
ATOM     16  C   UNL     1      -0.612   9.712   2.104  0.00  0.00    +0.013 A 
ATOM     17  C   UNL     1       0.450  10.573   1.901  0.00  0.00    +0.008 A 
ATOM     18  C   UNL     1       1.174  10.466   0.760  0.00  0.00    +0.045 A 
ATOM     19  S   UNL     1       0.358   9.112  -0.069  0.00  0.00    -0.100 S 
ENDBRANCH  11  15
BRANCH  13  20
ATOM     20  C   UNL     1      -5.359   7.523  -0.678  0.00  0.00    +0.412 C 
ATOM     21  F   UNL     1      -4.760   7.347  -1.930  0.00  0.00    -0.168 F 
ATOM     22  F   UNL     1      -6.425   6.628  -0.540  0.00  0.00    -0.168 F 
ATOM     23  F   UNL     1      -5.834   8.835  -0.568  0.00  0.00    -0.168 F 
ENDBRANCH  13  20
ENDBRANCH   2   5
BRANCH   1  26
ATOM     24  C   UNL     1       1.239  -0.660   0.326  0.00  0.00    +0.132 A 
ATOM     25  C   UNL     1       0.064   0.068   0.434  0.00  0.00    +0.069 A 
ATOM     26  C   UNL     1      -0.000   1.356  -0.078  0.00  0.00    +0.039 A 
ATOM     27  C   UNL     1       1.113   1.912  -0.697  0.00  0.00    +0.056 A 
ATOM     28  C   UNL     1       2.281   1.183  -0.803  0.00  0.00    +0.131 A 
ATOM     29  C   UNL     1       2.347  -0.100  -0.293  0.00  0.00    +0.079 A 
BRANCH  28  30
ATOM     30  N   UNL     1       3.465   1.777  -1.464  0.00  0.00    +0.057 N 
ATOM     31  O   UNL     1       4.496   1.135  -1.558  0.00  0.00    -0.126 OA
ATOM     32  O   UNL     1       3.408   2.907  -1.914  0.00  0.00    -0.126 OA
ENDBRANCH  28  30
BRANCH  24  33
ATOM     33  O   UNL     1       1.305  -1.922   0.826  0.00  0.00    -0.456 OA
BRANCH  33  37
ATOM     34  C   UNL     1       4.950  -3.857   0.731  0.00  0.00    +0.121 A 
ATOM     35  C   UNL     1       4.720  -2.857   1.663  0.00  0.00    +0.049 A 
ATOM     36  C   UNL     1       3.501  -2.209   1.695  0.00  0.00    +0.050 A 
ATOM     37  C   UNL     1       2.505  -2.559   0.795  0.00  0.00    +0.129 A 
ATOM     38  C   UNL     1       2.733  -3.564  -0.135  0.00  0.00    +0.050 A 
ATOM     39  C   UNL     1       3.954  -4.208  -0.169  0.00  0.00    +0.049 A 
BRANCH  34  40
ATOM     40  O   UNL     1       6.150  -4.495   0.699  0.00  0.00    -0.492 OA
BRANCH  40  42
ATOM     41  C   UNL     1       7.721  -6.114  -0.169  0.00  0.00    +0.048 C 
ATOM     42  C   UNL     1       6.317  -5.515  -0.287  0.00  0.00    +0.225 C 
ENDBRANCH  40  42
ENDBRANCH  34  40
ENDBRANCH  33  37
ENDBRANCH  24  33
ENDBRANCH   1  26
TORSDOF 9
