REMARK  Name = ZINC13511129
REMARK  9 active torsions:
REMARK  status: ('A' for Active; 'I' for Inactive)
REMARK    1  A    between atoms: C_1  and  C_2
REMARK    2  A    between atoms: C_2  and  C_3
REMARK    3  A    between atoms: C_2  and  C_4
REMARK    4  A    between atoms: C_2  and  C_5
REMARK    5  A    between atoms: C_13  and  C_25
REMARK    6  A    between atoms: C_15  and  C_21
REMARK    7  A    between atoms: C_15  and  C_23
REMARK    8  A    between atoms: C_16  and  N_20
REMARK    9  A    between atoms: C_17  and  C_18
REMARK                            x       y       z     vdW  Elec       q    Type
REMARK                         _______ _______ _______ _____ _____    ______ ____
ROOT
ATOM      1  C   UNL     1      -2.853   4.283   2.623  0.00  0.00    -0.001 C 
ATOM      2  C   UNL     1      -3.234   5.247   1.491  0.00  0.00    +0.031 C 
ATOM      3  C   UNL     1      -2.896   4.576   0.184  0.00  0.00    -0.021 C 
ATOM      4  C   UNL     1      -1.867   3.756   0.091  0.00  0.00    -0.029 C 
ATOM      5  C   UNL     1      -0.928   3.462   1.223  0.00  0.00    +0.031 C 
ATOM      6  C   UNL     1      -1.348   4.033   2.556  0.00  0.00    +0.013 C 
ATOM      7  C   UNL     1      -0.712   1.950   1.285  0.00  0.00    +0.066 C 
ATOM      8  C   UNL     1      -0.034   1.494  -0.008  0.00  0.00    +0.188 C 
ATOM      9  C   UNL     1      -0.750   2.008  -1.220  0.00  0.00    +0.054 C 
ATOM     10  C   UNL     1      -1.598   3.067  -1.199  0.00  0.00    +0.074 C 
ENDROOT
BRANCH   7  11
ATOM     11  C   UNL     1      -2.040   1.254   1.431  0.00  0.00    -0.041 A 
ATOM     12  C   UNL     1      -2.509   0.915   2.686  0.00  0.00    +0.004 A 
ATOM     13  C   UNL     1      -3.730   0.281   2.820  0.00  0.00    +0.000 A 
ATOM     14  C   UNL     1      -4.478  -0.023   1.698  0.00  0.00    +0.000 A 
ATOM     15  C   UNL     1      -4.007   0.311   0.442  0.00  0.00    +0.000 A 
ATOM     16  C   UNL     1      -2.788   0.949   0.308  0.00  0.00    +0.004 A 
ENDBRANCH   7  11
BRANCH   1  18
ATOM     17  C   UNL     1      -2.472   6.233   4.137  0.00  0.00    +0.011 C 
ATOM     18  C   UNL     1      -3.214   4.905   3.973  0.00  0.00    -0.035 C 
ATOM     19  C   UNL     1      -4.722   5.153   4.035  0.00  0.00    +0.011 C 
ATOM     20  C   UNL     1      -2.807   3.952   5.099  0.00  0.00    +0.011 C 
ENDBRANCH   1  18
BRANCH   9  21
ATOM     21  N   UNL     1      -0.537   1.375  -2.412  0.00  0.00    -0.358 N 
ATOM     22  H   UNL     1      -1.048   1.728  -3.321  0.00  0.00    +0.142 HD
ATOM     23  H   UNL     1       0.144   0.514  -2.464  0.00  0.00    +0.142 HD
ENDBRANCH   9  21
BRANCH  10  24
ATOM     24  C   UNL     1      -2.227   3.516  -2.404  0.00  0.00    +0.101 C 
ATOM     25  N   UNL     1      -2.726   3.872  -3.361  0.00  0.00    -0.191 NA
ENDBRANCH  10  24
BRANCH   8  26
ATOM     26  C   UNL     1      -0.018   0.023  -0.048  0.00  0.00    +0.091 C 
ATOM     27  N   UNL     1      -0.005  -1.113  -0.080  0.00  0.00    -0.194 NA
ENDBRANCH   8  26
BRANCH   8  28
ATOM     28  C   UNL     1       1.352   1.990  -0.024  0.00  0.00    +0.091 C 
ATOM     29  N   UNL     1       2.422   2.372  -0.035  0.00  0.00    -0.194 NA
ENDBRANCH   8  28
TORSDOF 6
