REMARK  Name = ZINC63139140
REMARK  6 active torsions:
REMARK  status: ('A' for Active; 'I' for Inactive)
REMARK    1  A    between atoms: C_1  and  C_2
REMARK    2  A    between atoms: C_2  and  C_3
REMARK    3  A    between atoms: C_2  and  C_4
REMARK    4  A    between atoms: C_7  and  C_10
REMARK    5  A    between atoms: N_29  and  C_32
REMARK    6  A    between atoms: C_32  and  C_33
REMARK                            x       y       z     vdW  Elec       q    Type
REMARK                         _______ _______ _______ _____ _____    ______ ____
ROOT
ATOM      1  C   UNL     1       2.707  -1.868  -4.752  0.00  0.00    +0.133 C 
ATOM      2  C   UNL     1       3.864  -0.926  -5.095  0.00  0.00    +0.131 C 
ATOM      3  C   UNL     1       4.686  -1.616  -6.176  0.00  0.00    -0.034 C 
ATOM      4  C   UNL     1       4.750  -0.770  -7.197  0.00  0.00    -0.001 A 
ATOM      5  C   UNL     1       5.457  -0.841  -8.486  0.00  0.00    +0.010 A 
ATOM      6  C   UNL     1       5.291   0.220  -9.320  0.00  0.00    +0.001 A 
ATOM      7  C   UNL     1       4.501   1.330  -9.004  0.00  0.00    +0.002 A 
ATOM      8  C   UNL     1       3.820   1.481  -7.841  0.00  0.00    +0.026 A 
ATOM      9  C   UNL     1       3.921   0.433  -6.880  0.00  0.00    +0.043 A 
ATOM     10  N   UNL     1       3.393   0.332  -5.675  0.00  0.00    -0.375 N 
ATOM     11  C   UNL     1       5.200  -3.027  -6.024  0.00  0.00    +0.065 C 
ATOM     12  C   UNL     1       4.001  -3.887  -5.583  0.00  0.00    +0.167 C 
ATOM     13  N   UNL     1       3.276  -3.213  -4.511  0.00  0.00    -0.279 N 
ATOM     14  C   UNL     1       3.100  -3.760  -3.302  0.00  0.00    +0.234 C 
ATOM     15  O   UNL     1       2.501  -3.110  -2.472  0.00  0.00    -0.274 OA
ATOM     16  C   UNL     1       3.590  -5.112  -2.903  0.00  0.00    +0.204 C 
ATOM     17  N   UNL     1       4.283  -5.787  -3.988  0.00  0.00    -0.287 N 
ATOM     18  C   UNL     1       4.475  -5.247  -5.190  0.00  0.00    +0.237 C 
ATOM     19  O   UNL     1       5.068  -5.903  -6.019  0.00  0.00    -0.274 OA
ATOM     20  H   UNL     1       2.797   0.967  -5.246  0.00  0.00    +0.160 HD
ENDROOT
BRANCH   1  24
ATOM     21  C   UNL     1       0.708  -0.486  -1.239  0.00  0.00    -0.045 A 
ATOM     22  C   UNL     1       2.068  -0.285  -1.385  0.00  0.00    +0.004 A 
ATOM     23  C   UNL     1       2.715  -0.732  -2.522  0.00  0.00    +0.006 A 
ATOM     24  C   UNL     1       2.002  -1.381  -3.513  0.00  0.00    -0.025 A 
ATOM     25  C   UNL     1       0.642  -1.584  -3.366  0.00  0.00    +0.006 A 
ATOM     26  C   UNL     1      -0.004  -1.140  -2.227  0.00  0.00    +0.004 A 
BRANCH  21  28
ATOM     27  C   UNL     1       0.616  -0.668   1.232  0.00  0.00    +0.012 C 
ATOM     28  C   UNL     1       0.003   0.002   0.001  0.00  0.00    +0.013 C 
ATOM     29  C   UNL     1       0.161   1.519   0.113  0.00  0.00    +0.012 C 
ENDBRANCH  21  28
ENDBRANCH   1  24
BRANCH  17  30
ATOM     30  C   UNL     1       4.802  -7.135  -3.744  0.00  0.00    +0.143 C 
BRANCH  30  31
ATOM     31  C   UNL     1       3.749  -8.152  -4.102  0.00  0.00    -0.030 A 
ATOM     32  C   UNL     1       2.842  -8.573  -3.147  0.00  0.00    +0.008 A 
ATOM     33  C   UNL     1       1.875  -9.505  -3.475  0.00  0.00    +0.038 A 
ATOM     34  C   UNL     1       1.815 -10.016  -4.760  0.00  0.00    +0.123 A 
ATOM     35  C   UNL     1       2.724  -9.594  -5.715  0.00  0.00    +0.038 A 
ATOM     36  C   UNL     1       3.686  -8.658  -5.387  0.00  0.00    +0.008 A 
ATOM     37  F   UNL     1       0.871 -10.928  -5.081  0.00  0.00    -0.205 F 
ENDBRANCH  30  31
ENDBRANCH  17  30
TORSDOF 4
