REMARK  Name = ZINC36642468
REMARK  9 active torsions:
REMARK  status: ('A' for Active; 'I' for Inactive)
REMARK    1  A    between atoms: C_1  and  C_2
REMARK    2  A    between atoms: C_2  and  N_3
REMARK    3  A    between atoms: N_3  and  C_4
REMARK    4  A    between atoms: N_3  and  C_6
REMARK    5  A    between atoms: C_4  and  C_5
REMARK    6  A    between atoms: C_6  and  C_7
REMARK    7  A    between atoms: C_7  and  N_8
REMARK    8  A    between atoms: C_19  and  C_21
REMARK    9  A    between atoms: C_23  and  C_33
REMARK                            x       y       z     vdW  Elec       q    Type
REMARK                         _______ _______ _______ _____ _____    ______ ____
ROOT
ATOM      1  N   UNL     1       0.510  -4.123  -2.436  0.00  0.00    -0.249 N 
ATOM      2  C   UNL     1      -0.508  -4.661  -3.207  0.00  0.00    +0.168 A 
ATOM      3  N   UNL     1      -1.688  -4.157  -3.480  0.00  0.00    -0.224 NA
ATOM      4  C   UNL     1      -2.590  -4.797  -4.255  0.00  0.00    +0.080 A 
ATOM      5  C   UNL     1      -3.887  -4.368  -4.622  0.00  0.00    +0.030 A 
ATOM      6  C   UNL     1      -4.681  -5.146  -5.422  0.00  0.00    +0.017 A 
ATOM      7  C   UNL     1      -4.248  -6.376  -5.899  0.00  0.00    +0.019 A 
ATOM      8  C   UNL     1      -2.985  -6.827  -5.559  0.00  0.00    +0.032 A 
ATOM      9  C   UNL     1      -2.182  -6.054  -4.758  0.00  0.00    +0.042 A 
ATOM     10  S   UNL     1      -0.544  -6.215  -4.090  0.00  0.00    -0.052 S 
ATOM     11 BR   UNL     1      -5.372  -7.424  -7.001  0.00  0.00    -0.050 Br
ATOM     12  C   UNL     1       1.665  -4.800  -2.278  0.00  0.00    +0.266 C 
ATOM     13  O   UNL     1       1.843  -5.843  -2.871  0.00  0.00    -0.271 OA
ENDROOT
BRANCH  12  14
ATOM     14  C   UNL     1       2.736  -4.260  -1.365  0.00  0.00    +0.299 C 
ATOM     15  C   UNL     1       3.698  -3.371  -2.165  0.00  0.00    +0.220 C 
ATOM     16  O   UNL     1       4.291  -4.167  -3.197  0.00  0.00    -0.481 OA
ATOM     17  C   UNL     1       4.758  -5.393  -2.832  0.00  0.00    +0.163 A 
ATOM     18  C   UNL     1       5.649  -6.057  -3.662  0.00  0.00    +0.049 A 
ATOM     19  C   UNL     1       6.129  -7.303  -3.306  0.00  0.00    +0.004 A 
ATOM     20  C   UNL     1       5.723  -7.890  -2.122  0.00  0.00    +0.004 A 
ATOM     21  C   UNL     1       4.837  -7.233  -1.290  0.00  0.00    +0.049 A 
ATOM     22  C   UNL     1       4.352  -5.982  -1.640  0.00  0.00    +0.163 A 
ATOM     23  O   UNL     1       3.485  -5.344  -0.806  0.00  0.00    -0.472 OA
ATOM     24  C   UNL     1       2.927  -2.207  -2.790  0.00  0.00    +0.056 C 
ENDBRANCH  12  14
BRANCH   1  25
ATOM     25  C   UNL     1       0.331  -2.820  -1.792  0.00  0.00    +0.097 C 
BRANCH  25  26
ATOM     26  C   UNL     1      -0.356  -3.010  -0.438  0.00  0.00    -0.059 C 
BRANCH  26  27
ATOM     27  N   UNL     1      -0.419  -1.721   0.264  0.00  0.00    +0.380 N 
ATOM     28  H   UNL     1       0.508  -1.328   0.331  0.00  0.00    -0.082 HD
BRANCH  27  30
ATOM     29  C   UNL     1      -1.256   0.579   0.182  0.00  0.00    -0.017 C 
ATOM     30  C   UNL     1      -1.289  -0.800  -0.480  0.00  0.00    -0.082 C 
ENDBRANCH  27  30
BRANCH  27  31
ATOM     31  C   UNL     1      -0.962  -1.925   1.614  0.00  0.00    -0.082 C 
ATOM     32  C   UNL     1       0.029  -2.744   2.444  0.00  0.00    -0.017 C 
ENDBRANCH  27  31
ENDBRANCH  26  27
ENDBRANCH  25  26
ENDBRANCH   1  25
TORSDOF 6
