REMARK  Name = ZINC59564713
REMARK  8 active torsions:
REMARK  status: ('A' for Active; 'I' for Inactive)
REMARK    1  A    between atoms: C_1  and  C_2
REMARK    2  A    between atoms: C_3  and  N_15
REMARK    3  A    between atoms: N_6  and  C_9
REMARK    4  A    between atoms: N_7  and  C_8
REMARK    5  A    between atoms: C_16  and  C_18
REMARK    6  A    between atoms: C_18  and  S_19
REMARK    7  A    between atoms: S_19  and  C_20
REMARK    8  A    between atoms: N_29  and  C_30
REMARK                            x       y       z     vdW  Elec       q    Type
REMARK                         _______ _______ _______ _____ _____    ______ ____
ROOT
ATOM      1  C   UNL     1       0.974   1.510  -3.868  0.00  0.00    +0.173 C 
ENDROOT
BRANCH   1   3
ATOM      2  N   UNL     1       0.916   2.165  -1.483  0.00  0.00    -0.279 N 
ATOM      3  C   UNL     1       1.251   1.246  -2.410  0.00  0.00    +0.228 C 
ATOM      4  O   UNL     1       1.776   0.206  -2.071  0.00  0.00    -0.275 OA
ATOM      5  H   UNL     1       0.561   3.025  -1.759  0.00  0.00    +0.155 HD
BRANCH   2   8
ATOM      6  C   UNL     1      -1.345   2.184   0.591  0.00  0.00    +0.067 C 
ATOM      7  C   UNL     1       0.111   1.876   0.828  0.00  0.00    +0.059 A 
ATOM      8  C   UNL     1       1.081   1.877  -0.114  0.00  0.00    +0.121 A 
ATOM      9  C   UNL     1       2.335   1.525   0.554  0.00  0.00    +0.293 A 
ATOM     10  O   UNL     1       3.431   1.425   0.033  0.00  0.00    -0.264 OA
ATOM     11  N   UNL     1       2.045   1.333   1.857  0.00  0.00    -0.216 N 
ATOM     12  N   UNL     1       0.674   1.553   2.034  0.00  0.00    -0.282 N 
ATOM     13  C   UNL     1      -0.045   1.451   3.307  0.00  0.00    +0.171 C 
BRANCH  11  14
ATOM     14  C   UNL     1       2.955   0.979   2.858  0.00  0.00    +0.067 A 
ATOM     15  C   UNL     1       2.653  -0.048   3.743  0.00  0.00    +0.028 A 
ATOM     16  C   UNL     1       3.555  -0.394   4.730  0.00  0.00    +0.002 A 
ATOM     17  C   UNL     1       4.758   0.280   4.838  0.00  0.00    +0.000 A 
ATOM     18  C   UNL     1       5.061   1.303   3.958  0.00  0.00    +0.002 A 
ATOM     19  C   UNL     1       4.167   1.651   2.965  0.00  0.00    +0.028 A 
ENDBRANCH  11  14
ENDBRANCH   2   8
ENDBRANCH   1   3
BRANCH   1  20
ATOM     20  S   UNL     1       1.536   0.096  -4.856  0.00  0.00    -0.082 S 
BRANCH  20  21
ATOM     21  C   UNL     1       1.148   0.552  -6.513  0.00  0.00    +0.151 C 
ATOM     22  N   UNL     1       0.589   1.679  -6.845  0.00  0.00    -0.347 N 
ATOM     23  C   UNL     1       0.432   1.683  -8.303  0.00  0.00    +0.107 C 
ATOM     24  C   UNL     1       1.220   2.835  -8.919  0.00  0.00    +0.045 C 
ATOM     25  C   UNL     1       0.650   4.166  -8.423  0.00  0.00    +0.004 C 
ATOM     26  C   UNL     1      -0.824   4.269  -8.819  0.00  0.00    +0.000 C 
ATOM     27  C   UNL     1      -1.607   3.118  -8.183  0.00  0.00    +0.004 C 
ATOM     28  C   UNL     1      -1.044   1.784  -8.678  0.00  0.00    +0.045 C 
ATOM     29  N   UNL     1       0.985   0.391  -8.747  0.00  0.00    -0.209 NA
ATOM     30  N   UNL     1       1.404  -0.235  -7.605  0.00  0.00    -0.213 N 
ATOM     31  H   UNL     1       1.755   0.528  -9.384  0.00  0.00    +0.147 HD
ATOM     32  H   UNL     1       0.323   2.388  -6.238  0.00  0.00    +0.163 HD
BRANCH  30  33
ATOM     33  C   UNL     1       2.003  -1.498  -7.558  0.00  0.00    +0.052 A 
ATOM     34  C   UNL     1       1.541  -2.455  -6.664  0.00  0.00    +0.025 A 
ATOM     35  C   UNL     1       2.135  -3.701  -6.621  0.00  0.00    +0.002 A 
ATOM     36  C   UNL     1       3.188  -3.997  -7.467  0.00  0.00    +0.000 A 
ATOM     37  C   UNL     1       3.650  -3.046  -8.358  0.00  0.00    +0.002 A 
ATOM     38  C   UNL     1       3.058  -1.800  -8.410  0.00  0.00    +0.025 A 
ENDBRANCH  30  33
ENDBRANCH  20  21
ENDBRANCH   1  20
TORSDOF 6
