REMARK  Name = ZINC38793183
REMARK  4 active torsions:
REMARK  status: ('A' for Active; 'I' for Inactive)
REMARK    1  A    between atoms: C_4  and  C_10
REMARK    2  A    between atoms: C_16  and  C_18
REMARK    3  A    between atoms: C_22  and  C_27
REMARK    4  A    between atoms: C_27  and  C_28
REMARK                            x       y       z     vdW  Elec       q    Type
REMARK                         _______ _______ _______ _____ _____    ______ ____
ROOT
ATOM      1  C   UNL     1       4.185   3.110  -0.022  0.00  0.00    -0.043 C 
ATOM      2  C   UNL     1       3.304   4.100  -0.105  0.00  0.00    -0.004 C 
ATOM      3  C   UNL     1       3.695   5.551  -0.130  0.00  0.00    +0.135 C 
ATOM      4  N   UNL     1       5.118   5.673   0.217  0.00  0.00    -0.296 N 
ATOM      5  C   UNL     1       6.050   4.714  -0.401  0.00  0.00    +0.113 C 
ATOM      6  C   UNL     1       5.669   3.310   0.079  0.00  0.00    +0.054 C 
ATOM      7  C   UNL     1       5.554   6.625   1.066  0.00  0.00    +0.237 C 
ATOM      8  O   UNL     1       6.734   6.703   1.335  0.00  0.00    -0.274 OA
ENDROOT
BRANCH   1  12
ATOM      9  C   UNL     1       6.206  -0.914   0.559  0.00  0.00    +0.020 A 
ATOM     10  C   UNL     1       5.797   0.378   0.412  0.00  0.00    +0.013 A 
ATOM     11  C   UNL     1       4.426   0.622   0.168  0.00  0.00    +0.022 A 
ATOM     12  C   UNL     1       3.696   1.788  -0.024  0.00  0.00    -0.015 C 
ATOM     13  C   UNL     1       2.266   1.342  -0.236  0.00  0.00    +0.150 C 
ATOM     14  N   UNL     1       2.281  -0.121  -0.146  0.00  0.00    -0.365 N 
ATOM     15  C   UNL     1       3.509  -0.530   0.084  0.00  0.00    +0.135 A 
ATOM     16  N   UNL     1       4.017  -1.771   0.244  0.00  0.00    -0.238 NA
ATOM     17  C   UNL     1       5.291  -1.963   0.469  0.00  0.00    +0.113 A 
ATOM     18  H   UNL     1       1.506  -0.697  -0.240  0.00  0.00    +0.161 HD
ENDBRANCH   1  12
BRANCH   7  19
ATOM     19  C   UNL     1       4.574   7.591   1.681  0.00  0.00    +0.169 C 
ATOM     20  C   UNL     1       3.848   6.894   2.831  0.00  0.00    +0.101 C 
ATOM     21  S   UNL     1       2.848   8.140   3.706  0.00  0.00    -0.145 S 
ATOM     22  C   UNL     1       4.114   9.318   4.268  0.00  0.00    +0.136 C 
ATOM     23  C   UNL     1       5.089   9.555   3.150  0.00  0.00    +0.227 C 
ATOM     24  O   UNL     1       5.756  10.566   3.211  0.00  0.00    -0.275 OA
ATOM     25  N   UNL     1       5.290   8.770   2.113  0.00  0.00    -0.302 N 
ATOM     26  H   UNL     1       6.036   9.025   1.548  0.00  0.00    +0.150 HD
BRANCH  22  27
ATOM     27  C   UNL     1       3.448  10.639   4.659  0.00  0.00    +0.058 C 
BRANCH  27  28
ATOM     28  C   UNL     1       2.554  10.417   5.852  0.00  0.00    -0.046 A 
ATOM     29  C   UNL     1       1.230  10.064   5.666  0.00  0.00    +0.006 A 
ATOM     30  C   UNL     1       0.409   9.860   6.759  0.00  0.00    +0.038 A 
ATOM     31  C   UNL     1       0.913  10.008   8.040  0.00  0.00    +0.123 A 
ATOM     32  C   UNL     1       2.239  10.362   8.225  0.00  0.00    +0.038 A 
ATOM     33  C   UNL     1       3.060  10.560   7.130  0.00  0.00    +0.006 A 
ATOM     34  F   UNL     1       0.112   9.809   9.109  0.00  0.00    -0.205 F 
ENDBRANCH  27  28
ENDBRANCH  22  27
ENDBRANCH   7  19
TORSDOF 4
