REMARK  Name = ZINC64061445
REMARK  10 active torsions:
REMARK  status: ('A' for Active; 'I' for Inactive)
REMARK    1  A    between atoms: C_1  and  C_2
REMARK    2  A    between atoms: C_7  and  N_8
REMARK    3  A    between atoms: C_10  and  C_24
REMARK    4  A    between atoms: C_12  and  C_15
REMARK    5  A    between atoms: C_18  and  O_22
REMARK    6  A    between atoms: O_22  and  C_23
REMARK    7  A    between atoms: C_24  and  N_25
REMARK    8  A    between atoms: N_25  and  C_26
REMARK    9  A    between atoms: N_25  and  C_27
REMARK   10  A    between atoms: C_27  and  C_28
REMARK                            x       y       z     vdW  Elec       q    Type
REMARK                         _______ _______ _______ _____ _____    ______ ____
ROOT
ATOM      1  N   UNL     1       1.818   0.466   3.905  0.00  0.00    -0.266 N 
ATOM      2  C   UNL     1       0.473   0.138   4.404  0.00  0.00    +0.131 C 
ATOM      3  C   UNL     1       0.294   0.981   5.690  0.00  0.00    +0.045 C 
ATOM      4  C   UNL     1       1.772   1.303   6.045  0.00  0.00    +0.109 C 
ATOM      5  N   UNL     1       2.389   1.424   4.702  0.00  0.00    -0.232 NA
ATOM      6  H   UNL     1       2.242   2.347   4.321  0.00  0.00    +0.145 HD
ENDROOT
BRANCH   1  13
ATOM      7  C   UNL     1       2.778   2.183   1.850  0.00  0.00    +0.046 C 
ATOM      8  C   UNL     1       2.907   0.684   1.763  0.00  0.00    -0.028 A 
ATOM      9  C   UNL     1       3.511   0.105   0.664  0.00  0.00    +0.005 A 
ATOM     10  C   UNL     1       3.630  -1.270   0.582  0.00  0.00    +0.000 A 
ATOM     11  C   UNL     1       3.145  -2.070   1.601  0.00  0.00    +0.002 A 
ATOM     12  C   UNL     1       2.540  -1.498   2.702  0.00  0.00    +0.025 A 
ATOM     13  C   UNL     1       2.424  -0.116   2.790  0.00  0.00    +0.047 A 
ENDBRANCH   1  13
BRANCH   4  14
ATOM     14  C   UNL     1       1.872   2.600   6.807  0.00  0.00    -0.026 A 
ATOM     15  C   UNL     1       1.822   3.804   6.130  0.00  0.00    +0.009 A 
ATOM     16  C   UNL     1       1.914   4.995   6.825  0.00  0.00    +0.049 A 
ATOM     17  C   UNL     1       2.057   4.982   8.204  0.00  0.00    +0.155 A 
ATOM     18  C   UNL     1       2.107   3.771   8.884  0.00  0.00    +0.165 A 
ATOM     19  C   UNL     1       2.009   2.583   8.183  0.00  0.00    +0.047 A 
ATOM     20  F   UNL     1       2.247   3.755  10.227  0.00  0.00    -0.202 F 
BRANCH  17  21
ATOM     21  O   UNL     1       2.149   6.152   8.890  0.00  0.00    -0.492 OA
ATOM     22  C   UNL     1       2.091   7.358   8.126  0.00  0.00    +0.277 C 
ENDBRANCH  17  21
ENDBRANCH   4  14
BRANCH   3  23
ATOM     23  C   UNL     1      -0.372   0.162   6.797  0.00  0.00    +0.091 C 
BRANCH  23  24
ATOM     24  N   UNL     1      -1.752  -0.158   6.407  0.00  0.00    -0.298 NA
ATOM     25  C   UNL     1      -2.572   1.057   6.329  0.00  0.00    +0.105 C 
BRANCH  24  26
ATOM     26  C   UNL     1      -2.346  -1.137   7.327  0.00  0.00    +0.156 C 
BRANCH  26  27
ATOM     27  C   UNL     1      -1.789  -2.506   7.033  0.00  0.00    +0.099 A 
ATOM     28  N   UNL     1      -1.307  -2.907   5.867  0.00  0.00    -0.349 N 
ATOM     29  C   UNL     1      -0.904  -4.189   5.996  0.00  0.00    +0.101 A 
ATOM     30  C   UNL     1      -1.150  -4.562   7.267  0.00  0.00    +0.101 A 
ATOM     31  N   UNL     1      -1.696  -3.502   7.899  0.00  0.00    -0.349 N 
ATOM     32  H   UNL     1      -1.975  -3.476   8.828  0.00  0.00    +0.166 HD
ATOM     33  H   UNL     1      -1.252  -2.372   5.060  0.00  0.00    +0.166 HD
ENDBRANCH  26  27
ENDBRANCH  24  26
ENDBRANCH  23  24
ENDBRANCH   3  23
TORSDOF 7
