REMARK  Name = ZINC39909750
REMARK  5 active torsions:
REMARK  status: ('A' for Active; 'I' for Inactive)
REMARK    1  A    between atoms: C_1  and  C_2
REMARK    2  A    between atoms: C_5  and  S_8
REMARK    3  A    between atoms: S_8  and  N_11
REMARK    4  A    between atoms: N_11  and  N_12
REMARK    5  A    between atoms: C_16  and  C_17
REMARK                            x       y       z     vdW  Elec       q    Type
REMARK                         _______ _______ _______ _____ _____    ______ ____
ROOT
ATOM      1  N   UNL     1       2.500  -4.622   1.014  0.00  0.00    -0.167 N 
ATOM      2  C   UNL     1       3.168  -3.483   0.925  0.00  0.00    +0.273 C 
ATOM      3  O   UNL     1       3.065  -2.754  -0.042  0.00  0.00    -0.268 OA
ATOM      4  C   UNL     1       4.050  -3.145   2.071  0.00  0.00    +0.078 C 
ATOM      5  C   UNL     1       4.859  -2.043   2.265  0.00  0.00    +0.026 C 
ATOM      6  S   UNL     1       3.776  -4.557   3.132  0.00  0.00    -0.060 S 
ATOM      7  C   UNL     1       2.613  -5.425   2.091  0.00  0.00    +0.137 C 
ATOM      8  S   UNL     1       1.832  -6.919   2.387  0.00  0.00    -0.026 S 
ENDROOT
BRANCH   5   9
ATOM      9  C   UNL     1       5.613  -1.927   3.434  0.00  0.00    -0.018 C 
ATOM     10  C   UNL     1       6.470  -0.883   3.785  0.00  0.00    +0.003 A 
ATOM     11  C   UNL     1       6.835   0.313   3.131  0.00  0.00    +0.010 A 
ATOM     12  C   UNL     1       7.712   1.163   3.723  0.00  0.00    +0.001 A 
ATOM     13  C   UNL     1       8.270   0.886   4.976  0.00  0.00    +0.002 A 
ATOM     14  C   UNL     1       7.966  -0.241   5.661  0.00  0.00    +0.026 A 
ATOM     15  C   UNL     1       7.055  -1.181   5.106  0.00  0.00    +0.043 A 
ATOM     16  N   UNL     1       6.604  -2.329   5.561  0.00  0.00    -0.380 N 
ATOM     17  C   UNL     1       5.669  -2.903   4.588  0.00  0.00    +0.149 C 
ATOM     18  H   UNL     1       6.848  -2.731   6.409  0.00  0.00    +0.160 HD
ENDBRANCH   5   9
BRANCH   1  19
ATOM     19  N   UNL     1       1.651  -4.999  -0.034  0.00  0.00    -0.100 NA
ATOM     20  H   UNL     1       1.993  -5.536  -0.767  0.00  0.00    +0.172 HD
BRANCH  19  21
ATOM     21  S   UNL     1       0.063  -4.530  -0.023  0.00  0.00    +0.074 S 
ATOM     22  O   UNL     1      -0.476  -4.950   1.223  0.00  0.00    -0.152 OA
ATOM     23  O   UNL     1      -0.490  -4.937  -1.267  0.00  0.00    -0.152 OA
BRANCH  21  28
ATOM     24  C   UNL     1      -0.018   1.503   0.010  0.00  0.00    +0.044 C 
ATOM     25  C   UNL     1       0.002  -0.004   0.002  0.00  0.00    -0.050 A 
ATOM     26  C   UNL     1       0.006  -0.689  -1.199  0.00  0.00    +0.005 A 
ATOM     27  C   UNL     1       0.025  -2.071  -1.206  0.00  0.00    +0.029 A 
ATOM     28  C   UNL     1       0.040  -2.768  -0.013  0.00  0.00    +0.107 A 
ATOM     29  C   UNL     1       0.037  -2.084   1.188  0.00  0.00    +0.029 A 
ATOM     30  C   UNL     1       0.023  -0.702   1.195  0.00  0.00    +0.005 A 
ENDBRANCH  21  28
ENDBRANCH  19  21
ENDBRANCH   1  19
TORSDOF 4
