REMARK  Name = ZINC04651106
REMARK  7 active torsions:
REMARK  status: ('A' for Active; 'I' for Inactive)
REMARK    1  A    between atoms: C_1  and  C_2
REMARK    2  A    between atoms: C_3  and  C_9
REMARK    3  A    between atoms: C_4  and  C_8
REMARK    4  A    between atoms: N_5  and  C_7
REMARK    5  A    between atoms: C_20  and  O_34
REMARK    6  A    between atoms: C_24  and  C_33
REMARK    7  A    between atoms: C_29  and  C_32
REMARK                            x       y       z     vdW  Elec       q    Type
REMARK                         _______ _______ _______ _____ _____    ______ ____
ROOT
ATOM      1  C   UNL     1       0.052  -0.587  -2.602  0.00  0.00    +0.018 C 
ATOM      2  C   UNL     1      -0.758   0.392  -3.079  0.00  0.00    -0.003 C 
ATOM      3  C   UNL     1      -0.926   0.766  -4.541  0.00  0.00    +0.043 C 
ATOM      4  C   UNL     1      -1.426   2.243  -4.480  0.00  0.00    +0.010 C 
ATOM      5  C   UNL     1      -0.188   3.108  -4.234  0.00  0.00    +0.001 C 
ATOM      6  C   UNL     1       0.707   2.429  -3.192  0.00  0.00    +0.031 C 
ATOM      7  C   UNL     1       1.880   3.321  -2.901  0.00  0.00    -0.027 C 
ATOM      8  C   UNL     1       1.845   4.612  -3.052  0.00  0.00    -0.065 C 
ATOM      9  C   UNL     1       3.093   5.411  -2.717  0.00  0.00    +0.062 C 
ATOM     10  C   UNL     1       2.703   6.542  -1.760  0.00  0.00    +0.119 C 
ATOM     11  C   UNL     1       1.583   7.375  -2.385  0.00  0.00    +0.032 C 
ATOM     12  C   UNL     1       0.333   6.509  -2.563  0.00  0.00    +0.014 C 
ATOM     13  C   UNL     1       0.641   5.367  -3.536  0.00  0.00    -0.008 C 
ATOM     14  C   UNL     1      -0.583   4.483  -3.704  0.00  0.00    +0.003 C 
ATOM     15  C   UNL     1      -1.291   4.302  -2.357  0.00  0.00    +0.005 C 
ATOM     16  C   UNL     1      -2.580   3.516  -2.596  0.00  0.00    +0.015 C 
ATOM     17  C   UNL     1      -2.317   2.165  -3.226  0.00  0.00    +0.034 C 
ATOM     18  C   UNL     1      -1.588   1.226  -2.298  0.00  0.00    +0.165 C 
ATOM     19  O   UNL     1      -1.695   1.195  -1.088  0.00  0.00    -0.292 OA
ATOM     20  C   UNL     1      -3.644   1.508  -3.611  0.00  0.00    +0.020 C 
ATOM     21  C   UNL     1       0.973   5.976  -4.899  0.00  0.00    +0.016 C 
ENDROOT
BRANCH   1  24
ATOM     22  C   UNL     1      -2.495  -1.654  -1.038  0.00  0.00    +0.068 C 
ATOM     23  C   UNL     1      -1.119  -1.425  -0.468  0.00  0.00    +0.067 A 
ATOM     24  C   UNL     1       0.007  -0.948  -1.180  0.00  0.00    +0.019 A 
ATOM     25  C   UNL     1       1.060  -0.886  -0.282  0.00  0.00    +0.043 A 
ATOM     26  N   UNL     1       0.596  -1.304   0.907  0.00  0.00    -0.271 N 
ATOM     27  N   UNL     1      -0.758  -1.627   0.768  0.00  0.00    -0.176 NA
ATOM     28  C   UNL     1       1.376  -1.399   2.143  0.00  0.00    +0.172 C 
ATOM     29  C   UNL     1       2.466  -0.436  -0.584  0.00  0.00    +0.066 C 
ENDBRANCH   1  24
BRANCH  10  30
ATOM     30  O   UNL     1       2.250   5.985  -0.524  0.00  0.00    -0.391 OA
ATOM     31  H   UNL     1       2.911   5.444  -0.071  0.00  0.00    +0.210 HD
ENDBRANCH  10  30
TORSDOF 2
