REMARK  Name = ZINC36032768
REMARK  12 active torsions:
REMARK  status: ('A' for Active; 'I' for Inactive)
REMARK    1  A    between atoms: C_1  and  C_2
REMARK    2  A    between atoms: C_2  and  C_3
REMARK    3  A    between atoms: C_3  and  C_5
REMARK    4  A    between atoms: C_3  and  C_6
REMARK    5  A    between atoms: C_6  and  N_7
REMARK    6  A    between atoms: C_10  and  C_29
REMARK    7  A    between atoms: N_16  and  C_19
REMARK    8  A    between atoms: C_19  and  N_21
REMARK    9  A    between atoms: N_21  and  C_22
REMARK   10  A    between atoms: C_29  and  C_30
REMARK   11  A    between atoms: C_30  and  C_31
REMARK   12  A    between atoms: C_30  and  C_32
REMARK                            x       y       z     vdW  Elec       q    Type
REMARK                         _______ _______ _______ _____ _____    ______ ____
ROOT
ATOM      1  N   UNL     1       1.389  -2.694  -2.338  0.00  0.00    -0.313 N 
ATOM      2  C   UNL     1       0.931  -2.844  -3.599  0.00  0.00    +0.200 C 
ATOM      3  O   UNL     1      -0.173  -2.533  -3.993  0.00  0.00    -0.277 OA
ATOM      4  C   UNL     1       2.026  -3.465  -4.437  0.00  0.00    +0.019 C 
ATOM      5  N   UNL     1       3.265  -3.273  -3.644  0.00  0.00    +0.401 N 
ATOM      6  C   UNL     1       2.766  -3.187  -2.257  0.00  0.00    +0.006 C 
ATOM      7  C   UNL     1       3.630  -2.214  -1.456  0.00  0.00    +0.025 C 
ATOM      8  C   UNL     1       3.084  -2.106  -0.029  0.00  0.00    +0.107 C 
ATOM      9  N   UNL     1       2.989  -3.456   0.544  0.00  0.00    -0.312 N 
ATOM     10  C   UNL     1       2.240  -4.485  -0.190  0.00  0.00    +0.107 C 
ATOM     11  C   UNL     1       2.794  -4.573  -1.616  0.00  0.00    +0.025 C 
ATOM     12  H   UNL     1       3.884  -4.062  -3.755  0.00  0.00    -0.082 HD
ATOM     13  H   UNL     1       3.726  -2.415  -3.907  0.00  0.00    -0.082 HD
ENDROOT
BRANCH   9  14
ATOM     14  C   UNL     1       3.578  -3.744   1.722  0.00  0.00    +0.137 C 
ATOM     15  S   UNL     1       4.557  -2.574   2.499  0.00  0.00    -0.018 S 
BRANCH  14  16
ATOM     16  N   UNL     1       3.396  -4.954   2.288  0.00  0.00    -0.297 N 
ATOM     17  H   UNL     1       4.123  -5.596   2.304  0.00  0.00    +0.154 HD
BRANCH  16  18
ATOM     18  C   UNL     1       2.158  -5.284   2.852  0.00  0.00    +0.033 A 
ATOM     19  C   UNL     1       1.086  -4.408   2.737  0.00  0.00    +0.026 A 
ATOM     20  C   UNL     1      -0.135  -4.736   3.295  0.00  0.00    +0.040 A 
ATOM     21  C   UNL     1      -0.290  -5.936   3.967  0.00  0.00    +0.124 A 
ATOM     22  C   UNL     1       0.777  -6.811   4.082  0.00  0.00    +0.040 A 
ATOM     23  C   UNL     1       1.998  -6.490   3.521  0.00  0.00    +0.026 A 
ATOM     24  F   UNL     1      -1.485  -6.254   4.511  0.00  0.00    -0.205 F 
ENDBRANCH  16  18
ENDBRANCH  14  16
ENDBRANCH   9  14
BRANCH   1  25
ATOM     25  C   UNL     1       0.629  -2.120  -1.225  0.00  0.00    +0.109 C 
BRANCH  25  26
ATOM     26  C   UNL     1       0.546  -0.602  -1.392  0.00  0.00    +0.003 C 
ATOM     27  C   UNL     1       1.952  -0.034  -1.603  0.00  0.00    +0.009 C 
BRANCH  26  29
ATOM     28  C   UNL     1      -0.268   1.519  -0.352  0.00  0.00    +0.004 C 
ATOM     29  C   UNL     1      -0.070   0.017  -0.136  0.00  0.00    +0.001 C 
ENDBRANCH  26  29
ENDBRANCH  25  26
ENDBRANCH   1  25
BRANCH   4  30
ATOM     30  C   UNL     1       2.137  -2.750  -5.785  0.00  0.00    -0.004 C 
BRANCH  30  31
ATOM     31  C   UNL     1       3.188  -3.449  -6.649  0.00  0.00    -0.018 C 
ATOM     32  C   UNL     1       2.715  -4.866  -6.981  0.00  0.00    +0.007 C 
ATOM     33  C   UNL     1       3.389  -2.662  -7.945  0.00  0.00    +0.007 C 
ENDBRANCH  30  31
ENDBRANCH   4  30
TORSDOF 8
