REMARK  Name = ZINC43344505
REMARK  6 active torsions:
REMARK  status: ('A' for Active; 'I' for Inactive)
REMARK    1  A    between atoms: C_1  and  C_2
REMARK    2  A    between atoms: C_2  and  C_3
REMARK    3  A    between atoms: N_11  and  C_12
REMARK    4  A    between atoms: C_12  and  C_13
REMARK    5  A    between atoms: C_13  and  C_15
REMARK    6  A    between atoms: C_13  and  N_22
REMARK                            x       y       z     vdW  Elec       q    Type
REMARK                         _______ _______ _______ _____ _____    ______ ____
ROOT
ATOM      1  C   UNL     1      -8.334  -2.972  -0.672  0.00  0.00    +0.095 C 
ENDROOT
BRANCH   1  10
ATOM      2  C   UNL     1      -3.207  -4.623  -5.568  0.00  0.00    +0.103 A 
ATOM      3  N   UNL     1      -3.606  -3.509  -4.989  0.00  0.00    -0.145 NA
ATOM      4  N   UNL     1      -4.553  -3.555  -4.154  0.00  0.00    -0.126 NA
ATOM      5  C   UNL     1      -5.157  -4.686  -3.846  0.00  0.00    +0.189 A 
ATOM      6  S   UNL     1      -4.330  -5.792  -4.814  0.00  0.00    -0.035 S 
ATOM      7  N   UNL     1      -6.204  -4.909  -2.959  0.00  0.00    -0.247 N 
ATOM      8  C   UNL     1      -6.738  -3.877  -2.275  0.00  0.00    +0.305 C 
ATOM      9  O   UNL     1      -6.305  -2.753  -2.434  0.00  0.00    -0.252 OA
ATOM     10  N   UNL     1      -7.753  -4.093  -1.415  0.00  0.00    -0.300 N 
ATOM     11  H   UNL     1      -6.550  -5.806  -2.832  0.00  0.00    +0.158 HD
ATOM     12  H   UNL     1      -8.099  -4.990  -1.288  0.00  0.00    +0.150 HD
BRANCH   2  14
ATOM     13  C   UNL     1      -0.801  -5.147  -5.864  0.00  0.00    +0.011 C 
ATOM     14  C   UNL     1      -2.117  -4.848  -6.585  0.00  0.00    +0.061 C 
ENDBRANCH   2  14
ENDBRANCH   1  10
BRANCH   1  15
ATOM     15  C   UNL     1      -9.545  -3.461   0.125  0.00  0.00    -0.020 C 
BRANCH  15  16
ATOM     16  C   UNL     1     -10.629  -3.899  -0.827  0.00  0.00    -0.058 A 
ATOM     17  C   UNL     1     -11.442  -2.956  -1.429  0.00  0.00    +0.002 A 
ATOM     18  C   UNL     1     -12.436  -3.357  -2.302  0.00  0.00    +0.002 A 
ATOM     19  C   UNL     1     -12.618  -4.700  -2.574  0.00  0.00    +0.020 A 
ATOM     20  C   UNL     1     -11.805  -5.643  -1.972  0.00  0.00    +0.041 A 
ATOM     21  C   UNL     1     -10.806  -5.241  -1.102  0.00  0.00    +0.022 A 
ATOM     22 CL   UNL     1     -12.032  -7.330  -2.312  0.00  0.00    -0.084 Cl
ENDBRANCH  15  16
BRANCH  15  23
ATOM     23  N   UNL     1     -10.048  -2.371   0.971  0.00  0.00    +0.385 N 
ATOM     24  C   UNL     1     -11.216  -2.833   1.763  0.00  0.00    -0.078 C 
ATOM     25  C   UNL     1     -11.259  -1.836   2.948  0.00  0.00    -0.020 C 
ATOM     26  C   UNL     1      -9.762  -1.602   3.256  0.00  0.00    -0.020 C 
ATOM     27  C   UNL     1      -9.021  -1.978   1.960  0.00  0.00    -0.078 C 
ATOM     28  H   UNL     1     -10.304  -1.578   0.402  0.00  0.00    -0.081 HD
ENDBRANCH  15  23
ENDBRANCH   1  15
TORSDOF 5
