REMARK  Name = ZINC08763381
REMARK  9 active torsions:
REMARK  status: ('A' for Active; 'I' for Inactive)
REMARK    1  A    between atoms: C_1  and  C_2
REMARK    2  A    between atoms: C_3  and  C_31
REMARK    3  A    between atoms: C_5  and  N_23
REMARK    4  A    between atoms: C_6  and  C_7
REMARK    5  A    between atoms: C_7  and  C_9
REMARK    6  A    between atoms: C_7  and  N_55
REMARK    7  A    between atoms: C_12  and  O_15
REMARK    8  A    between atoms: O_15  and  C_16
REMARK    9  A    between atoms: C_24  and  C_26
REMARK                            x       y       z     vdW  Elec       q    Type
REMARK                         _______ _______ _______ _____ _____    ______ ____
ROOT
ATOM      1  C   UNL     1       0.209   4.345  -0.192  0.00  0.00    -0.004 C 
ENDROOT
BRANCH   1   7
ATOM      2  C   UNL     1       2.886   5.464  -0.458  0.00  0.00    +0.045 C 
ATOM      3  C   UNL     1       2.693   3.985  -0.237  0.00  0.00    -0.037 A 
ATOM      4  C   UNL     1       3.763   3.157  -0.160  0.00  0.00    -0.008 A 
ATOM      5  S   UNL     1       2.988   1.571   0.107  0.00  0.00    -0.078 S 
ATOM      6  C   UNL     1       1.287   2.114   0.087  0.00  0.00    +0.074 A 
ATOM      7  C   UNL     1       1.422   3.455  -0.111  0.00  0.00    -0.025 A 
ATOM      8  C   UNL     1       5.229   3.490  -0.266  0.00  0.00    +0.052 C 
BRANCH   6   9
ATOM      9  N   UNL     1       0.122   1.361   0.242  0.00  0.00    -0.273 N 
ATOM     10  C   UNL     1       0.192   0.017   0.313  0.00  0.00    +0.284 C 
ATOM     11  O   UNL     1       1.272  -0.540   0.243  0.00  0.00    -0.266 OA
ATOM     12  H   UNL     1      -0.739   1.805   0.294  0.00  0.00    +0.156 HD
BRANCH  10  13
ATOM     13  C   UNL     1      -1.032  -0.774   0.475  0.00  0.00    +0.189 A 
ATOM     14  C   UNL     1      -1.102  -2.135   0.560  0.00  0.00    +0.054 A 
ATOM     15  C   UNL     1      -2.459  -2.460   0.709  0.00  0.00    +0.042 A 
ATOM     16  C   UNL     1      -3.149  -1.298   0.707  0.00  0.00    +0.196 A 
ATOM     17  O   UNL     1      -2.285  -0.284   0.572  0.00  0.00    -0.458 OA
ENDBRANCH  10  13
ENDBRANCH   6   9
ENDBRANCH   1   7
BRANCH   1  18
ATOM     18  C   UNL     1      -0.440   4.189  -1.543  0.00  0.00    -0.056 A 
ATOM     19  C   UNL     1      -1.382   3.197  -1.745  0.00  0.00    +0.006 A 
ATOM     20  C   UNL     1      -1.982   3.055  -2.981  0.00  0.00    +0.046 A 
ATOM     21  C   UNL     1      -1.631   3.902  -4.023  0.00  0.00    +0.127 A 
ATOM     22  C   UNL     1      -0.682   4.893  -3.818  0.00  0.00    +0.046 A 
ATOM     23  C   UNL     1      -0.089   5.035  -2.579  0.00  0.00    +0.006 A 
BRANCH  21  24
ATOM     24  O   UNL     1      -2.216   3.761  -5.242  0.00  0.00    -0.434 OA
BRANCH  24  25
ATOM     25  C   UNL     1      -3.184   2.719  -5.380  0.00  0.00    +0.541 C 
ATOM     26  F   UNL     1      -2.584   1.485  -5.105  0.00  0.00    -0.166 F 
ATOM     27  F   UNL     1      -4.235   2.937  -4.482  0.00  0.00    -0.166 F 
ENDBRANCH  24  25
ENDBRANCH  21  24
ENDBRANCH   1  18
BRANCH   1  32
ATOM     28  C   UNL     1      -0.123   4.053   2.203  0.00  0.00    -0.078 C 
ATOM     29  C   UNL     1      -1.342   4.148   3.154  0.00  0.00    -0.020 C 
ATOM     30  C   UNL     1      -2.333   5.028   2.358  0.00  0.00    -0.020 C 
ATOM     31  C   UNL     1      -1.898   4.894   0.887  0.00  0.00    -0.078 C 
ATOM     32  N   UNL     1      -0.762   3.971   0.880  0.00  0.00    +0.387 N 
ATOM     33  H   UNL     1      -1.094   3.014   0.714  0.00  0.00    -0.080 HD
ENDBRANCH   1  32
TORSDOF 7
