REMARK  Name = ZINC13450585
REMARK  8 active torsions:
REMARK  status: ('A' for Active; 'I' for Inactive)
REMARK    1  A    between atoms: C_1  and  C_2
REMARK    2  A    between atoms: C_5  and  S_8
REMARK    3  A    between atoms: S_8  and  N_11
REMARK    4  A    between atoms: C_15  and  C_18
REMARK    5  A    between atoms: C_18  and  N_20
REMARK    6  A    between atoms: N_22  and  C_32
REMARK    7  A    between atoms: C_24  and  C_31
REMARK    8  A    between atoms: C_25  and  C_30
REMARK                            x       y       z     vdW  Elec       q    Type
REMARK                         _______ _______ _______ _____ _____    ______ ____
ROOT
ATOM      1  N   UNL     1       2.540  -6.832  -1.066  0.00  0.00    -0.176 NA
ATOM      2  C   UNL     1       3.499  -7.239  -2.103  0.00  0.00    +0.109 C 
ATOM      3  C   UNL     1       4.685  -6.269  -2.085  0.00  0.00    +0.018 C 
ATOM      4  C   UNL     1       5.272  -6.213  -0.673  0.00  0.00    +0.015 C 
ATOM      5  C   UNL     1       4.212  -5.697   0.302  0.00  0.00    +0.093 C 
ATOM      6  C   UNL     1       3.022  -6.654   0.311  0.00  0.00    +0.122 C 
ENDROOT
BRANCH   1   7
ATOM      7  S   UNL     1       0.949  -6.573  -1.443  0.00  0.00    +0.061 S 
ATOM      8  O   UNL     1       0.213  -6.747  -0.240  0.00  0.00    -0.153 OA
ATOM      9  O   UNL     1       0.681  -7.329  -2.616  0.00  0.00    -0.153 OA
BRANCH   7  14
ATOM     10  C   UNL     1       0.399  -0.763  -2.974  0.00  0.00    +0.044 C 
ATOM     11  C   UNL     1       0.537  -2.214  -2.592  0.00  0.00    -0.050 A 
ATOM     12  C   UNL     1       0.826  -3.159  -3.558  0.00  0.00    +0.005 A 
ATOM     13  C   UNL     1       0.952  -4.490  -3.208  0.00  0.00    +0.029 A 
ATOM     14  C   UNL     1       0.789  -4.876  -1.890  0.00  0.00    +0.105 A 
ATOM     15  C   UNL     1       0.501  -3.931  -0.924  0.00  0.00    +0.029 A 
ATOM     16  C   UNL     1       0.379  -2.599  -1.274  0.00  0.00    +0.005 A 
ENDBRANCH   7  14
ENDBRANCH   1   7
BRANCH   5  17
ATOM     17  C   UNL     1       4.801  -5.611   1.686  0.00  0.00    +0.243 C 
ATOM     18  O   UNL     1       4.314  -6.255   2.596  0.00  0.00    -0.273 OA
BRANCH  17  19
ATOM     19  N   UNL     1       5.853  -4.831   1.913  0.00  0.00    -0.156 NA
ATOM     20  C   UNL     1       6.941  -5.333   2.492  0.00  0.00    +0.166 A 
ATOM     21  N   UNL     1       7.219  -6.635   2.755  0.00  0.00    -0.324 N 
ATOM     22  C   UNL     1       8.411  -6.974   3.366  0.00  0.00    +0.060 A 
ATOM     23  C   UNL     1       8.893  -8.241   3.725  0.00  0.00    -0.023 A 
ATOM     24  C   UNL     1      10.119  -8.377   4.333  0.00  0.00    -0.046 A 
ATOM     25  C   UNL     1      10.909  -7.274   4.608  0.00  0.00    +0.005 A 
ATOM     26  C   UNL     1      10.457  -6.012   4.264  0.00  0.00    +0.017 A 
ATOM     27  C   UNL     1       9.231  -5.875   3.655  0.00  0.00    +0.039 A 
ATOM     28  S   UNL     1       8.288  -4.499   3.054  0.00  0.00    -0.052 S 
ATOM     29  C   UNL     1      10.611  -9.751   4.708  0.00  0.00    +0.044 C 
ATOM     30  C   UNL     1       8.060  -9.465   3.442  0.00  0.00    +0.046 C 
ATOM     31  C   UNL     1       6.257  -7.679   2.391  0.00  0.00    +0.151 C 
ENDBRANCH  17  19
ENDBRANCH   5  17
TORSDOF 4
