REMARK  Name = ZINC28617561
REMARK  5 active torsions:
REMARK  status: ('A' for Active; 'I' for Inactive)
REMARK    1  A    between atoms: C_4  and  C_7
REMARK    2  A    between atoms: C_9  and  C_34
REMARK    3  A    between atoms: C_10  and  N_33
REMARK    4  A    between atoms: N_11  and  C_27
REMARK    5  A    between atoms: N_17  and  C_20
REMARK                            x       y       z     vdW  Elec       q    Type
REMARK                         _______ _______ _______ _____ _____    ______ ____
ROOT
ATOM      1  C   UNL     1      -2.171   3.108  -0.365  0.00  0.00    +0.126 C 
ATOM      2  C   UNL     1      -3.215   3.219  -1.417  0.00  0.00    +0.083 C 
ATOM      3  C   UNL     1      -4.532   3.021  -1.235  0.00  0.00    +0.108 C 
ATOM      4  N   UNL     1      -5.061   2.697  -0.012  0.00  0.00    -0.250 N 
ATOM      5  C   UNL     1      -4.449   3.027   1.151  0.00  0.00    +0.092 C 
ATOM      6  C   UNL     1      -5.238   3.111   2.302  0.00  0.00    +0.130 C 
ATOM      7  C   UNL     1      -4.798   2.978   3.695  0.00  0.00    +0.268 C 
ATOM      8  O   UNL     1      -3.661   2.771   4.079  0.00  0.00    -0.268 OA
ATOM      9  N   UNL     1      -5.889   3.131   4.469  0.00  0.00    -0.223 N 
ATOM     10  N   UNL     1      -7.018   3.348   3.679  0.00  0.00    -0.184 N 
ATOM     11  C   UNL     1      -6.685   3.345   2.374  0.00  0.00    +0.275 C 
ATOM     12  O   UNL     1      -7.440   3.507   1.433  0.00  0.00    -0.268 OA
ATOM     13  S   UNL     1      -2.789   3.346   1.304  0.00  0.00    -0.095 S 
ATOM     14  H   UNL     1      -5.981   3.107   5.565  0.00  0.00    +0.174 HD
ENDROOT
BRANCH   1  18
ATOM     15  C   UNL     1      -0.391  -0.766  -0.617  0.00  0.00    +0.000 A 
ATOM     16  C   UNL     1      -1.726  -0.640  -0.281  0.00  0.00    +0.000 A 
ATOM     17  C   UNL     1      -2.303   0.614  -0.205  0.00  0.00    +0.005 A 
ATOM     18  C   UNL     1      -1.543   1.741  -0.454  0.00  0.00    -0.029 A 
ATOM     19  C   UNL     1      -0.208   1.615  -0.789  0.00  0.00    +0.005 A 
ATOM     20  C   UNL     1       0.368   0.361  -0.870  0.00  0.00    +0.000 A 
ENDBRANCH   1  18
BRANCH  10  21
ATOM     21  C   UNL     1      -8.312   3.541   4.172  0.00  0.00    +0.056 A 
ATOM     22  C   UNL     1      -9.367   3.755   3.294  0.00  0.00    +0.025 A 
ATOM     23  C   UNL     1     -10.645   3.941   3.784  0.00  0.00    +0.002 A 
ATOM     24  C   UNL     1     -10.873   3.924   5.147  0.00  0.00    +0.000 A 
ATOM     25  C   UNL     1      -9.825   3.716   6.025  0.00  0.00    +0.002 A 
ATOM     26  C   UNL     1      -8.546   3.524   5.541  0.00  0.00    +0.025 A 
ENDBRANCH  10  21
BRANCH   4  27
ATOM     27  C   UNL     1      -6.274   2.000   0.037  0.00  0.00    +0.040 A 
ATOM     28  C   UNL     1      -6.367   0.815   0.756  0.00  0.00    +0.024 A 
ATOM     29  C   UNL     1      -7.567   0.133   0.807  0.00  0.00    +0.002 A 
ATOM     30  C   UNL     1      -8.671   0.622   0.133  0.00  0.00    +0.000 A 
ATOM     31  C   UNL     1      -8.580   1.798  -0.588  0.00  0.00    +0.002 A 
ATOM     32  C   UNL     1      -7.385   2.488  -0.638  0.00  0.00    +0.024 A 
ENDBRANCH   4  27
BRANCH   3  33
ATOM     33  N   UNL     1      -5.378   3.149  -2.310  0.00  0.00    -0.345 N 
ATOM     34  H   UNL     1      -6.459   2.991  -2.182  0.00  0.00    +0.144 HD
ATOM     35  H   UNL     1      -4.973   3.408  -3.300  0.00  0.00    +0.144 HD
ENDBRANCH   3  33
BRANCH   2  36
ATOM     36  C   UNL     1      -2.780   3.566  -2.737  0.00  0.00    +0.099 C 
ATOM     37  N   UNL     1      -2.436   3.841  -3.784  0.00  0.00    -0.191 NA
ENDBRANCH   2  36
TORSDOF 5
