REMARK  Name = ZINC13304129
REMARK  7 active torsions:
REMARK  status: ('A' for Active; 'I' for Inactive)
REMARK    1  A    between atoms: C_4  and  O_28
REMARK    2  A    between atoms: C_5  and  C_7
REMARK    3  A    between atoms: C_9  and  C_21
REMARK    4  A    between atoms: C_11  and  C_16
REMARK    5  A    between atoms: C_11  and  O_20
REMARK    6  A    between atoms: C_21  and  C_23
REMARK    7  A    between atoms: O_28  and  C_29
REMARK                            x       y       z     vdW  Elec       q    Type
REMARK                         _______ _______ _______ _____ _____    ______ ____
ROOT
ATOM      1  C   UNL     1      -0.059   5.351   0.029  0.00  0.00    +0.123 C 
ATOM      2  C   UNL     1      -0.177   5.855   1.471  0.00  0.00    +0.145 C 
ATOM      3  C   UNL     1       1.081   5.436   2.238  0.00  0.00    +0.243 C 
ATOM      4  N   UNL     1       2.263   5.937   1.534  0.00  0.00    -0.264 N 
ATOM      5  C   UNL     1       2.259   6.113   0.204  0.00  0.00    +0.302 C 
ATOM      6  O   UNL     1       3.270   6.521  -0.334  0.00  0.00    -0.253 OA
ATOM      7  N   UNL     1       1.184   5.856  -0.556  0.00  0.00    -0.292 N 
ATOM      8  H   UNL     1       3.064   6.146   2.038  0.00  0.00    +0.153 HD
ATOM      9  H   UNL     1       1.231   6.008  -1.513  0.00  0.00    +0.151 HD
ENDROOT
BRANCH   1  14
ATOM     10  C   UNL     1       1.176   1.783   0.000  0.00  0.00    +0.001 A 
ATOM     11  C   UNL     1      -0.013   1.076   0.008  0.00  0.00    +0.004 A 
ATOM     12  C   UNL     1      -1.218   1.750   0.017  0.00  0.00    +0.046 A 
ATOM     13  C   UNL     1      -1.236   3.137   0.029  0.00  0.00    +0.132 A 
ATOM     14  C   UNL     1      -0.043   3.844   0.021  0.00  0.00    +0.015 A 
ATOM     15  C   UNL     1       1.161   3.165   0.007  0.00  0.00    +0.009 A 
BRANCH  13  16
ATOM     16  O   UNL     1      -2.421   3.802   0.043  0.00  0.00    -0.434 OA
BRANCH  16  17
ATOM     17  C   UNL     1      -3.610   3.009   0.051  0.00  0.00    +0.541 C 
ATOM     18  F   UNL     1      -3.643   2.206  -1.095  0.00  0.00    -0.166 F 
ATOM     19  F   UNL     1      -3.622   2.197   1.190  0.00  0.00    -0.166 F 
ENDBRANCH  16  17
ENDBRANCH  13  16
ENDBRANCH   1  14
BRANCH   3  20
ATOM     20  C   UNL     1       1.039   6.025   3.650  0.00  0.00    +0.436 C 
ATOM     21  F   UNL     1      -0.094   5.551   4.319  0.00  0.00    -0.166 F 
ATOM     22  F   UNL     1       2.188   5.643   4.350  0.00  0.00    -0.166 F 
ATOM     23  F   UNL     1       0.984   7.421   3.571  0.00  0.00    -0.166 F 
ENDBRANCH   3  20
BRANCH   3  24
ATOM     24  O   UNL     1       1.141   4.011   2.317  0.00  0.00    -0.364 OA
ATOM     25  H   UNL     1       1.914   3.675   2.791  0.00  0.00    +0.212 HD
ENDBRANCH   3  24
BRANCH   2  26
ATOM     26  C   UNL     1      -0.296   7.357   1.474  0.00  0.00    +0.179 C 
ATOM     27  O   UNL     1       0.150   8.003   0.547  0.00  0.00    -0.291 OA
BRANCH  26  28
ATOM     28  C   UNL     1      -0.925   8.014   2.554  0.00  0.00    +0.055 A 
ATOM     29  C   UNL     1      -1.137   9.375   2.751  0.00  0.00    +0.019 A 
ATOM     30  C   UNL     1      -1.782   9.745   3.901  0.00  0.00    +0.008 A 
ATOM     31  C   UNL     1      -2.179   8.784   4.780  0.00  0.00    +0.046 A 
ATOM     32  S   UNL     1      -1.665   7.313   4.019  0.00  0.00    -0.094 S 
ENDBRANCH  26  28
ENDBRANCH   2  26
TORSDOF 7
