REMARK  Name = ZINC22106751
REMARK  9 active torsions:
REMARK  status: ('A' for Active; 'I' for Inactive)
REMARK    1  A    between atoms: C_1  and  C_2
REMARK    2  A    between atoms: C_2  and  C_4
REMARK    3  A    between atoms: C_2  and  N_10
REMARK    4  A    between atoms: C_11  and  C_13
REMARK    5  A    between atoms: C_13  and  C_15
REMARK    6  A    between atoms: C_13  and  S_16
REMARK    7  A    between atoms: S_16  and  C_17
REMARK    8  A    between atoms: C_20  and  C_23
REMARK    9  A    between atoms: N_21  and  N_22
REMARK                            x       y       z     vdW  Elec       q    Type
REMARK                         _______ _______ _______ _____ _____    ______ ____
ROOT
ATOM      1  S   UNL     1       1.627  -0.610   0.505  0.00  0.00    -0.072 S 
ENDROOT
BRANCH   1   2
ATOM      2  C   UNL     1       1.288  -2.334   0.635  0.00  0.00    +0.209 A 
ATOM      3  N   UNL     1       0.141  -2.924   0.383  0.00  0.00    -0.121 NA
ATOM      4  N   UNL     1       0.243  -4.190   0.579  0.00  0.00    -0.127 NA
ATOM      5  C   UNL     1       1.461  -4.486   0.969  0.00  0.00    +0.183 A 
ATOM      6  N   UNL     1       2.169  -3.307   1.012  0.00  0.00    -0.224 N 
BRANCH   5   7
ATOM      7  C   UNL     1       1.976  -5.833   1.294  0.00  0.00    +0.035 A 
ATOM      8  C   UNL     1       2.709  -6.039   2.464  0.00  0.00    +0.013 A 
ATOM      9  C   UNL     1       3.188  -7.298   2.761  0.00  0.00    +0.001 A 
ATOM     10  C   UNL     1       2.942  -8.356   1.903  0.00  0.00    +0.001 A 
ATOM     11  C   UNL     1       2.216  -8.159   0.743  0.00  0.00    +0.016 A 
ATOM     12  C   UNL     1       1.727  -6.905   0.435  0.00  0.00    +0.029 A 
ATOM     13 BR   UNL     1       0.729  -6.639  -1.149  0.00  0.00    -0.050 Br
ENDBRANCH   5   7
BRANCH   6  14
ATOM     14  N   UNL     1       3.479  -3.144   1.361  0.00  0.00    -0.295 N 
ATOM     15  H   UNL     1       4.085  -4.016   1.647  0.00  0.00    +0.163 HD
ATOM     16  H   UNL     1       3.929  -2.139   1.357  0.00  0.00    +0.163 HD
ENDBRANCH   6  14
ENDBRANCH   1   2
BRANCH   1  17
ATOM     17  C   UNL     1       0.008  -0.011  -0.040  0.00  0.00    +0.137 C 
ATOM     18  C   UNL     1      -0.304  -0.577  -1.426  0.00  0.00    +0.029 C 
BRANCH  17  20
ATOM     19  N   UNL     1      -1.126   2.187   0.009  0.00  0.00    -0.308 N 
ATOM     20  C   UNL     1       0.025   1.494  -0.104  0.00  0.00    +0.227 C 
ATOM     21  O   UNL     1       1.074   2.083  -0.262  0.00  0.00    -0.275 OA
ATOM     22  H   UNL     1      -2.077   1.653   0.148  0.00  0.00    +0.149 HD
BRANCH  19  24
ATOM     23  C   UNL     1      -0.803   4.216   1.335  0.00  0.00    +0.033 C 
ATOM     24  C   UNL     1      -1.109   3.650  -0.053  0.00  0.00    +0.100 C 
BRANCH  24  25
ATOM     25  C   UNL     1      -2.455   4.149  -0.513  0.00  0.00    -0.027 A 
ATOM     26  C   UNL     1      -3.610   3.543  -0.055  0.00  0.00    +0.005 A 
ATOM     27  C   UNL     1      -4.845   4.003  -0.474  0.00  0.00    +0.000 A 
ATOM     28  C   UNL     1      -4.924   5.062  -1.358  0.00  0.00    +0.000 A 
ATOM     29  C   UNL     1      -3.769   5.665  -1.820  0.00  0.00    +0.000 A 
ATOM     30  C   UNL     1      -2.534   5.208  -1.398  0.00  0.00    +0.005 A 
ENDBRANCH  24  25
ENDBRANCH  19  24
ENDBRANCH  17  20
ENDBRANCH   1  17
TORSDOF 7
