REMARK  Name = ZINC03021928
REMARK  4 active torsions:
REMARK  status: ('A' for Active; 'I' for Inactive)
REMARK    1  A    between atoms: C_4  and  S_18
REMARK    2  A    between atoms: C_6  and  C_7
REMARK    3  A    between atoms: N_9  and  C_10
REMARK    4  A    between atoms: S_18  and  N_21
REMARK                            x       y       z     vdW  Elec       q    Type
REMARK                         _______ _______ _______ _____ _____    ______ ____
ROOT
ATOM      1  C   UNL     1       1.166   2.090  -0.014  0.00  0.00    +0.016 A 
ATOM      2  C   UNL     1      -0.017   1.383  -0.014  0.00  0.00    +0.041 A 
ATOM      3  C   UNL     1       0.002  -0.004  -0.019  0.00  0.00    +0.150 A 
ATOM      4  C   UNL     1       1.209  -0.686  -0.025  0.00  0.00    +0.141 A 
ATOM      5  C   UNL     1       2.397   0.012  -0.025  0.00  0.00    +0.044 A 
ATOM      6  C   UNL     1       2.385   1.409  -0.019  0.00  0.00    +0.039 A 
ATOM      7  F   UNL     1      -1.161  -0.692  -0.019  0.00  0.00    -0.203 F 
ENDROOT
BRANCH   6   8
ATOM      8  C   UNL     1       3.655   2.162  -0.020  0.00  0.00    +0.248 C 
ATOM      9  O   UNL     1       4.715   1.565  -0.026  0.00  0.00    -0.270 OA
ATOM     10  N   UNL     1       3.640   3.509  -0.014  0.00  0.00    -0.281 N 
ATOM     11  H   UNL     1       2.797   3.985  -0.077  0.00  0.00    +0.155 HD
BRANCH  10  12
ATOM     12  C   UNL     1       4.840   4.222   0.083  0.00  0.00    +0.035 A 
ATOM     13  C   UNL     1       4.881   5.422   0.782  0.00  0.00    +0.025 A 
ATOM     14  C   UNL     1       6.068   6.121   0.882  0.00  0.00    +0.023 A 
ATOM     15  C   UNL     1       7.213   5.633   0.278  0.00  0.00    +0.059 A 
ATOM     16  C   UNL     1       7.174   4.440  -0.424  0.00  0.00    +0.061 A 
ATOM     17  C   UNL     1       5.990   3.734  -0.522  0.00  0.00    +0.044 A 
ATOM     18 CL   UNL     1       8.613   3.831  -1.181  0.00  0.00    -0.082 Cl
ATOM     19 CL   UNL     1       8.702   6.518   0.400  0.00  0.00    -0.082 Cl
ENDBRANCH  10  12
ENDBRANCH   6   8
BRANCH   4  20
ATOM     20  S   UNL     1       1.223  -2.448  -0.033  0.00  0.00    +0.064 S 
ATOM     21  O   UNL     1       0.328  -2.857  -1.057  0.00  0.00    -0.153 OA
ATOM     22  O   UNL     1       2.588  -2.843  -0.011  0.00  0.00    -0.153 OA
BRANCH  20  23
ATOM     23  N   UNL     1       0.563  -2.949   1.401  0.00  0.00    -0.176 NA
ATOM     24  C   UNL     1       1.413  -3.173   2.578  0.00  0.00    +0.114 C 
ATOM     25  C   UNL     1       1.161  -4.583   3.112  0.00  0.00    +0.082 C 
ATOM     26  C   UNL     1      -0.336  -4.769   3.366  0.00  0.00    +0.173 C 
ATOM     27  C   UNL     1      -1.112  -4.597   2.059  0.00  0.00    +0.082 C 
ATOM     28  C   UNL     1      -0.883  -3.182   1.517  0.00  0.00    +0.114 C 
ATOM     29  O   UNL     1      -0.575  -6.077   3.900  0.00  0.00    -0.346 OA
ATOM     30  C   UNL     1      -1.194  -5.907   5.191  0.00  0.00    +0.191 C 
ATOM     31  C   UNL     1      -1.782  -4.476   5.112  0.00  0.00    +0.191 C 
ATOM     32  O   UNL     1      -0.784  -3.790   4.319  0.00  0.00    -0.346 OA
ENDBRANCH  20  23
ENDBRANCH   4  20
TORSDOF 4
