REMARK  Name = ZINC13401435
REMARK  5 active torsions:
REMARK  status: ('A' for Active; 'I' for Inactive)
REMARK    1  A    between atoms: C_4  and  N_7
REMARK    2  A    between atoms: C_8  and  N_9
REMARK    3  A    between atoms: C_10  and  N_17
REMARK    4  A    between atoms: C_11  and  C_15
REMARK    5  A    between atoms: C_18  and  C_19
REMARK                            x       y       z     vdW  Elec       q    Type
REMARK                         _______ _______ _______ _____ _____    ______ ____
ROOT
ATOM      1  N   UNL     1       3.616  -0.615  -0.154  0.00  0.00    -0.247 N 
ATOM      2  C   UNL     1       3.636  -1.979  -0.117  0.00  0.00    +0.134 A 
ATOM      3  C   UNL     1       4.871  -2.631   0.040  0.00  0.00    +0.138 A 
ATOM      4  C   UNL     1       6.036  -1.842   0.151  0.00  0.00    +0.174 A 
ATOM      5  N   UNL     1       5.936  -0.516   0.105  0.00  0.00    -0.180 NA
ATOM      6  C   UNL     1       4.760   0.084  -0.048  0.00  0.00    +0.356 A 
ATOM      7  O   UNL     1       4.717   1.302  -0.089  0.00  0.00    -0.244 OA
ENDROOT
BRANCH   1  11
ATOM      8  C   UNL     1      -0.005   1.393  -0.617  0.00  0.00    +0.000 A 
ATOM      9  C   UNL     1       0.876   1.307  -1.679  0.00  0.00    +0.002 A 
ATOM     10  C   UNL     1       2.078   0.642  -1.529  0.00  0.00    +0.026 A 
ATOM     11  C   UNL     1       2.400   0.060  -0.310  0.00  0.00    +0.053 A 
ATOM     12  C   UNL     1       1.512   0.148   0.754  0.00  0.00    +0.026 A 
ATOM     13  C   UNL     1       0.312   0.814   0.598  0.00  0.00    +0.002 A 
ENDBRANCH   1  11
BRANCH   2  14
ATOM     14  N   UNL     1       2.478  -2.696  -0.230  0.00  0.00    -0.342 N 
ATOM     15  H   UNL     1       1.642  -2.242  -0.421  0.00  0.00    +0.144 HD
ATOM     16  H   UNL     1       2.491  -3.660  -0.118  0.00  0.00    +0.144 HD
ENDBRANCH   2  14
BRANCH   4  17
ATOM     17  C   UNL     1       7.316  -2.464   0.312  0.00  0.00    +0.122 C 
ATOM     18  N   UNL     1       8.331  -2.958   0.440  0.00  0.00    -0.189 NA
ENDBRANCH   4  17
BRANCH   3  19
ATOM     19  N   UNL     1       4.942  -3.992   0.083  0.00  0.00    -0.249 NA
ATOM     20  C   UNL     1       5.814  -4.624  -0.653  0.00  0.00    +0.121 C 
BRANCH  20  21
ATOM     21  C   UNL     1       5.978  -6.079  -0.514  0.00  0.00    +0.011 A 
ATOM     22  C   UNL     1       6.916  -6.759  -1.297  0.00  0.00    +0.012 A 
ATOM     23  C   UNL     1       7.065  -8.123  -1.161  0.00  0.00    +0.021 A 
ATOM     24  C   UNL     1       6.287  -8.821  -0.251  0.00  0.00    +0.042 A 
ATOM     25  C   UNL     1       5.356  -8.156   0.529  0.00  0.00    +0.040 A 
ATOM     26  C   UNL     1       5.200  -6.790   0.408  0.00  0.00    +0.051 A 
ATOM     27 CL   UNL     1       4.037  -5.956   1.391  0.00  0.00    -0.083 Cl
ATOM     28 CL   UNL     1       6.481 -10.538  -0.087  0.00  0.00    -0.083 Cl
ENDBRANCH  20  21
ENDBRANCH   3  19
TORSDOF 5
