REMARK  Name = ZINC38990114
REMARK  10 active torsions:
REMARK  status: ('A' for Active; 'I' for Inactive)
REMARK    1  A    between atoms: C_1  and  C_2
REMARK    2  A    between atoms: C_2  and  C_3
REMARK    3  A    between atoms: C_7  and  C_35
REMARK    4  A    between atoms: C_8  and  N_9
REMARK    5  A    between atoms: C_10  and  C_12
REMARK    6  A    between atoms: C_12  and  S_13
REMARK    7  A    between atoms: S_13  and  C_14
REMARK    8  A    between atoms: C_18  and  C_22
REMARK    9  A    between atoms: N_20  and  N_21
REMARK   10  A    between atoms: C_25  and  C_28
REMARK                            x       y       z     vdW  Elec       q    Type
REMARK                         _______ _______ _______ _____ _____    ______ ____
ROOT
ATOM      1  C   UNL     1       7.435  -0.242   2.850  0.00  0.00    +0.214 C 
ATOM      2  N   UNL     1       7.013   1.155   3.131  0.00  0.00    -0.228 NA
ATOM      3  N   UNL     1       7.156   1.258   4.592  0.00  0.00    -0.234 NA
ATOM      4  C   UNL     1       6.719  -0.062   5.100  0.00  0.00    +0.185 C 
ATOM      5  N   UNL     1       6.900  -1.023   3.989  0.00  0.00    -0.197 NA
ATOM      6  H   UNL     1       7.614   1.816   2.662  0.00  0.00    +0.143 HD
ATOM      7  H   UNL     1       8.113   1.446   4.850  0.00  0.00    +0.143 HD
ENDROOT
BRANCH   4   8
ATOM      8  C   UNL     1       7.580  -0.476   6.295  0.00  0.00    +0.187 C 
ATOM      9  C   UNL     1       7.383   0.483   7.456  0.00  0.00    +0.034 C 
ATOM     10  C   UNL     1       8.607   1.012   7.648  0.00  0.00    +0.091 C 
ATOM     11  N   UNL     1       9.493   0.494   6.758  0.00  0.00    -0.154 NA
ATOM     12  N   UNL     1       9.011  -0.335   5.978  0.00  0.00    -0.176 NA
BRANCH  10  13
ATOM     13  C   UNL     1       8.939   2.020   8.685  0.00  0.00    +0.002 A 
ATOM     14  C   UNL     1       7.952   2.482   9.553  0.00  0.00    +0.011 A 
ATOM     15  C   UNL     1       8.266   3.419  10.516  0.00  0.00    +0.020 A 
ATOM     16  C   UNL     1       9.560   3.901  10.620  0.00  0.00    +0.041 A 
ATOM     17  C   UNL     1      10.545   3.444   9.761  0.00  0.00    +0.020 A 
ATOM     18  C   UNL     1      10.242   2.503   8.799  0.00  0.00    +0.011 A 
ATOM     19 CL   UNL     1       9.949   5.080  11.833  0.00  0.00    -0.084 Cl
ENDBRANCH  10  13
ENDBRANCH   4   8
BRANCH   5  20
ATOM     20  N   UNL     1       5.640  -1.659   3.640  0.00  0.00    -0.264 NA
ATOM     21  H   UNL     1       5.775  -2.362   2.929  0.00  0.00    +0.137 HD
ATOM     22  H   UNL     1       5.194  -2.050   4.455  0.00  0.00    +0.137 HD
ENDBRANCH   5  20
BRANCH   1  23
ATOM     23  S   UNL     1       6.714  -0.821   1.289  0.00  0.00    -0.115 S 
BRANCH  23  24
ATOM     24  C   UNL     1       7.792  -0.108   0.017  0.00  0.00    +0.168 C 
BRANCH  24  26
ATOM     25  N   UNL     1       8.036  -0.217  -2.442  0.00  0.00    -0.284 N 
ATOM     26  C   UNL     1       7.373  -0.615  -1.339  0.00  0.00    +0.227 C 
ATOM     27  O   UNL     1       6.439  -1.383  -1.437  0.00  0.00    -0.275 OA
ATOM     28  H   UNL     1       8.814   0.357  -2.360  0.00  0.00    +0.155 HD
BRANCH  25  34
ATOM     29  C   UNL     1       8.521  -1.101  -4.637  0.00  0.00    -0.026 A 
ATOM     30  C   UNL     1       8.090  -1.515  -5.882  0.00  0.00    +0.005 A 
ATOM     31  C   UNL     1       6.747  -1.457  -6.205  0.00  0.00    +0.001 A 
ATOM     32  C   UNL     1       5.831  -0.985  -5.283  0.00  0.00    +0.005 A 
ATOM     33  C   UNL     1       6.256  -0.570  -4.036  0.00  0.00    -0.029 A 
ATOM     34  C   UNL     1       7.604  -0.632  -3.707  0.00  0.00    +0.040 A 
ATOM     35  C   UNL     1       5.257  -0.055  -3.032  0.00  0.00    +0.045 C 
BRANCH  29  37
ATOM     36  C   UNL     1      10.278  -2.477  -3.554  0.00  0.00    +0.009 C 
ATOM     37  C   UNL     1       9.986  -1.165  -4.286  0.00  0.00    +0.033 C 
ENDBRANCH  29  37
ENDBRANCH  25  34
ENDBRANCH  24  26
ENDBRANCH  23  24
ENDBRANCH   1  23
TORSDOF 8
