REMARK  Name = ZINC39868732
REMARK  11 active torsions:
REMARK  status: ('A' for Active; 'I' for Inactive)
REMARK    1  A    between atoms: C_1  and  C_2
REMARK    2  A    between atoms: C_2  and  C_3
REMARK    3  A    between atoms: C_3  and  C_4
REMARK    4  A    between atoms: C_4  and  C_5
REMARK    5  A    between atoms: C_5  and  C_6
REMARK    6  A    between atoms: C_6  and  O_7
REMARK    7  A    between atoms: O_7  and  C_8
REMARK    8  A    between atoms: C_11  and  C_15
REMARK    9  A    between atoms: N_17  and  C_18
REMARK   10  A    between atoms: C_23  and  O_24
REMARK   11  A    between atoms: O_24  and  C_25
REMARK                            x       y       z     vdW  Elec       q    Type
REMARK                         _______ _______ _______ _____ _____    ______ ____
ROOT
ATOM      1  C   UNL     1       2.232  -5.862  -3.834  0.00  0.00    +0.157 A 
ATOM      2  C   UNL     1       3.334  -6.538  -3.323  0.00  0.00    +0.085 A 
ATOM      3  C   UNL     1       3.450  -7.900  -3.495  0.00  0.00    +0.036 A 
ATOM      4  C   UNL     1       2.458  -8.602  -4.185  0.00  0.00    +0.040 A 
ATOM      5  C   UNL     1       1.352  -7.919  -4.698  0.00  0.00    +0.036 A 
ATOM      6  C   UNL     1       1.240  -6.558  -4.516  0.00  0.00    +0.085 A 
ATOM      7 CL   UNL     1      -0.137  -5.709  -5.146  0.00  0.00    -0.080 Cl
ATOM      8 CL   UNL     1       4.567  -5.665  -2.467  0.00  0.00    -0.080 Cl
ENDROOT
BRANCH   4   9
ATOM      9  C   UNL     1       2.578 -10.061  -4.372  0.00  0.00    +0.248 C 
ATOM     10  O   UNL     1       3.542 -10.654  -3.926  0.00  0.00    -0.270 OA
ATOM     11  N   UNL     1       1.620 -10.736  -5.038  0.00  0.00    -0.279 N 
ATOM     12  H   UNL     1       0.821 -10.275  -5.337  0.00  0.00    +0.155 HD
BRANCH  11  13
ATOM     13  C   UNL     1       1.779 -12.104  -5.297  0.00  0.00    +0.077 A 
ATOM     14  C   UNL     1       2.426 -12.915  -4.377  0.00  0.00    +0.047 A 
ATOM     15  C   UNL     1       2.581 -14.265  -4.635  0.00  0.00    +0.043 A 
ATOM     16  C   UNL     1       2.092 -14.808  -5.811  0.00  0.00    +0.024 A 
ATOM     17  C   UNL     1       1.447 -14.004  -6.732  0.00  0.00    +0.049 A 
ATOM     18  C   UNL     1       1.282 -12.653  -6.477  0.00  0.00    +0.141 A 
ATOM     19 CL   UNL     1       3.391 -15.280  -3.483  0.00  0.00    -0.083 Cl
BRANCH  18  20
ATOM     20  O   UNL     1       0.643 -11.862  -7.380  0.00  0.00    -0.493 OA
ATOM     21  C   UNL     1       0.160 -12.493  -8.568  0.00  0.00    +0.277 C 
ENDBRANCH  18  20
ENDBRANCH  11  13
ENDBRANCH   4   9
BRANCH   1  22
ATOM     22  O   UNL     1       2.122  -4.519  -3.662  0.00  0.00    -0.489 OA
BRANCH  22  23
ATOM     23  C   UNL     1       1.450  -4.069  -2.484  0.00  0.00    +0.229 C 
BRANCH  23  24
ATOM     24  C   UNL     1       1.424  -2.540  -2.465  0.00  0.00    +0.041 C 
BRANCH  24  25
ATOM     25  C   UNL     1       0.704  -2.058  -1.204  0.00  0.00    +0.003 C 
BRANCH  25  26
ATOM     26  C   UNL     1       0.678  -0.528  -1.184  0.00  0.00    -0.000 C 
BRANCH  26  28
ATOM     27  C   UNL     1      -0.067   1.483   0.097  0.00  0.00    +0.004 C 
ATOM     28  C   UNL     1      -0.041  -0.046   0.077  0.00  0.00    -0.003 C 
ENDBRANCH  26  28
ENDBRANCH  25  26
ENDBRANCH  24  25
ENDBRANCH  23  24
ENDBRANCH  22  23
ENDBRANCH   1  22
TORSDOF 9
