REMARK  Name = ZINC63520856
REMARK  9 active torsions:
REMARK  status: ('A' for Active; 'I' for Inactive)
REMARK    1  A    between atoms: C_1  and  C_2
REMARK    2  A    between atoms: C_2  and  O_3
REMARK    3  A    between atoms: O_3  and  C_4
REMARK    4  A    between atoms: C_6  and  S_11
REMARK    5  A    between atoms: S_11  and  N_14
REMARK    6  A    between atoms: N_14  and  C_15
REMARK    7  A    between atoms: C_15  and  C_16
REMARK    8  A    between atoms: C_16  and  C_17
REMARK    9  A    between atoms: C_25  and  C_27
REMARK                            x       y       z     vdW  Elec       q    Type
REMARK                         _______ _______ _______ _____ _____    ______ ____
ROOT
ATOM      1  N   UNL     1       0.857  -5.395  -1.844  0.00  0.00    -0.190 NA
ATOM      2  H   UNL     1       0.735  -5.082  -2.755  0.00  0.00    +0.148 HD
ENDROOT
BRANCH   1   3
ATOM      3  S   UNL     1      -0.318  -5.119  -0.710  0.00  0.00    +0.059 S 
ATOM      4  O   UNL     1      -0.555  -6.361  -0.061  0.00  0.00    -0.153 OA
ATOM      5  O   UNL     1      -1.349  -4.391  -1.361  0.00  0.00    -0.153 OA
BRANCH   3   8
ATOM      6  C   UNL     1       0.802  -1.824   1.306  0.00  0.00    +0.136 A 
ATOM      7  C   UNL     1       0.260  -2.673   0.351  0.00  0.00    +0.075 A 
ATOM      8  C   UNL     1       0.371  -4.041   0.502  0.00  0.00    +0.109 A 
ATOM      9  C   UNL     1       1.023  -4.566   1.603  0.00  0.00    +0.030 A 
ATOM     10  C   UNL     1       1.565  -3.724   2.555  0.00  0.00    +0.021 A 
ATOM     11  C   UNL     1       1.461  -2.353   2.407  0.00  0.00    +0.060 A 
ATOM     12 BR   UNL     1       2.209  -1.201   3.706  0.00  0.00    -0.047 Br
BRANCH   6  13
ATOM     13  O   UNL     1       0.693  -0.477   1.160  0.00  0.00    -0.491 OA
BRANCH  13  15
ATOM     14  C   UNL     1      -0.019   1.526   0.010  0.00  0.00    +0.048 C 
ATOM     15  C   UNL     1       0.002  -0.004   0.002  0.00  0.00    +0.226 C 
ENDBRANCH  13  15
ENDBRANCH   6  13
ENDBRANCH   3   8
ENDBRANCH   1   3
BRANCH   1  16
ATOM     16  C   UNL     1       2.080  -6.111  -1.474  0.00  0.00    +0.110 C 
BRANCH  16  17
ATOM     17  C   UNL     1       2.812  -6.559  -2.740  0.00  0.00    +0.050 C 
BRANCH  17  18
ATOM     18  C   UNL     1       4.071  -7.295  -2.358  0.00  0.00    -0.037 C 
ATOM     19  C   UNL     1       4.517  -7.548  -1.107  0.00  0.00    +0.002 A 
ATOM     20  C   UNL     1       3.985  -7.226   0.222  0.00  0.00    +0.048 A 
ATOM     21  C   UNL     1       4.673  -7.622   1.319  0.00  0.00    +0.124 A 
ATOM     22  C   UNL     1       5.880  -8.332   1.215  0.00  0.00    +0.040 A 
ATOM     23  C   UNL     1       6.431  -8.663   0.029  0.00  0.00    +0.029 A 
ATOM     24  C   UNL     1       5.792  -8.297  -1.188  0.00  0.00    +0.043 A 
ATOM     25  N   UNL     1       6.120  -8.499  -2.441  0.00  0.00    -0.378 N 
ATOM     26  C   UNL     1       5.087  -7.906  -3.297  0.00  0.00    +0.103 C 
ATOM     27  C   UNL     1       5.701  -6.823  -4.186  0.00  0.00    +0.035 C 
ATOM     28  F   UNL     1       4.186  -7.327   2.544  0.00  0.00    -0.205 F 
ATOM     29  H   UNL     1       6.912  -8.966  -2.750  0.00  0.00    +0.160 HD
ENDBRANCH  17  18
ENDBRANCH  16  17
ENDBRANCH   1  16
TORSDOF 7
