REMARK  Name = ZINC39673051
REMARK  7 active torsions:
REMARK  status: ('A' for Active; 'I' for Inactive)
REMARK    1  A    between atoms: C_1  and  C_2
REMARK    2  A    between atoms: C_5  and  C_9
REMARK    3  A    between atoms: C_7  and  C_8
REMARK    4  A    between atoms: C_9  and  N_10
REMARK    5  A    between atoms: C_11  and  C_13
REMARK    6  A    between atoms: C_24  and  C_26
REMARK    7  A    between atoms: C_30  and  C_32
REMARK                            x       y       z     vdW  Elec       q    Type
REMARK                         _______ _______ _______ _____ _____    ______ ____
ROOT
ATOM      1  C   UNL     1       3.826  -6.511  -0.072  0.00  0.00    +0.100 C 
ATOM      2  C   UNL     1       4.257  -5.914   1.287  0.00  0.00    +0.121 C 
ATOM      3  N   UNL     1       4.083  -7.023   2.255  0.00  0.00    -0.296 N 
ATOM      4  C   UNL     1       4.540  -8.228   1.521  0.00  0.00    +0.115 C 
ATOM      5  C   UNL     1       4.016  -8.029   0.085  0.00  0.00    -0.004 C 
ATOM      6  C   UNL     1       5.039  -8.540  -0.925  0.00  0.00    -0.010 C 
ATOM      7  C   UNL     1       5.168 -10.060  -0.789  0.00  0.00    -0.082 C 
ATOM      8  N   UNL     1       3.862 -10.687  -1.025  0.00  0.00    +0.379 N 
ATOM      9  C   UNL     1       2.909 -10.261   0.008  0.00  0.00    -0.082 C 
ATOM     10  C   UNL     1       2.684  -8.750  -0.095  0.00  0.00    -0.010 C 
ATOM     11  C   UNL     1       3.615  -6.952   3.517  0.00  0.00    +0.247 C 
ATOM     12  O   UNL     1       3.159  -5.906   3.938  0.00  0.00    -0.270 OA
ATOM     13  H   UNL     1       3.517 -10.413  -1.932  0.00  0.00    -0.086 HD
ATOM     14  H   UNL     1       3.962 -11.691  -0.995  0.00  0.00    -0.086 HD
ENDROOT
BRANCH  11  15
ATOM     15  C   UNL     1       3.656  -8.144   4.388  0.00  0.00    +0.038 A 
ATOM     16  C   UNL     1       4.538  -9.189   4.104  0.00  0.00    +0.016 A 
ATOM     17  C   UNL     1       4.573 -10.299   4.920  0.00  0.00    +0.039 A 
ATOM     18  C   UNL     1       3.734 -10.379   6.022  0.00  0.00    +0.135 A 
ATOM     19  C   UNL     1       2.857  -9.345   6.308  0.00  0.00    +0.091 A 
ATOM     20  C   UNL     1       2.818  -8.227   5.501  0.00  0.00    +0.028 A 
ATOM     21  F   UNL     1       3.772 -11.470   6.818  0.00  0.00    -0.205 F 
BRANCH  19  22
ATOM     22  C   UNL     1       1.948  -9.439   7.506  0.00  0.00    +0.420 C 
ATOM     23  F   UNL     1       1.161  -8.285   7.587  0.00  0.00    -0.166 F 
ATOM     24  F   UNL     1       1.119 -10.559   7.376  0.00  0.00    -0.166 F 
ATOM     25  F   UNL     1       2.718  -9.561   8.667  0.00  0.00    -0.166 F 
ENDBRANCH  19  22
ENDBRANCH  11  15
BRANCH   1  27
ATOM     26  N   UNL     1       1.925  -6.175  -1.619  0.00  0.00    -0.311 N 
ATOM     27  C   UNL     1       2.380  -6.190  -0.351  0.00  0.00    +0.218 C 
ATOM     28  O   UNL     1       1.625  -5.944   0.567  0.00  0.00    -0.275 OA
ATOM     29  H   UNL     1       2.529  -6.372  -2.353  0.00  0.00    +0.149 HD
BRANCH  26  30
ATOM     30  C   UNL     1       0.520  -5.863  -1.891  0.00  0.00    +0.139 C 
BRANCH  30  35
ATOM     31  C   UNL     1      -0.435  -6.055  -7.587  0.00  0.00    +0.044 C 
ATOM     32  C   UNL     1      -0.186  -6.005  -6.101  0.00  0.00    -0.048 A 
ATOM     33  C   UNL     1      -0.345  -7.145  -5.335  0.00  0.00    +0.004 A 
ATOM     34  C   UNL     1      -0.117  -7.099  -3.972  0.00  0.00    +0.005 A 
ATOM     35  C   UNL     1       0.272  -5.913  -3.376  0.00  0.00    -0.030 A 
ATOM     36  C   UNL     1       0.432  -4.774  -4.142  0.00  0.00    +0.008 A 
ATOM     37  C   UNL     1       0.207  -4.821  -5.506  0.00  0.00    -0.047 A 
ATOM     38  C   UNL     1       0.387  -3.581  -6.342  0.00  0.00    +0.044 C 
ENDBRANCH  30  35
ENDBRANCH  26  30
ENDBRANCH   1  27
TORSDOF 5
