REMARK  Name = ZINC59452640
REMARK  11 active torsions:
REMARK  status: ('A' for Active; 'I' for Inactive)
REMARK    1  A    between atoms: C_1  and  C_2
REMARK    2  A    between atoms: C_2  and  C_3
REMARK    3  A    between atoms: C_2  and  C_4
REMARK    4  A    between atoms: C_2  and  N_5
REMARK    5  A    between atoms: C_6  and  C_8
REMARK    6  A    between atoms: C_13  and  C_29
REMARK    7  A    between atoms: C_16  and  C_19
REMARK    8  A    between atoms: C_22  and  O_27
REMARK    9  A    between atoms: C_23  and  O_25
REMARK   10  A    between atoms: O_25  and  C_26
REMARK   11  A    between atoms: O_27  and  C_28
REMARK                            x       y       z     vdW  Elec       q    Type
REMARK                         _______ _______ _______ _____ _____    ______ ____
ROOT
ATOM      1  C   UNL     1       2.663  -0.609  -2.642  0.00  0.00    +0.149 A 
ATOM      2  C   UNL     1       4.002  -0.330  -2.998  0.00  0.00    +0.078 A 
ATOM      3  C   UNL     1       4.249  -0.946  -4.171  0.00  0.00    +0.119 A 
ATOM      4  N   UNL     1       3.111  -1.595  -4.558  0.00  0.00    -0.238 N 
ATOM      5  N   UNL     1       2.138  -1.374  -3.583  0.00  0.00    -0.164 NA
ATOM      6  C   UNL     1       3.000  -2.374  -5.794  0.00  0.00    +0.215 C 
ATOM      7  C   UNL     1       4.119  -1.949  -6.751  0.00  0.00    +0.063 C 
ATOM      8  C   UNL     1       5.466  -1.968  -6.020  0.00  0.00    +0.104 C 
ATOM      9  N   UNL     1       5.423  -0.974  -4.929  0.00  0.00    -0.322 N 
ATOM     10  H   UNL     1       6.165  -0.377  -4.749  0.00  0.00    +0.148 HD
ENDROOT
BRANCH   8  11
ATOM     11  C   UNL     1       5.713  -3.341  -5.449  0.00  0.00    -0.024 A 
ATOM     12  C   UNL     1       5.100  -3.717  -4.268  0.00  0.00    +0.009 A 
ATOM     13  C   UNL     1       5.323  -4.976  -3.741  0.00  0.00    +0.050 A 
ATOM     14  C   UNL     1       6.161  -5.863  -4.396  0.00  0.00    +0.162 A 
ATOM     15  C   UNL     1       6.777  -5.485  -5.585  0.00  0.00    +0.162 A 
ATOM     16  C   UNL     1       6.546  -4.224  -6.111  0.00  0.00    +0.054 A 
BRANCH  15  17
ATOM     17  O   UNL     1       7.600  -6.352  -6.233  0.00  0.00    -0.491 OA
ATOM     18  C   UNL     1       8.198  -5.896  -7.448  0.00  0.00    +0.277 C 
ENDBRANCH  15  17
BRANCH  14  19
ATOM     19  O   UNL     1       6.382  -7.101  -3.879  0.00  0.00    -0.491 OA
ATOM     20  C   UNL     1       5.716  -7.421  -2.655  0.00  0.00    +0.277 C 
ENDBRANCH  14  19
ENDBRANCH   8  11
BRANCH   1  22
ATOM     21  N   UNL     1       0.688  -0.476  -1.203  0.00  0.00    -0.305 N 
ATOM     22  C   UNL     1       1.972  -0.132  -1.427  0.00  0.00    +0.265 C 
ATOM     23  O   UNL     1       2.560   0.570  -0.629  0.00  0.00    -0.268 OA
ATOM     24  H   UNL     1       0.218  -1.037  -1.840  0.00  0.00    +0.150 HD
BRANCH  21  26
ATOM     25  C   UNL     1      -0.019   1.526   0.010  0.00  0.00    +0.031 C 
ATOM     26  C   UNL     1       0.002  -0.004   0.002  0.00  0.00    +0.027 C 
ATOM     27  C   UNL     1       0.742  -0.511   1.242  0.00  0.00    +0.031 C 
ATOM     28  C   UNL     1      -1.433  -0.534   0.013  0.00  0.00    +0.031 C 
ENDBRANCH  21  26
ENDBRANCH   1  22
BRANCH   6  29
ATOM     29  C   UNL     1       1.640  -2.112  -6.445  0.00  0.00    +0.412 C 
ATOM     30  F   UNL     1       1.519  -0.750  -6.740  0.00  0.00    -0.168 F 
ATOM     31  F   UNL     1       1.536  -2.857  -7.625  0.00  0.00    -0.168 F 
ATOM     32  F   UNL     1       0.621  -2.490  -5.564  0.00  0.00    -0.168 F 
ENDBRANCH   6  29
TORSDOF 6
