REMARK  Name = ZINC04908743
REMARK  10 active torsions:
REMARK  status: ('A' for Active; 'I' for Inactive)
REMARK    1  A    between atoms: C_1  and  C_2
REMARK    2  A    between atoms: C_4  and  C_30
REMARK    3  A    between atoms: C_6  and  N_8
REMARK    4  A    between atoms: N_11  and  C_12
REMARK    5  A    between atoms: C_17  and  C_18
REMARK    6  A    between atoms: C_17  and  N_65
REMARK    7  A    between atoms: N_20  and  C_21
REMARK    8  A    between atoms: C_22  and  C_29
REMARK    9  A    between atoms: C_24  and  C_28
REMARK   10  A    between atoms: C_26  and  C_27
REMARK                            x       y       z     vdW  Elec       q    Type
REMARK                         _______ _______ _______ _____ _____    ______ ____
ROOT
ATOM      1  C   UNL     1       0.294   2.840  -3.583  0.00  0.00    +0.071 C 
ATOM      2  C   UNL     1       0.702   2.965  -2.113  0.00  0.00    +0.004 C 
ATOM      3  C   UNL     1       0.593   1.594  -1.440  0.00  0.00    -0.076 C 
ATOM      4  C   UNL     1      -1.187   0.933  -2.946  0.00  0.00    -0.076 C 
ATOM      5  C   UNL     1      -1.131   2.284  -3.663  0.00  0.00    +0.004 C 
ATOM      6  N   UNL     1      -0.807   1.126  -1.530  0.00  0.00    +0.386 N 
ATOM      7  H   UNL     1      -1.423   1.834  -1.114  0.00  0.00    -0.081 HD
ENDROOT
BRANCH   1  11
ATOM      8  N   UNL     1       0.565   5.474  -6.133  0.00  0.00    -0.269 N 
ATOM      9  C   UNL     1       0.522   4.260  -5.550  0.00  0.00    +0.304 C 
ATOM     10  O   UNL     1       0.646   3.256  -6.224  0.00  0.00    -0.253 OA
ATOM     11  N   UNL     1       0.341   4.159  -4.218  0.00  0.00    -0.296 N 
ATOM     12  H   UNL     1       0.393   6.271  -5.609  0.00  0.00    +0.156 HD
ATOM     13  H   UNL     1       0.241   4.960  -3.680  0.00  0.00    +0.151 HD
BRANCH   8  19
ATOM     14  C   UNL     1      -0.061   7.794 -10.423  0.00  0.00    +0.044 C 
ATOM     15  C   UNL     1       0.569   6.699  -9.601  0.00  0.00    -0.048 A 
ATOM     16  C   UNL     1       1.438   5.802 -10.194  0.00  0.00    +0.006 A 
ATOM     17  C   UNL     1       2.018   4.796  -9.443  0.00  0.00    -0.048 A 
ATOM     18  C   UNL     1       1.731   4.685  -8.096  0.00  0.00    +0.026 A 
ATOM     19  C   UNL     1       0.859   5.585  -7.497  0.00  0.00    +0.035 A 
ATOM     20  C   UNL     1       0.274   6.590  -8.256  0.00  0.00    +0.026 A 
ATOM     21  C   UNL     1       2.965   3.821 -10.094  0.00  0.00    +0.044 C 
ENDBRANCH   8  19
ENDBRANCH   1  11
BRANCH   6  22
ATOM     22  C   UNL     1      -0.963  -0.142  -0.788  0.00  0.00    +0.019 C 
BRANCH  22  23
ATOM     23  C   UNL     1      -2.429  -0.481  -0.711  0.00  0.00    +0.201 C 
ATOM     24  O   UNL     1      -3.248   0.245  -1.233  0.00  0.00    -0.278 OA
ATOM     25  N   UNL     1      -2.831  -1.592  -0.062  0.00  0.00    -0.287 N 
ATOM     26  H   UNL     1      -2.174  -2.211   0.293  0.00  0.00    +0.155 HD
BRANCH  25  27
ATOM     27  C   UNL     1      -4.196  -1.853   0.100  0.00  0.00    +0.039 A 
ATOM     28  C   UNL     1      -5.032  -0.881   0.633  0.00  0.00    -0.029 A 
ATOM     29  C   UNL     1      -6.380  -1.139   0.786  0.00  0.00    +0.008 A 
ATOM     30  C   UNL     1      -6.896  -2.369   0.420  0.00  0.00    -0.050 A 
ATOM     31  C   UNL     1      -6.065  -3.342  -0.106  0.00  0.00    +0.008 A 
ATOM     32  C   UNL     1      -4.717  -3.087  -0.267  0.00  0.00    -0.029 A 
ATOM     33  C   UNL     1      -3.812  -4.147  -0.840  0.00  0.00    +0.045 C 
ATOM     34  C   UNL     1      -8.366  -2.651   0.595  0.00  0.00    +0.044 C 
ATOM     35  C   UNL     1      -4.470   0.458   1.038  0.00  0.00    +0.045 C 
ENDBRANCH  25  27
ENDBRANCH  22  23
ENDBRANCH   6  22
TORSDOF 5
