REMARK  Name = ZINC04675588
REMARK  3 active torsions:
REMARK  status: ('A' for Active; 'I' for Inactive)
REMARK    1  A    between atoms: C_6  and  C_7
REMARK    2  A    between atoms: C_10  and  C_21
REMARK    3  A    between atoms: C_10  and  O_25
REMARK                            x       y       z     vdW  Elec       q    Type
REMARK                         _______ _______ _______ _____ _____    ______ ____
ROOT
ATOM      1  C   UNL     1      -1.022  -0.046  -0.507  0.00  0.00    +0.269 C 
ATOM      2  O   UNL     1      -1.216  -1.229  -0.710  0.00  0.00    -0.268 OA
ATOM      3  N   UNL     1       0.216   0.392  -0.203  0.00  0.00    -0.148 N 
ATOM      4  C   UNL     1       1.397  -0.459   0.020  0.00  0.00    +0.259 C 
ATOM      5  C   UNL     1       2.521   0.568   0.279  0.00  0.00    +0.096 C 
ATOM      6  C   UNL     1       3.401   0.595  -1.023  0.00  0.00    +0.014 C 
ATOM      7  C   UNL     1       4.234   1.893  -0.988  0.00  0.00    +0.001 C 
ATOM      8  C   UNL     1       3.640   3.018  -1.775  0.00  0.00    +0.000 C 
ATOM      9  C   UNL     1       2.167   3.270  -1.841  0.00  0.00    +0.000 C 
ATOM     10  C   UNL     1       1.760   4.143  -0.589  0.00  0.00    +0.006 C 
ATOM     11  C   UNL     1       2.460   3.245   0.500  0.00  0.00    +0.053 C 
ATOM     12  C   UNL     1       1.825   1.895   0.231  0.00  0.00    +0.045 C 
ATOM     13  N   UNL     1       0.591   1.723  -0.046  0.00  0.00    -0.183 NA
ENDROOT
BRANCH   1  19
ATOM     14  C   UNL     1      -1.926   2.290  -0.478  0.00  0.00    +0.033 A 
ATOM     15  C   UNL     1      -3.003   3.151  -0.570  0.00  0.00    +0.111 A 
ATOM     16  N   UNL     1      -4.224   2.689  -0.755  0.00  0.00    -0.263 NA
ATOM     17  C   UNL     1      -4.476   1.400  -0.864  0.00  0.00    +0.111 A 
ATOM     18  C   UNL     1      -3.457   0.470  -0.789  0.00  0.00    +0.033 A 
ATOM     19  C   UNL     1      -2.146   0.914  -0.594  0.00  0.00    +0.042 A 
ENDBRANCH   1  19
BRANCH   4  20
ATOM     20  C   UNL     1       1.704  -1.295  -1.224  0.00  0.00    +0.438 C 
ATOM     21  F   UNL     1       1.595  -0.492  -2.365  0.00  0.00    -0.166 F 
ATOM     22  F   UNL     1       3.004  -1.804  -1.135  0.00  0.00    -0.166 F 
ATOM     23  F   UNL     1       0.793  -2.354  -1.311  0.00  0.00    -0.166 F 
ENDBRANCH   4  20
BRANCH   4  24
ATOM     24  O   UNL     1       1.206  -1.302   1.158  0.00  0.00    -0.363 OA
ATOM     25  H   UNL     1       0.462  -1.914   1.074  0.00  0.00    +0.212 HD
ENDBRANCH   4  24
TORSDOF 3
