REMARK  Name = ZINC61809532
REMARK  7 active torsions:
REMARK  status: ('A' for Active; 'I' for Inactive)
REMARK    1  A    between atoms: C_6  and  C_7
REMARK    2  A    between atoms: C_6  and  C_11
REMARK    3  A    between atoms: N_8  and  O_9
REMARK    4  A    between atoms: N_13  and  C_14
REMARK    5  A    between atoms: N_13  and  C_18
REMARK    6  A    between atoms: C_14  and  C_15
REMARK    7  A    between atoms: C_18  and  C_19
REMARK                            x       y       z     vdW  Elec       q    Type
REMARK                         _______ _______ _______ _____ _____    ______ ____
ROOT
ATOM      1  C   UNL     1       0.612  -0.501   1.249  0.00  0.00    +0.230 C 
ATOM      2  O   UNL     1       0.992   0.280   2.096  0.00  0.00    -0.275 OA
ATOM      3  N   UNL     1       0.841  -1.821   1.398  0.00  0.00    -0.283 N 
ENDROOT
BRANCH   1   9
ATOM      4  C   UNL     1      -0.312   1.520   0.143  0.00  0.00    +0.052 C 
ATOM      5  C   UNL     1       1.058   2.204   0.168  0.00  0.00    +0.161 C 
ATOM      6  O   UNL     1       1.785   1.853  -1.011  0.00  0.00    -0.380 OA
ATOM      7  C   UNL     1       2.040   0.453  -1.145  0.00  0.00    +0.161 C 
ATOM      8  C   UNL     1       0.709  -0.300  -1.223  0.00  0.00    +0.052 C 
ATOM      9  C   UNL     1      -0.116   0.005   0.030  0.00  0.00    +0.109 C 
BRANCH   9  10
ATOM     10  C   UNL     1      -1.459  -0.671  -0.073  0.00  0.00    +0.147 C 
ATOM     11  N   UNL     1      -2.278  -0.636   0.925  0.00  0.00    -0.076 NA
ATOM     12  N   UNL     1      -1.813  -1.325  -1.232  0.00  0.00    -0.343 N 
ATOM     13  H   UNL     1      -1.230  -1.289  -2.007  0.00  0.00    +0.144 HD
ATOM     14  H   UNL     1      -2.645  -1.822  -1.274  0.00  0.00    +0.144 HD
BRANCH  11  15
ATOM     15  O   UNL     1      -1.960   0.125   2.076  0.00  0.00    -0.408 OA
ATOM     16  H   UNL     1      -2.634   0.090   2.769  0.00  0.00    +0.328 HD
ENDBRANCH  11  15
ENDBRANCH   9  10
ENDBRANCH   1   9
BRANCH   3  17
ATOM     17  C   UNL     1       0.500  -2.749   0.318  0.00  0.00    +0.203 C 
BRANCH  17  18
ATOM     18  C   UNL     1       1.731  -3.042  -0.501  0.00  0.00    +0.228 C 
ATOM     19  O   UNL     1       2.789  -2.525  -0.211  0.00  0.00    -0.274 OA
ATOM     20  N   UNL     1       1.657  -3.877  -1.556  0.00  0.00    -0.328 N 
ATOM     21  H   UNL     1       0.810  -4.290  -1.788  0.00  0.00    +0.145 HD
ATOM     22  H   UNL     1       2.449  -4.065  -2.083  0.00  0.00    +0.145 HD
ENDBRANCH  17  18
ENDBRANCH   3  17
BRANCH   3  23
ATOM     23  C   UNL     1       1.431  -2.326   2.640  0.00  0.00    +0.203 C 
BRANCH  23  24
ATOM     24  C   UNL     1       0.334  -2.663   3.616  0.00  0.00    +0.228 C 
ATOM     25  O   UNL     1      -0.827  -2.497   3.305  0.00  0.00    -0.274 OA
ATOM     26  N   UNL     1       0.642  -3.149   4.835  0.00  0.00    -0.328 N 
ATOM     27  H   UNL     1       1.570  -3.281   5.084  0.00  0.00    +0.145 HD
ATOM     28  H   UNL     1      -0.064  -3.366   5.464  0.00  0.00    +0.145 HD
ENDBRANCH  23  24
ENDBRANCH   3  23
TORSDOF 7
