REMARK  Name = ZINC39006757
REMARK  7 active torsions:
REMARK  status: ('A' for Active; 'I' for Inactive)
REMARK    1  A    between atoms: C_1  and  C_2
REMARK    2  A    between atoms: C_5  and  C_8
REMARK    3  A    between atoms: C_10  and  C_14
REMARK    4  A    between atoms: C_18  and  S_22
REMARK    5  A    between atoms: N_20  and  N_21
REMARK    6  A    between atoms: S_22  and  C_23
REMARK    7  A    between atoms: C_23  and  C_24
REMARK                            x       y       z     vdW  Elec       q    Type
REMARK                         _______ _______ _______ _____ _____    ______ ____
ROOT
ATOM      1  C   UNL     1      -1.163  -7.211   0.973  0.00  0.00    +0.185 C 
ATOM      2  N   UNL     1      -2.378  -6.653   0.323  0.00  0.00    -0.234 NA
ATOM      3  N   UNL     1      -3.321  -7.782   0.359  0.00  0.00    -0.228 NA
ATOM      4  C   UNL     1      -2.482  -8.974   0.102  0.00  0.00    +0.214 C 
ATOM      5  N   UNL     1      -1.103  -8.612   0.497  0.00  0.00    -0.197 NA
ATOM      6  H   UNL     1      -2.184  -6.374  -0.627  0.00  0.00    +0.143 HD
ATOM      7  H   UNL     1      -3.774  -7.846   1.259  0.00  0.00    +0.143 HD
ENDROOT
BRANCH   1  10
ATOM      8  C   UNL     1       0.051  -4.251  -0.022  0.00  0.00    +0.091 C 
ATOM      9  C   UNL     1       0.063  -5.026   1.079  0.00  0.00    +0.034 C 
ATOM     10  C   UNL     1       0.083  -6.441   0.529  0.00  0.00    +0.187 C 
ATOM     11  N   UNL     1       0.078  -6.234  -0.929  0.00  0.00    -0.176 NA
ATOM     12  N   UNL     1       0.054  -5.020  -1.143  0.00  0.00    -0.154 NA
BRANCH   8  17
ATOM     13  C   UNL     1      -0.032   1.507   0.012  0.00  0.00    +0.044 C 
ATOM     14  C   UNL     1      -0.011   0.001   0.003  0.00  0.00    -0.050 A 
ATOM     15  C   UNL     1      -0.008  -0.681  -1.200  0.00  0.00    +0.004 A 
ATOM     16  C   UNL     1       0.012  -2.061  -1.214  0.00  0.00    +0.010 A 
ATOM     17  C   UNL     1       0.030  -2.768  -0.013  0.00  0.00    +0.002 A 
ATOM     18  C   UNL     1       0.027  -2.075   1.196  0.00  0.00    +0.010 A 
ATOM     19  C   UNL     1       0.012  -0.695   1.198  0.00  0.00    +0.004 A 
ENDBRANCH   8  17
ENDBRANCH   1  10
BRANCH   5  20
ATOM     20  N   UNL     1      -0.189  -8.743  -0.626  0.00  0.00    -0.264 NA
ATOM     21  H   UNL     1      -0.148  -9.697  -0.950  0.00  0.00    +0.137 HD
ATOM     22  H   UNL     1      -0.444  -8.117  -1.375  0.00  0.00    +0.137 HD
ENDBRANCH   5  20
BRANCH   4  23
ATOM     23  S   UNL     1      -3.066 -10.372   1.099  0.00  0.00    -0.115 S 
BRANCH  23  24
ATOM     24  C   UNL     1      -2.948  -9.773   2.807  0.00  0.00    +0.168 C 
BRANCH  24  25
ATOM     25  C   UNL     1      -3.409 -10.853   3.751  0.00  0.00    +0.228 C 
ATOM     26  O   UNL     1      -3.782 -11.922   3.315  0.00  0.00    -0.275 OA
ATOM     27  N   UNL     1      -3.409 -10.632   5.080  0.00  0.00    -0.270 N 
ATOM     28  C   UNL     1      -3.934 -11.589   5.947  0.00  0.00    +0.125 A 
ATOM     29  C   UNL     1      -4.027 -11.311   7.306  0.00  0.00    +0.045 A 
ATOM     30  C   UNL     1      -4.550 -12.269   8.156  0.00  0.00    +0.025 A 
ATOM     31  C   UNL     1      -4.965 -13.479   7.614  0.00  0.00    +0.059 A 
ATOM     32  C   UNL     1      -4.843 -13.688   6.253  0.00  0.00    +0.132 A 
ATOM     33  N   UNL     1      -4.345 -12.752   5.468  0.00  0.00    -0.239 NA
ATOM     34 CL   UNL     1      -5.628 -14.717   8.635  0.00  0.00    -0.082 Cl
ATOM     35  H   UNL     1      -3.042  -9.806   5.434  0.00  0.00    +0.156 HD
ENDBRANCH  24  25
ENDBRANCH  23  24
ENDBRANCH   4  23
TORSDOF 6
