REMARK  Name = ZINC12779778
REMARK  4 active torsions:
REMARK  status: ('A' for Active; 'I' for Inactive)
REMARK    1  A    between atoms: C_12  and  N_14
REMARK    2  A    between atoms: C_15  and  C_17
REMARK    3  A    between atoms: C_17  and  C_18
REMARK    4  A    between atoms: C_18  and  N_19
REMARK                            x       y       z     vdW  Elec       q    Type
REMARK                         _______ _______ _______ _____ _____    ______ ____
ROOT
ATOM      1  N   UNL     1       6.169  -4.170  -0.079  0.00  0.00    -0.285 N 
ATOM      2  C   UNL     1       7.495  -3.961  -0.193  0.00  0.00    +0.219 C 
ATOM      3  O   UNL     1       7.933  -2.830  -0.191  0.00  0.00    -0.275 OA
ATOM      4  H   UNL     1       5.825  -5.074  -0.004  0.00  0.00    +0.155 HD
ENDROOT
BRANCH   1  16
ATOM      5  C   UNL     1       0.207   1.554   0.791  0.00  0.00    +0.000 A 
ATOM      6  C   UNL     1       1.156   2.079  -0.067  0.00  0.00    +0.001 A 
ATOM      7  C   UNL     1       2.275   1.343  -0.400  0.00  0.00    +0.009 A 
ATOM      8  C   UNL     1       2.451   0.063   0.131  0.00  0.00    -0.014 A 
ATOM      9  C   UNL     1       1.490  -0.456   0.994  0.00  0.00    -0.035 A 
ATOM     10  C   UNL     1       0.375   0.286   1.321  0.00  0.00    +0.004 A 
ATOM     11  C   UNL     1       1.943  -1.837   1.401  0.00  0.00    +0.071 C 
ATOM     12  C   UNL     1       3.256  -2.070   0.695  0.00  0.00    -0.034 A 
ATOM     13  C   UNL     1       3.538  -0.929  -0.053  0.00  0.00    -0.014 A 
ATOM     14  C   UNL     1       4.709  -0.878  -0.813  0.00  0.00    +0.010 A 
ATOM     15  C   UNL     1       5.575  -1.950  -0.819  0.00  0.00    +0.024 A 
ATOM     16  C   UNL     1       5.288  -3.084  -0.070  0.00  0.00    +0.034 A 
ATOM     17  C   UNL     1       4.123  -3.140   0.687  0.00  0.00    +0.027 A 
ENDBRANCH   1  16
BRANCH   2  18
ATOM     18  C   UNL     1       8.435  -5.132  -0.322  0.00  0.00    +0.115 C 
BRANCH  18  19
ATOM     19  C   UNL     1       9.873  -4.623  -0.435  0.00  0.00    +0.125 C 
BRANCH  19  20
ATOM     20  N   UNL     1      10.786  -5.761  -0.561  0.00  0.00    -0.241 N 
ATOM     21  C   UNL     1      11.349  -6.386   0.506  0.00  0.00    +0.226 C 
ATOM     22  O   UNL     1      11.041  -6.256   1.671  0.00  0.00    -0.275 OA
ATOM     23  C   UNL     1      12.428  -7.267  -0.046  0.00  0.00    +0.091 C 
ATOM     24  C   UNL     1      12.692  -8.592   0.638  0.00  0.00    +0.040 C 
ATOM     25  C   UNL     1      13.551  -9.410  -0.304  0.00  0.00    -0.030 C 
ATOM     26  C   UNL     1      13.680  -9.169  -1.574  0.00  0.00    -0.030 C 
ATOM     27  C   UNL     1      12.972  -8.050  -2.308  0.00  0.00    +0.040 C 
ATOM     28  C   UNL     1      11.822  -7.599  -1.445  0.00  0.00    +0.091 C 
ATOM     29  C   UNL     1      11.147  -6.299  -1.755  0.00  0.00    +0.226 C 
ATOM     30  O   UNL     1      10.961  -5.821  -2.854  0.00  0.00    -0.275 OA
ENDBRANCH  19  20
ENDBRANCH  18  19
ENDBRANCH   2  18
TORSDOF 4
