REMARK  Name = ZINC08835221
REMARK  7 active torsions:
REMARK  status: ('A' for Active; 'I' for Inactive)
REMARK    1  A    between atoms: C_4  and  N_10
REMARK    2  A    between atoms: C_6  and  N_7
REMARK    3  A    between atoms: N_10  and  C_11
REMARK    4  A    between atoms: C_11  and  N_13
REMARK    5  A    between atoms: C_14  and  C_16
REMARK    6  A    between atoms: C_17  and  C_18
REMARK    7  A    between atoms: C_21  and  C_23
REMARK                            x       y       z     vdW  Elec       q    Type
REMARK                         _______ _______ _______ _____ _____    ______ ____
ROOT
ATOM      1  N   UNL     1       0.136   0.023  -4.747  0.00  0.00    -0.264 N 
ATOM      2  C   UNL     1       0.231  -0.643  -5.915  0.00  0.00    +0.242 C 
ATOM      3  O   UNL     1       0.248  -1.860  -5.922  0.00  0.00    -0.270 OA
ATOM      4  H   UNL     1       0.123   0.993  -4.741  0.00  0.00    +0.157 HD
ENDROOT
BRANCH   1   5
ATOM      5  C   UNL     1       0.061  -0.659  -3.587  0.00  0.00    +0.141 C 
ATOM      6  S   UNL     1       0.085  -2.370  -3.597  0.00  0.00    -0.018 S 
BRANCH   5   7
ATOM      7  N   UNL     1      -0.033   0.007  -2.419  0.00  0.00    -0.294 N 
ATOM      8  H   UNL     1      -0.110   0.974  -2.417  0.00  0.00    +0.154 HD
BRANCH   7  12
ATOM      9  C   UNL     1      -0.000  -2.087   1.188  0.00  0.00    +0.036 A 
ATOM     10  C   UNL     1       0.806  -0.974   1.033  0.00  0.00    +0.055 A 
ATOM     11  C   UNL     1       0.802  -0.277  -0.164  0.00  0.00    +0.200 A 
ATOM     12  C   UNL     1      -0.020  -0.697  -1.208  0.00  0.00    +0.082 A 
ATOM     13  C   UNL     1      -0.822  -1.818  -1.047  0.00  0.00    +0.059 A 
ATOM     14  C   UNL     1      -0.812  -2.507   0.151  0.00  0.00    +0.128 A 
ATOM     15  O   UNL     1       1.594   0.817  -0.318  0.00  0.00    -0.286 OA
BRANCH  14  16
ATOM     16  N   UNL     1      -1.673  -3.699   0.325  0.00  0.00    +0.056 N 
ATOM     17  O   UNL     1      -1.666  -4.307   1.380  0.00  0.00    -0.126 OA
ATOM     18  O   UNL     1      -2.389  -4.071  -0.588  0.00  0.00    -0.126 OA
ENDBRANCH  14  16
ENDBRANCH   7  12
ENDBRANCH   5   7
ENDBRANCH   1   5
BRANCH   2  19
ATOM     19  C   UNL     1       0.309   0.072  -7.131  0.00  0.00    +0.071 C 
ATOM     20  C   UNL     1       0.404  -0.600  -8.309  0.00  0.00    +0.051 C 
BRANCH  20  21
ATOM     21  C   UNL     1       0.483   0.115  -9.525  0.00  0.00    +0.129 A 
ATOM     22  C   UNL     1       0.583  -0.441 -10.787  0.00  0.00    +0.050 A 
ATOM     23  C   UNL     1       0.633   0.620 -11.694  0.00  0.00    +0.050 A 
ATOM     24  C   UNL     1       0.563   1.782 -10.957  0.00  0.00    +0.137 A 
ATOM     25  O   UNL     1       0.468   1.458  -9.655  0.00  0.00    -0.455 OA
BRANCH  24  26
ATOM     26  C   UNL     1       0.583   3.151 -11.505  0.00  0.00    +0.036 A 
ATOM     27  C   UNL     1       1.575   3.530 -12.414  0.00  0.00    +0.014 A 
ATOM     28  C   UNL     1       1.585   4.809 -12.926  0.00  0.00    +0.021 A 
ATOM     29  C   UNL     1       0.621   5.724 -12.534  0.00  0.00    +0.042 A 
ATOM     30  C   UNL     1      -0.362   5.359 -11.630  0.00  0.00    +0.040 A 
ATOM     31  C   UNL     1      -0.387   4.079 -11.114  0.00  0.00    +0.053 A 
ATOM     32 CL   UNL     1      -1.620   3.622  -9.980  0.00  0.00    -0.083 Cl
ATOM     33 CL   UNL     1       0.646   7.335 -13.179  0.00  0.00    -0.083 Cl
ENDBRANCH  24  26
ENDBRANCH  20  21
ENDBRANCH   2  19
TORSDOF 7
