REMARK  Name = ZINC01141380
REMARK  3 active torsions:
REMARK  status: ('A' for Active; 'I' for Inactive)
REMARK    1  A    between atoms: C_1  and  N_2
REMARK    2  A    between atoms: C_6  and  N_11
REMARK    3  A    between atoms: N_14  and  C_15
REMARK                            x       y       z     vdW  Elec       q    Type
REMARK                         _______ _______ _______ _____ _____    ______ ____
ROOT
ATOM      1  N   UNL     1       2.296   5.515   0.213  0.00  0.00    -0.269 N 
ATOM      2  C   UNL     1       2.316   4.173   0.089  0.00  0.00    +0.308 C 
ATOM      3  O   UNL     1       3.378   3.582   0.055  0.00  0.00    -0.252 OA
ATOM      4  N   UNL     1       1.160   3.487   0.002  0.00  0.00    -0.269 N 
ATOM      5  H   UNL     1       1.451   5.981   0.308  0.00  0.00    +0.156 HD
ATOM      6  H   UNL     1       0.316   3.963  -0.046  0.00  0.00    +0.156 HD
ENDROOT
BRANCH   1  12
ATOM      7  C   UNL     1       7.683   9.413  -0.140  0.00  0.00    +0.175 C 
ATOM      8  N   UNL     1       7.147   8.133   0.330  0.00  0.00    -0.247 N 
ATOM      9  C   UNL     1       5.854   7.694   0.172  0.00  0.00    +0.089 A 
ATOM     10  C   UNL     1       4.706   8.216  -0.411  0.00  0.00    +0.031 A 
ATOM     11  C   UNL     1       3.545   7.496  -0.394  0.00  0.00    +0.025 A 
ATOM     12  C   UNL     1       3.497   6.238   0.206  0.00  0.00    +0.037 A 
ATOM     13  C   UNL     1       4.624   5.701   0.797  0.00  0.00    +0.055 A 
ATOM     14  C   UNL     1       5.819   6.425   0.780  0.00  0.00    +0.114 A 
ATOM     15  N   UNL     1       7.067   6.209   1.243  0.00  0.00    -0.129 NA
ATOM     16  N   UNL     1       7.806   7.223   0.961  0.00  0.00    -0.065 NA
ENDBRANCH   1  12
BRANCH   4  17
ATOM     17  C   UNL     1       1.176   2.088  -0.019  0.00  0.00    +0.035 A 
ATOM     18  C   UNL     1       2.142   1.393   0.696  0.00  0.00    +0.024 A 
ATOM     19  C   UNL     1       2.156   0.012   0.673  0.00  0.00    +0.016 A 
ATOM     20  C   UNL     1       1.208  -0.678  -0.060  0.00  0.00    +0.013 A 
ATOM     21  C   UNL     1       0.244   0.011  -0.773  0.00  0.00    +0.016 A 
ATOM     22  C   UNL     1       0.226   1.392  -0.755  0.00  0.00    +0.024 A 
ATOM     23  I   UNL     1       1.232  -2.773  -0.091  0.00  0.00    -0.044 I 
ENDBRANCH   4  17
TORSDOF 2
