REMARK  Name = ZINC31412629
REMARK  8 active torsions:
REMARK  status: ('A' for Active; 'I' for Inactive)
REMARK    1  A    between atoms: C_1  and  C_2
REMARK    2  A    between atoms: C_2  and  C_4
REMARK    3  A    between atoms: C_2  and  N_17
REMARK    4  A    between atoms: N_6  and  C_7
REMARK    5  A    between atoms: N_20  and  S_23
REMARK    6  A    between atoms: S_23  and  C_26
REMARK    7  A    between atoms: C_29  and  C_32
REMARK    8  A    between atoms: C_32  and  C_34
REMARK                            x       y       z     vdW  Elec       q    Type
REMARK                         _______ _______ _______ _____ _____    ______ ____
ROOT
ATOM      1  N   UNL     1      -2.736   7.747  -2.196  0.00  0.00    +0.389 N 
ATOM      2  C   UNL     1      -2.374   9.149  -2.443  0.00  0.00    -0.060 C 
ATOM      3  C   UNL     1      -2.869   9.565  -3.832  0.00  0.00    +0.091 C 
ATOM      4  N   UNL     1      -4.306   9.268  -3.924  0.00  0.00    -0.180 NA
ATOM      5  C   UNL     1      -4.763   7.919  -3.560  0.00  0.00    +0.091 C 
ATOM      6  C   UNL     1      -4.194   7.568  -2.181  0.00  0.00    -0.060 C 
ATOM      7  H   UNL     1      -2.334   7.147  -3.026  0.00  0.00    -0.081 HD
ENDROOT
BRANCH   4   8
ATOM      8  S   UNL     1      -5.382  10.423  -4.426  0.00  0.00    +0.061 S 
ATOM      9  O   UNL     1      -4.644  11.355  -5.205  0.00  0.00    -0.153 OA
ATOM     10  O   UNL     1      -6.513   9.730  -4.936  0.00  0.00    -0.153 OA
BRANCH   8  11
ATOM     11  C   UNL     1      -5.926  11.287  -2.990  0.00  0.00    +0.106 A 
ATOM     12  C   UNL     1      -7.043  10.845  -2.303  0.00  0.00    +0.029 A 
ATOM     13  C   UNL     1      -7.473  11.513  -1.175  0.00  0.00    +0.013 A 
ATOM     14  C   UNL     1      -6.782  12.646  -0.733  0.00  0.00    +0.017 A 
ATOM     15  C   UNL     1      -5.657  13.089  -1.436  0.00  0.00    +0.013 A 
ATOM     16  C   UNL     1      -5.238  12.408  -2.559  0.00  0.00    +0.029 A 
BRANCH  14  17
ATOM     17  C   UNL     1      -7.236  13.367   0.467  0.00  0.00    +0.160 C 
ATOM     18  O   UNL     1      -6.635  14.348   0.848  0.00  0.00    -0.292 OA
ATOM     19  C   UNL     1      -8.449  12.886   1.221  0.00  0.00    +0.091 C 
ENDBRANCH  14  17
ENDBRANCH   8  11
ENDBRANCH   4   8
BRANCH   1  21
ATOM     20  C   UNL     1      -2.914   7.808   0.245  0.00  0.00    -0.004 C 
ATOM     21  C   UNL     1      -2.132   7.259  -0.950  0.00  0.00    +0.016 C 
BRANCH  21  22
ATOM     22  C   UNL     1      -2.174   5.753  -0.928  0.00  0.00    +0.200 C 
ATOM     23  O   UNL     1      -2.881   5.154  -1.710  0.00  0.00    -0.278 OA
ATOM     24  N   UNL     1      -1.424   5.071  -0.039  0.00  0.00    -0.311 N 
ATOM     25  H   UNL     1      -0.782   5.614   0.670  0.00  0.00    +0.149 HD
BRANCH  24  26
ATOM     26  C   UNL     1      -1.464   3.606  -0.018  0.00  0.00    +0.035 C 
ATOM     27  C   UNL     1      -1.013   3.064  -1.376  0.00  0.00    +0.029 C 
ATOM     28  C   UNL     1      -1.055   1.535  -1.353  0.00  0.00    -0.008 C 
ATOM     29  C   UNL     1      -0.119   1.015  -0.260  0.00  0.00    +0.007 C 
ATOM     30  C   UNL     1      -0.571   1.557   1.098  0.00  0.00    -0.008 C 
ATOM     31  C   UNL     1      -0.529   3.086   1.075  0.00  0.00    +0.029 C 
ATOM     32  C   UNL     1      -1.999   1.090   1.384  0.00  0.00    +0.007 C 
ATOM     33  C   UNL     1      -2.935   1.610   0.291  0.00  0.00    -0.008 C 
ATOM     34  C   UNL     1      -2.483   1.068  -1.067  0.00  0.00    +0.007 C 
ATOM     35  C   UNL     1      -2.893   3.140   0.269  0.00  0.00    +0.029 C 
ENDBRANCH  24  26
ENDBRANCH  21  22
ENDBRANCH   1  21
TORSDOF 6
