REMARK  Name = ZINC56576616
REMARK  3 active torsions:
REMARK  status: ('A' for Active; 'I' for Inactive)
REMARK    1  A    between atoms: C_1  and  C_2
REMARK    2  A    between atoms: C_8  and  C_10
REMARK    3  A    between atoms: N_18  and  C_19
REMARK                            x       y       z     vdW  Elec       q    Type
REMARK                         _______ _______ _______ _____ _____    ______ ____
ROOT
ATOM      1  C   UNL     1       0.111  -5.446   2.518  0.00  0.00    +0.078 C 
ATOM      2  C   UNL     1       1.601  -5.245   2.804  0.00  0.00    +0.032 C 
ATOM      3  C   UNL     1       1.934  -5.823   4.183  0.00  0.00    +0.110 C 
ATOM      4  N   UNL     1       1.494  -7.224   4.228  0.00  0.00    -0.285 N 
ATOM      5  C   UNL     1       0.102  -7.538   3.883  0.00  0.00    +0.110 C 
ATOM      6  C   UNL     1      -0.212  -6.942   2.507  0.00  0.00    +0.032 C 
ATOM      7  C   UNL     1       2.352  -8.202   4.580  0.00  0.00    +0.306 C 
ATOM      8  O   UNL     1       3.525  -7.942   4.771  0.00  0.00    -0.252 OA
ATOM      9  N   UNL     1       1.911  -9.467   4.720  0.00  0.00    -0.269 N 
ATOM     10  H   UNL     1       0.994  -9.689   4.494  0.00  0.00    +0.156 HD
ENDROOT
BRANCH   1  18
ATOM     11  C   UNL     1      -0.413   0.060  -2.360  0.00  0.00    +0.066 C 
ATOM     12  C   UNL     1      -0.557  -1.368  -1.899  0.00  0.00    +0.047 A 
ATOM     13  C   UNL     1      -1.046  -2.331  -2.718  0.00  0.00    +0.071 A 
ATOM     14  S   UNL     1      -0.974  -3.752  -1.640  0.00  0.00    -0.060 S 
ATOM     15  C   UNL     1      -0.339  -2.984  -0.284  0.00  0.00    +0.165 A 
ATOM     16  N   UNL     1      -0.206  -1.737  -0.681  0.00  0.00    -0.230 NA
ATOM     17  N   UNL     1      -0.027  -3.535   0.954  0.00  0.00    -0.264 N 
ATOM     18  C   UNL     1      -0.228  -4.849   1.177  0.00  0.00    +0.222 C 
ATOM     19  O   UNL     1      -0.683  -5.550   0.298  0.00  0.00    -0.275 OA
ATOM     20  H   UNL     1       0.337  -2.974   1.656  0.00  0.00    +0.157 HD
ENDBRANCH   1  18
BRANCH   9  21
ATOM     21  C   UNL     1       2.775 -10.462   5.192  0.00  0.00    +0.040 A 
ATOM     22  C   UNL     1       3.756 -10.146   6.122  0.00  0.00    +0.061 A 
ATOM     23  C   UNL     1       4.609 -11.131   6.587  0.00  0.00    +0.128 A 
ATOM     24  C   UNL     1       4.485 -12.430   6.126  0.00  0.00    +0.076 A 
ATOM     25  C   UNL     1       3.507 -12.747   5.198  0.00  0.00    +0.128 A 
ATOM     26  C   UNL     1       2.648 -11.767   4.735  0.00  0.00    +0.061 A 
ATOM     27  F   UNL     1       3.389 -14.016   4.749  0.00  0.00    -0.205 F 
ATOM     28  F   UNL     1       5.565 -10.824   7.492  0.00  0.00    -0.205 F 
ENDBRANCH   9  21
TORSDOF 2
