REMARK  Name = ZINC09915768
REMARK  12 active torsions:
REMARK  status: ('A' for Active; 'I' for Inactive)
REMARK    1  A    between atoms: C_1  and  C_2
REMARK    2  A    between atoms: C_2  and  C_28
REMARK    3  A    between atoms: C_3  and  C_26
REMARK    4  A    between atoms: C_3  and  O_27
REMARK    5  A    between atoms: C_4  and  C_24
REMARK    6  A    between atoms: C_4  and  O_25
REMARK    7  A    between atoms: C_5  and  C_22
REMARK    8  A    between atoms: C_5  and  O_23
REMARK    9  A    between atoms: C_6  and  C_8
REMARK   10  A    between atoms: C_6  and  O_9
REMARK   11  A    between atoms: O_9  and  C_10
REMARK   12  A    between atoms: C_28  and  O_29
REMARK                            x       y       z     vdW  Elec       q    Type
REMARK                         _______ _______ _______ _____ _____    ______ ____
ROOT
ATOM      1  C   UNL     1      -0.613   4.116   1.324  0.00  0.00    +0.047 C 
ATOM      2  C   UNL     1       0.227   3.414   0.249  0.00  0.00    +0.125 C 
ATOM      3  C   UNL     1       1.710   3.610   0.529  0.00  0.00    +0.125 C 
ATOM      4  C   UNL     1       2.294   4.886  -0.052  0.00  0.00    +0.129 C 
ATOM      5  C   UNL     1       1.809   5.207  -1.455  0.00  0.00    +0.159 C 
ATOM      6  C   UNL     1       0.323   4.966  -1.674  0.00  0.00    +0.242 C 
ATOM      7  O   UNL     1      -0.163   3.811  -1.041  0.00  0.00    -0.326 OA
ATOM      8  C   UNL     1      -0.483   6.207  -1.274  0.00  0.00    +0.092 C 
ATOM      9  C   UNL     1       2.112   6.688  -1.752  0.00  0.00    +0.051 C 
ATOM     10  C   UNL     1       2.052   6.071   0.890  0.00  0.00    +0.047 C 
ATOM     11  C   UNL     1       2.485   2.399  -0.016  0.00  0.00    +0.047 C 
ENDROOT
BRANCH   5  12
ATOM     12  O   UNL     1       2.549   4.419  -2.404  0.00  0.00    -0.379 OA
ATOM     13  H   UNL     1       2.295   4.570  -3.325  0.00  0.00    +0.211 HD
ENDBRANCH   5  12
BRANCH   4  14
ATOM     14  O   UNL     1       3.731   4.706  -0.125  0.00  0.00    -0.383 OA
ATOM     15  H   UNL     1       4.205   5.468  -0.485  0.00  0.00    +0.210 HD
ENDBRANCH   4  14
BRANCH   3  16
ATOM     16  O   UNL     1       1.898   3.633   1.958  0.00  0.00    -0.383 OA
ATOM     17  H   UNL     1       1.616   2.823   2.405  0.00  0.00    +0.210 HD
ENDBRANCH   3  16
BRANCH   6  18
ATOM     18  O   UNL     1       0.128   4.794  -3.100  0.00  0.00    -0.456 OA
BRANCH  18  19
ATOM     19  C   UNL     1      -1.127   4.467  -3.518  0.00  0.00    +0.151 A 
ATOM     20  C   UNL     1      -2.184   4.191  -2.734  0.00  0.00    +0.130 A 
ATOM     21  N   UNL     1      -3.281   3.908  -3.514  0.00  0.00    -0.358 N 
ATOM     22  H   UNL     1      -4.161   3.681  -3.176  0.00  0.00    +0.165 HD
ATOM     23  C   UNL     1      -2.940   3.991  -4.846  0.00  0.00    +0.052 A 
ATOM     24  C   UNL     1      -1.580   4.343  -4.907  0.00  0.00    +0.061 A 
ATOM     25  C   UNL     1      -0.956   4.500  -6.147  0.00  0.00    +0.068 A 
ATOM     26  C   UNL     1      -1.680   4.306  -7.304  0.00  0.00    +0.037 A 
ATOM     27  C   UNL     1      -3.022   3.958  -7.242  0.00  0.00    +0.019 A 
ATOM     28  C   UNL     1      -3.652   3.800  -6.026  0.00  0.00    +0.027 A 
ATOM     29 BR   UNL     1      -0.840   4.516  -8.985  0.00  0.00    -0.049 Br
ATOM     30 CL   UNL     1       0.723   4.936  -6.231  0.00  0.00    -0.082 Cl
ENDBRANCH  18  19
ENDBRANCH   6  18
BRANCH   2  31
ATOM     31  C   UNL     1      -0.066   1.898   0.379  0.00  0.00    +0.193 C 
BRANCH  31  32
ATOM     32  O   UNL     1      -1.451   1.657   0.125  0.00  0.00    -0.392 OA
ATOM     33  H   UNL     1      -1.707   0.726   0.190  0.00  0.00    +0.210 HD
ENDBRANCH  31  32
ENDBRANCH   2  31
TORSDOF 7
