REMARK  Name = ZINC08623658
REMARK  7 active torsions:
REMARK  status: ('A' for Active; 'I' for Inactive)
REMARK    1  A    between atoms: C_1  and  C_2
REMARK    2  A    between atoms: N_4  and  C_5
REMARK    3  A    between atoms: C_8  and  N_11
REMARK    4  A    between atoms: C_12  and  C_14
REMARK    5  A    between atoms: C_14  and  N_15
REMARK    6  A    between atoms: C_18  and  C_22
REMARK    7  A    between atoms: C_18  and  C_23
REMARK                            x       y       z     vdW  Elec       q    Type
REMARK                         _______ _______ _______ _____ _____    ______ ____
ROOT
ATOM      1  C   UNL     1       3.358   6.051  -0.255  0.00  0.00    +0.214 C 
ENDROOT
BRANCH   1   2
ATOM      2  N   UNL     1       3.002   7.469  -0.356  0.00  0.00    -0.215 N 
ATOM      3  C   UNL     1       2.874   8.295   0.701  0.00  0.00    +0.251 C 
ATOM      4  O   UNL     1       3.026   8.015   1.871  0.00  0.00    -0.272 OA
ATOM      5  C   UNL     1       2.501   9.645   0.123  0.00  0.00    +0.135 C 
ATOM      6  N   UNL     1       2.457   9.401  -1.329  0.00  0.00    -0.281 N 
ATOM      7  C   UNL     1       2.768   8.104  -1.510  0.00  0.00    +0.310 C 
ATOM      8  O   UNL     1       2.827   7.569  -2.599  0.00  0.00    -0.252 OA
ATOM      9  C   UNL     1       1.129  10.090   0.636  0.00  0.00    +0.047 C 
ATOM     10  H   UNL     1       2.249  10.049  -2.019  0.00  0.00    +0.152 HD
BRANCH   5  11
ATOM     11  C   UNL     1       3.551  10.673   0.457  0.00  0.00    -0.015 A 
ATOM     12  C   UNL     1       4.281  10.562   1.625  0.00  0.00    +0.007 A 
ATOM     13  C   UNL     1       5.249  11.501   1.929  0.00  0.00    +0.020 A 
ATOM     14  C   UNL     1       5.479  12.559   1.068  0.00  0.00    +0.041 A 
ATOM     15  C   UNL     1       4.744  12.674  -0.099  0.00  0.00    +0.020 A 
ATOM     16  C   UNL     1       3.781  11.731  -0.404  0.00  0.00    +0.007 A 
ATOM     17 CL   UNL     1       6.688  13.744   1.452  0.00  0.00    -0.084 Cl
ENDBRANCH   5  11
ENDBRANCH   1   2
BRANCH   1  19
ATOM     18  N   UNL     1       2.188   3.885  -0.012  0.00  0.00    -0.284 N 
ATOM     19  C   UNL     1       2.104   5.226  -0.121  0.00  0.00    +0.235 C 
ATOM     20  O   UNL     1       1.019   5.769  -0.111  0.00  0.00    -0.274 OA
ATOM     21  H   UNL     1       3.056   3.458   0.054  0.00  0.00    +0.155 HD
BRANCH  18  25
ATOM     22  C   UNL     1      -1.286   1.580   0.043  0.00  0.00    +0.033 A 
ATOM     23  C   UNL     1      -1.235   2.741  -0.717  0.00  0.00    +0.025 A 
ATOM     24  C   UNL     1      -0.086   3.505  -0.734  0.00  0.00    +0.025 A 
ATOM     25  C   UNL     1       1.022   3.110   0.005  0.00  0.00    +0.034 A 
ATOM     26  C   UNL     1       0.973   1.946   0.760  0.00  0.00    +0.025 A 
ATOM     27  C   UNL     1      -0.176   1.182   0.777  0.00  0.00    +0.025 A 
BRANCH  22  31
ATOM     28  C   UNL     1      -4.408  -0.218  -1.053  0.00  0.00    +0.109 C 
ATOM     29  C   UNL     1      -3.209   0.695  -1.046  0.00  0.00    +0.214 C 
ATOM     30  O   UNL     1      -2.922   1.327  -2.040  0.00  0.00    -0.276 OA
ATOM     31  N   UNL     1      -2.455   0.808   0.066  0.00  0.00    -0.286 N 
ATOM     32  H   UNL     1      -2.721   0.355   0.881  0.00  0.00    +0.155 HD
ENDBRANCH  22  31
ENDBRANCH  18  25
ENDBRANCH   1  19
TORSDOF 5
