REMARK  Name = ZINC18062595
REMARK  5 active torsions:
REMARK  status: ('A' for Active; 'I' for Inactive)
REMARK    1  A    between atoms: C_1  and  O_2
REMARK    2  A    between atoms: O_2  and  C_3
REMARK    3  A    between atoms: C_3  and  C_5
REMARK    4  A    between atoms: N_7  and  C_24
REMARK    5  A    between atoms: N_14  and  C_17
REMARK                            x       y       z     vdW  Elec       q    Type
REMARK                         _______ _______ _______ _____ _____    ______ ____
ROOT
ATOM      1  C   UNL     1       0.648  -2.047  -1.243  0.00  0.00    +0.157 C 
ATOM      2  N   UNL     1       0.087  -2.867  -0.357  0.00  0.00    -0.176 NA
ATOM      3  N   UNL     1       0.399  -4.228  -0.636  0.00  0.00    -0.211 N 
ATOM      4  C   UNL     1       1.672  -4.183  -1.335  0.00  0.00    +0.203 C 
ATOM      5  C   UNL     1       1.367  -2.878  -2.162  0.00  0.00    +0.164 C 
ATOM      6  C   UNL     1       2.380  -2.915  -3.183  0.00  0.00    +0.238 C 
ATOM      7  O   UNL     1       2.930  -1.972  -3.710  0.00  0.00    -0.274 OA
ATOM      8  N   UNL     1       2.590  -4.249  -3.432  0.00  0.00    -0.208 N 
ATOM      9  C   UNL     1       1.980  -5.070  -2.501  0.00  0.00    +0.250 C 
ATOM     10  O   UNL     1       1.730  -6.251  -2.608  0.00  0.00    -0.273 OA
ENDROOT
BRANCH   8  11
ATOM     11  C   UNL     1       3.356  -4.731  -4.503  0.00  0.00    +0.044 A 
ATOM     12  C   UNL     1       3.513  -6.098  -4.686  0.00  0.00    +0.025 A 
ATOM     13  C   UNL     1       4.268  -6.570  -5.741  0.00  0.00    +0.017 A 
ATOM     14  C   UNL     1       4.869  -5.682  -6.615  0.00  0.00    +0.018 A 
ATOM     15  C   UNL     1       4.715  -4.319  -6.435  0.00  0.00    +0.017 A 
ATOM     16  C   UNL     1       3.955  -3.842  -5.384  0.00  0.00    +0.025 A 
ATOM     17 BR   UNL     1       5.904  -6.332  -8.059  0.00  0.00    -0.050 Br
ENDBRANCH   8  11
BRANCH   3  18
ATOM     18  C   UNL     1      -0.353  -5.358  -0.310  0.00  0.00    +0.052 A 
ATOM     19  C   UNL     1       0.241  -6.614  -0.308  0.00  0.00    +0.026 A 
ATOM     20  C   UNL     1      -0.505  -7.729   0.015  0.00  0.00    +0.017 A 
ATOM     21  C   UNL     1      -1.845  -7.598   0.337  0.00  0.00    +0.018 A 
ATOM     22  C   UNL     1      -2.440  -6.348   0.336  0.00  0.00    +0.017 A 
ATOM     23  C   UNL     1      -1.697  -5.228   0.020  0.00  0.00    +0.026 A 
ATOM     24 BR   UNL     1      -2.864  -9.128   0.779  0.00  0.00    -0.050 Br
ENDBRANCH   3  18
BRANCH   1  25
ATOM     25  C   UNL     1       0.549  -0.633  -1.273  0.00  0.00    +0.356 C 
ATOM     26  O   UNL     1       1.112  -0.003  -2.148  0.00  0.00    -0.244 OA
BRANCH  25  28
ATOM     27  C   UNL     1      -0.226   1.438  -0.423  0.00  0.00    +0.280 C 
ATOM     28  O   UNL     1      -0.169   0.014  -0.331  0.00  0.00    -0.464 OA
ENDBRANCH  25  28
ENDBRANCH   1  25
TORSDOF 4
