REMARK  Name = ZINC22749084
REMARK  6 active torsions:
REMARK  status: ('A' for Active; 'I' for Inactive)
REMARK    1  A    between atoms: C_1  and  C_2
REMARK    2  A    between atoms: C_13  and  C_18
REMARK    3  A    between atoms: C_20  and  C_24
REMARK    4  A    between atoms: N_22  and  C_23
REMARK    5  A    between atoms: C_29  and  C_31
REMARK    6  A    between atoms: N_34  and  C_36
REMARK                            x       y       z     vdW  Elec       q    Type
REMARK                         _______ _______ _______ _____ _____    ______ ____
ROOT
ATOM      1  C   UNL     1      -0.018   1.503   0.010  0.00  0.00    +0.065 C 
ATOM      2  C   UNL     1       0.002  -0.004   0.002  0.00  0.00    +0.041 A 
ATOM      3  C   UNL     1       0.008  -0.790  -1.085  0.00  0.00    +0.048 A 
ATOM      4  C   UNL     1       0.029  -2.135  -0.656  0.00  0.00    +0.245 A 
ATOM      5  N   UNL     1       0.035  -2.141   0.646  0.00  0.00    -0.135 NA
ATOM      6  N   UNL     1       0.024  -0.809   1.090  0.00  0.00    -0.278 N 
ATOM      7  H   UNL     1       0.029  -0.516   2.014  0.00  0.00    +0.189 HD
ATOM      8  O   UNL     1       0.039  -3.171  -1.532  0.00  0.00    -0.418 OA
ATOM      9  C   UNL     1      -0.277  -2.920  -2.832  0.00  0.00    +0.232 A 
ATOM     10  C   UNL     1      -0.312  -1.654  -3.348  0.00  0.00    +0.071 A 
ATOM     11  C   UNL     1      -0.658  -1.535  -4.707  0.00  0.00    +0.167 A 
ATOM     12  N   UNL     1      -0.787  -0.500  -5.501  0.00  0.00    -0.205 NA
ATOM     13  C   UNL     1      -1.138  -0.918  -6.725  0.00  0.00    +0.202 A 
ATOM     14  N   UNL     1      -1.240  -2.239  -6.729  0.00  0.00    -0.142 NA
ATOM     15  N   UNL     1      -0.937  -2.670  -5.445  0.00  0.00    -0.201 N 
ATOM     16  C   UNL     1      -0.882  -3.900  -4.874  0.00  0.00    +0.229 A 
ATOM     17  N   UNL     1      -0.559  -3.982  -3.608  0.00  0.00    -0.201 NA
ATOM     18  C   UNL     1      -0.004  -0.419  -2.544  0.00  0.00    +0.098 C 
ENDROOT
BRANCH  13  19
ATOM     19  C   UNL     1      -1.377  -0.040  -7.892  0.00  0.00    +0.126 A 
ATOM     20  C   UNL     1      -1.274   1.323  -7.915  0.00  0.00    +0.101 A 
ATOM     21  C   UNL     1      -1.580   1.754  -9.207  0.00  0.00    +0.184 A 
ATOM     22  N   UNL     1      -1.859   0.706  -9.941  0.00  0.00    -0.165 NA
ATOM     23  N   UNL     1      -1.735  -0.440  -9.146  0.00  0.00    -0.262 N 
ATOM     24  C   UNL     1      -1.955  -1.822  -9.582  0.00  0.00    +0.173 C 
ATOM     25 CL   UNL     1      -0.838   2.338  -6.575  0.00  0.00    -0.079 Cl
BRANCH  21  26
ATOM     26  C   UNL     1      -1.590   3.185  -9.677  0.00  0.00    +0.437 C 
ATOM     27  F   UNL     1      -0.322   3.526 -10.159  0.00  0.00    -0.164 F 
ATOM     28  F   UNL     1      -2.533   3.333 -10.700  0.00  0.00    -0.164 F 
ATOM     29  F   UNL     1      -1.925   4.025  -8.610  0.00  0.00    -0.164 F 
ENDBRANCH  21  26
ENDBRANCH  13  19
BRANCH  18  30
ATOM     30  C   UNL     1       1.345   0.121  -2.941  0.00  0.00    +0.002 A 
ATOM     31  C   UNL     1       2.561  -0.567  -2.867  0.00  0.00    +0.139 A 
ATOM     32  N   UNL     1       3.507   0.228  -3.298  0.00  0.00    -0.180 NA
ATOM     33  N   UNL     1       2.922   1.448  -3.661  0.00  0.00    -0.274 N 
ATOM     34  C   UNL     1       1.594   1.355  -3.438  0.00  0.00    +0.112 A 
ATOM     35  C   UNL     1       3.626   2.616  -4.195  0.00  0.00    +0.172 C 
ENDBRANCH  18  30
TORSDOF 3
