REMARK  Name = ZINC34890488
REMARK  11 active torsions:
REMARK  status: ('A' for Active; 'I' for Inactive)
REMARK    1  A    between atoms: C_1  and  C_2
REMARK    2  A    between atoms: N_5  and  S_11
REMARK    3  A    between atoms: C_7  and  C_10
REMARK    4  A    between atoms: S_11  and  C_14
REMARK    5  A    between atoms: C_17  and  N_20
REMARK    6  A    between atoms: C_21  and  C_23
REMARK    7  A    between atoms: C_23  and  N_24
REMARK    8  A    between atoms: N_24  and  C_25
REMARK    9  A    between atoms: N_24  and  C_26
REMARK   10  A    between atoms: C_26  and  C_28
REMARK   11  A    between atoms: C_26  and  C_29
REMARK                            x       y       z     vdW  Elec       q    Type
REMARK                         _______ _______ _______ _____ _____    ______ ____
ROOT
ATOM      1  C   UNL     1       2.707   2.375  -2.100  0.00  0.00    +0.106 A 
ATOM      2  C   UNL     1       1.615   3.049  -2.617  0.00  0.00    +0.030 A 
ATOM      3  C   UNL     1       1.473   4.405  -2.400  0.00  0.00    +0.025 A 
ATOM      4  C   UNL     1       2.427   5.093  -1.662  0.00  0.00    +0.033 A 
ATOM      5  C   UNL     1       3.522   4.413  -1.143  0.00  0.00    +0.025 A 
ATOM      6  C   UNL     1       3.656   3.056  -1.359  0.00  0.00    +0.030 A 
ENDROOT
BRANCH   4   7
ATOM      7  N   UNL     1       2.286   6.467  -1.441  0.00  0.00    -0.287 N 
ATOM      8  C   UNL     1       1.749   7.252  -2.396  0.00  0.00    +0.201 C 
ATOM      9  O   UNL     1       1.311   6.756  -3.412  0.00  0.00    -0.278 OA
ATOM     10  H   UNL     1       2.576   6.856  -0.600  0.00  0.00    +0.155 HD
BRANCH   8  11
ATOM     11  C   UNL     1       1.692   8.745  -2.201  0.00  0.00    +0.019 C 
BRANCH  11  12
ATOM     12  N   UNL     1       1.066   9.369  -3.374  0.00  0.00    +0.388 N 
ATOM     13  C   UNL     1       1.919   9.163  -4.552  0.00  0.00    -0.095 C 
ATOM     14  H   UNL     1       0.163   8.950  -3.536  0.00  0.00    -0.081 HD
BRANCH  12  15
ATOM     15  C   UNL     1       0.902  10.809  -3.134  0.00  0.00    -0.034 C 
ATOM     16  C   UNL     1       0.250  11.459  -4.356  0.00  0.00    -0.008 C 
BRANCH  15  17
ATOM     17  C   UNL     1       0.027  11.020  -1.926  0.00  0.00    -0.024 A 
ATOM     18  C   UNL     1       0.146  11.938  -0.936  0.00  0.00    +0.009 A 
ATOM     19  C   UNL     1      -0.785  11.947   0.085  0.00  0.00    +0.008 A 
ATOM     20  C   UNL     1      -1.790  11.038   0.067  0.00  0.00    +0.045 A 
ATOM     21  S   UNL     1      -1.440  10.132  -1.431  0.00  0.00    -0.103 S 
ENDBRANCH  15  17
ENDBRANCH  12  15
ENDBRANCH  11  12
ENDBRANCH   8  11
ENDBRANCH   4   7
BRANCH   1  22
ATOM     22  S   UNL     1       2.884   0.645  -2.378  0.00  0.00    +0.061 S 
ATOM     23  O   UNL     1       4.269   0.352  -2.247  0.00  0.00    -0.153 OA
ATOM     24  O   UNL     1       2.151   0.346  -3.559  0.00  0.00    -0.153 OA
BRANCH  22  28
ATOM     25  C   UNL     1      -0.033   1.540   0.036  0.00  0.00    +0.039 C 
ATOM     26  C   UNL     1      -0.019   0.010   0.032  0.00  0.00    +0.131 C 
ATOM     27  C   UNL     1       0.692  -0.492  -1.230  0.00  0.00    +0.140 C 
ATOM     28  N   UNL     1       2.116  -0.133  -1.135  0.00  0.00    -0.172 NA
ATOM     29  C   UNL     1       2.837  -0.486   0.099  0.00  0.00    +0.140 C 
ATOM     30  C   UNL     1       2.022   0.016   1.296  0.00  0.00    +0.131 C 
ATOM     31  O   UNL     1       0.679  -0.464   1.186  0.00  0.00    -0.371 OA
ATOM     32  C   UNL     1       2.646  -0.503   2.593  0.00  0.00    +0.039 C 
ENDBRANCH  22  28
ENDBRANCH   1  22
TORSDOF 7
