REMARK  Name = ZINC39450714
REMARK  0 active torsions:
REMARK  status: ('A' for Active; 'I' for Inactive)
REMARK                            x       y       z     vdW  Elec       q    Type
REMARK                         _______ _______ _______ _____ _____    ______ ____
ROOT
ATOM      1  C   UNL     1      -0.017   1.391   0.010  0.00  0.00    +0.031 A 
ATOM      2  C   UNL     1       1.197   2.057   0.002  0.00  0.00    +0.032 A 
ATOM      3  C   UNL     1       2.379   1.329  -0.013  0.00  0.00    +0.125 A 
ATOM      4  N   UNL     1       2.377   0.013  -0.020  0.00  0.00    -0.252 NA
ATOM      5  C   UNL     1       1.243  -0.677  -0.013  0.00  0.00    +0.099 A 
ATOM      6  C   UNL     1       0.002  -0.004   0.002  0.00  0.00    +0.070 A 
ATOM      7  C   UNL     1      -1.236  -0.796   0.009  0.00  0.00    +0.289 A 
ATOM      8  O   UNL     1      -2.317  -0.236   0.022  0.00  0.00    -0.265 OA
ATOM      9  N   UNL     1      -1.175  -2.140   0.000  0.00  0.00    -0.136 N 
ATOM     10  C   UNL     1       0.032  -2.826  -0.016  0.00  0.00    +0.144 A 
ATOM     11  C   UNL     1       1.236  -2.146  -0.019  0.00  0.00    +0.086 A 
ATOM     12  N   UNL     1       2.425  -2.850  -0.021  0.00  0.00    -0.311 N 
ATOM     13  C   UNL     1       2.434  -4.204   0.554  0.00  0.00    +0.259 C 
ATOM     14  C   UNL     1       1.315  -5.014  -0.108  0.00  0.00    +0.138 C 
ATOM     15  C   UNL     1       0.025  -4.240  -0.027  0.00  0.00    +0.188 C 
ATOM     16  O   UNL     1      -1.032  -4.837   0.027  0.00  0.00    -0.290 OA
ATOM     17  F   UNL     1       3.669  -4.813   0.306  0.00  0.00    -0.224 F 
ATOM     18  F   UNL     1      -2.284  -2.819   0.007  0.00  0.00    -0.090 F 
ATOM     19  I   UNL     1       1.250   4.152   0.011  0.00  0.00    -0.042 I 
ATOM     20  H   UNL     1       3.232  -2.462  -0.392  0.00  0.00    +0.149 HD
ENDROOT
TORSDOF 0
