REMARK  Name = ZINC02502500
REMARK  7 active torsions:
REMARK  status: ('A' for Active; 'I' for Inactive)
REMARK    1  A    between atoms: C_1  and  O_2
REMARK    2  A    between atoms: O_2  and  C_3
REMARK    3  A    between atoms: C_5  and  C_12
REMARK    4  A    between atoms: C_8  and  O_9
REMARK    5  A    between atoms: O_9  and  C_10
REMARK    6  A    between atoms: C_21  and  N_25
REMARK    7  A    between atoms: C_22  and  C_23
REMARK                            x       y       z     vdW  Elec       q    Type
REMARK                         _______ _______ _______ _____ _____    ______ ____
ROOT
ATOM      1  C   UNL     1      -3.114   5.962   1.522  0.00  0.00    +0.098 C 
ATOM      2  C   UNL     1      -2.503   4.828   0.743  0.00  0.00    +0.011 A 
ATOM      3  C   UNL     1      -1.927   3.769   1.423  0.00  0.00    +0.057 A 
ATOM      4  C   UNL     1      -1.361   2.716   0.724  0.00  0.00    +0.167 A 
ATOM      5  C   UNL     1      -1.372   2.723  -0.669  0.00  0.00    +0.170 A 
ATOM      6  C   UNL     1      -1.947   3.783  -1.347  0.00  0.00    +0.096 A 
ATOM      7  C   UNL     1      -2.515   4.838  -0.643  0.00  0.00    +0.138 A 
ATOM      8  O   UNL     1      -3.074   5.868  -1.326  0.00  0.00    -0.441 OA
ATOM      9  C   UNL     1      -3.948   6.683  -0.713  0.00  0.00    +0.199 C 
ATOM     10  C   UNL     1      -4.017   6.774   0.636  0.00  0.00    +0.098 C 
ATOM     11  O   UNL     1      -0.760   1.588  -1.116  0.00  0.00    -0.452 OA
ATOM     12  C   UNL     1      -0.013   1.086   0.008  0.00  0.00    +0.466 C 
ATOM     13  O   UNL     1      -0.738   1.576   1.151  0.00  0.00    -0.453 OA
ENDROOT
BRANCH   1  16
ATOM     14  C   UNL     1      -0.871   7.830   3.921  0.00  0.00    +0.163 A 
ATOM     15  C   UNL     1      -1.879   7.019   3.424  0.00  0.00    +0.054 A 
ATOM     16  C   UNL     1      -2.018   6.845   2.060  0.00  0.00    -0.030 A 
ATOM     17  C   UNL     1      -1.149   7.476   1.188  0.00  0.00    +0.023 A 
ATOM     18  C   UNL     1      -0.145   8.291   1.677  0.00  0.00    +0.063 A 
ATOM     19  C   UNL     1      -0.000   8.469   3.044  0.00  0.00    +0.175 A 
ATOM     20 BR   UNL     1       1.036   9.157   0.480  0.00  0.00    -0.046 Br
BRANCH  14  22
ATOM     21  C   UNL     1      -1.664   7.316   6.103  0.00  0.00    +0.277 C 
ATOM     22  O   UNL     1      -0.734   8.002   5.263  0.00  0.00    -0.491 OA
ENDBRANCH  14  22
BRANCH  19  23
ATOM     23  O   UNL     1       0.990   9.267   3.527  0.00  0.00    -0.490 OA
ATOM     24  C   UNL     1       2.246   8.645   3.805  0.00  0.00    +0.277 C 
ENDBRANCH  19  23
ENDBRANCH   1  16
BRANCH   9  25
ATOM     25  N   UNL     1      -4.795   7.447  -1.476  0.00  0.00    -0.328 N 
ATOM     26  H   UNL     1      -4.757   7.393  -2.444  0.00  0.00    +0.145 HD
ATOM     27  H   UNL     1      -5.432   8.040  -1.048  0.00  0.00    +0.145 HD
ENDBRANCH   9  25
BRANCH  10  28
ATOM     28  C   UNL     1      -4.971   7.661   1.232  0.00  0.00    +0.101 C 
ATOM     29  N   UNL     1      -5.728   8.364   1.704  0.00  0.00    -0.191 NA
ENDBRANCH  10  28
TORSDOF 5
