REMARK  Name = ZINC03007087
REMARK  7 active torsions:
REMARK  status: ('A' for Active; 'I' for Inactive)
REMARK    1  A    between atoms: C_1  and  C_2
REMARK    2  A    between atoms: C_2  and  N_63
REMARK    3  A    between atoms: C_8  and  N_13
REMARK    4  A    between atoms: C_9  and  C_10
REMARK    5  A    between atoms: C_14  and  C_16
REMARK    6  A    between atoms: C_19  and  S_22
REMARK    7  A    between atoms: S_22  and  N_25
REMARK                            x       y       z     vdW  Elec       q    Type
REMARK                         _______ _______ _______ _____ _____    ______ ____
ROOT
ATOM      1  N   UNL     1       2.560  -4.276  -2.619  0.00  0.00    -0.275 N 
ATOM      2  C   UNL     1       1.707  -4.424  -1.586  0.00  0.00    +0.249 C 
ATOM      3  O   UNL     1       1.931  -5.255  -0.728  0.00  0.00    -0.270 OA
ATOM      4  H   UNL     1       2.381  -3.612  -3.305  0.00  0.00    +0.156 HD
ENDROOT
BRANCH   1  10
ATOM      5  C   UNL     1       8.065  -6.897  -3.794  0.00  0.00    -0.074 C 
ATOM      6  C   UNL     1       6.937  -6.142  -4.503  0.00  0.00    +0.018 C 
ATOM      7  C   UNL     1       5.770  -6.010  -3.532  0.00  0.00    -0.027 A 
ATOM      8  C   UNL     1       5.704  -6.802  -2.438  0.00  0.00    -0.021 A 
ATOM      9  S   UNL     1       4.223  -6.305  -1.609  0.00  0.00    -0.079 S 
ATOM     10  C   UNL     1       3.691  -5.070  -2.703  0.00  0.00    +0.085 A 
ATOM     11  C   UNL     1       4.678  -5.067  -3.681  0.00  0.00    +0.068 A 
ATOM     12  C   UNL     1       6.691  -7.857  -2.044  0.00  0.00    -0.035 C 
ATOM     13  N   UNL     1       7.534  -8.154  -3.228  0.00  0.00    +0.383 N 
ATOM     14  H   UNL     1       6.959  -8.623  -3.938  0.00  0.00    -0.081 HD
BRANCH  11  15
ATOM     15  C   UNL     1       4.618  -4.145  -4.820  0.00  0.00    +0.244 C 
ATOM     16  O   UNL     1       5.136  -3.047  -4.741  0.00  0.00    -0.270 OA
ATOM     17  N   UNL     1       3.989  -4.514  -5.953  0.00  0.00    -0.325 N 
ATOM     18  H   UNL     1       3.576  -5.390  -6.016  0.00  0.00    +0.145 HD
ATOM     19  H   UNL     1       3.949  -3.905  -6.706  0.00  0.00    +0.145 HD
ENDBRANCH  11  15
BRANCH  13  21
ATOM     20  C   UNL     1       9.587  -8.340  -1.865  0.00  0.00    -0.017 C 
ATOM     21  C   UNL     1       8.648  -9.047  -2.844  0.00  0.00    -0.082 C 
ENDBRANCH  13  21
ENDBRANCH   1  10
BRANCH   2  22
ATOM     22  C   UNL     1       0.500  -3.576  -1.497  0.00  0.00    +0.037 A 
ATOM     23  C   UNL     1      -0.385  -3.726  -0.428  0.00  0.00    +0.015 A 
ATOM     24  C   UNL     1      -1.510  -2.931  -0.350  0.00  0.00    +0.029 A 
ATOM     25  C   UNL     1      -1.761  -1.986  -1.329  0.00  0.00    +0.106 A 
ATOM     26  C   UNL     1      -0.891  -1.835  -2.394  0.00  0.00    +0.029 A 
ATOM     27  C   UNL     1       0.240  -2.620  -2.481  0.00  0.00    +0.015 A 
BRANCH  25  28
ATOM     28  S   UNL     1      -3.200  -0.975  -1.222  0.00  0.00    +0.061 S 
ATOM     29  O   UNL     1      -4.139  -1.686  -0.427  0.00  0.00    -0.153 OA
ATOM     30  O   UNL     1      -3.493  -0.544  -2.544  0.00  0.00    -0.153 OA
BRANCH  28  31
ATOM     31  N   UNL     1      -2.784   0.380  -0.365  0.00  0.00    -0.177 NA
ATOM     32  C   UNL     1      -2.281   1.542  -1.038  0.00  0.00    +0.109 C 
ATOM     33  C   UNL     1      -0.749   1.592  -1.257  0.00  0.00    +0.017 C 
ATOM     34  C   UNL     1      -0.013   1.086   0.008  0.00  0.00    +0.001 C 
ATOM     35  C   UNL     1      -0.703   1.564   1.253  0.00  0.00    +0.001 C 
ATOM     36  C   UNL     1      -1.581   0.401   1.701  0.00  0.00    +0.017 C 
ATOM     37  C   UNL     1      -2.928   0.411   1.129  0.00  0.00    +0.109 C 
ENDBRANCH  28  31
ENDBRANCH  25  28
ENDBRANCH   2  22
TORSDOF 6
