REMARK  Name = ZINC36495831
REMARK  21 active torsions:
REMARK  status: ('A' for Active; 'I' for Inactive)
REMARK    1  A    between atoms: C_1  and  C_2
REMARK    2  A    between atoms: C_2  and  C_3
REMARK    3  A    between atoms: C_3  and  C_4
REMARK    4  A    between atoms: C_4  and  C_5
REMARK    5  A    between atoms: C_5  and  C_6
REMARK    6  A    between atoms: C_7  and  C_8
REMARK    7  A    between atoms: N_10  and  C_11
REMARK    8  A    between atoms: N_10  and  C_17
REMARK    9  A    between atoms: C_11  and  C_12
REMARK   10  A    between atoms: C_17  and  C_19
REMARK   11  A    between atoms: C_17  and  C_27
REMARK   12  A    between atoms: C_22  and  C_26
REMARK   13  A    between atoms: C_24  and  C_25
REMARK   14  A    between atoms: N_29  and  C_30
REMARK   15  A    between atoms: C_30  and  C_31
REMARK   16  A    between atoms: C_30  and  C_32
REMARK   17  A    between atoms: C_30  and  C_33
REMARK   18  A    between atoms: C_33  and  C_34
REMARK   19  A    between atoms: C_34  and  C_35
REMARK   20  A    between atoms: C_34  and  C_36
REMARK   21  A    between atoms: C_34  and  C_37
REMARK                            x       y       z     vdW  Elec       q    Type
REMARK                         _______ _______ _______ _____ _____    ______ ____
ROOT
ATOM      1  C   UNL     1      -6.482  -2.962   4.744  0.00  0.00    +0.193 C 
ENDROOT
BRANCH   1   2
ATOM      2  C   UNL     1      -5.862  -2.881   6.115  0.00  0.00    -0.015 A 
ATOM      3  C   UNL     1      -6.002  -3.934   7.000  0.00  0.00    +0.006 A 
ATOM      4  C   UNL     1      -5.434  -3.859   8.258  0.00  0.00    +0.004 A 
ATOM      5  C   UNL     1      -4.726  -2.732   8.631  0.00  0.00    -0.050 A 
ATOM      6  C   UNL     1      -4.585  -1.679   7.745  0.00  0.00    +0.007 A 
ATOM      7  C   UNL     1      -5.150  -1.756   6.486  0.00  0.00    -0.045 A 
ATOM      8  C   UNL     1      -4.992  -0.611   5.518  0.00  0.00    +0.044 C 
ATOM      9  C   UNL     1      -4.107  -2.650  10.002  0.00  0.00    +0.044 C 
ENDBRANCH   1   2
BRANCH   1  10
ATOM     10  C   UNL     1      -7.563  -4.012   4.742  0.00  0.00    +0.239 C 
ATOM     11  O   UNL     1      -7.380  -5.071   4.179  0.00  0.00    -0.273 OA
ATOM     12  N   UNL     1      -8.733  -3.775   5.367  0.00  0.00    -0.308 N 
ATOM     13  H   UNL     1      -8.909  -2.903   5.753  0.00  0.00    +0.149 HD
BRANCH  12  14
ATOM     14  C   UNL     1      -9.740  -4.835   5.463  0.00  0.00    +0.030 C 
ATOM     15  C   UNL     1     -10.212  -5.220   4.059  0.00  0.00    +0.031 C 
ATOM     16  C   UNL     1      -9.129  -6.059   6.149  0.00  0.00    +0.031 C 
BRANCH  14  17
ATOM     17  C   UNL     1     -10.932  -4.334   6.282  0.00  0.00    +0.031 C 
BRANCH  17  18
ATOM     18  C   UNL     1     -10.498  -4.115   7.732  0.00  0.00    -0.036 C 
ATOM     19  C   UNL     1      -9.143  -3.405   7.758  0.00  0.00    +0.010 C 
ATOM     20  C   UNL     1     -11.538  -3.254   8.451  0.00  0.00    +0.010 C 
ATOM     21  C   UNL     1     -10.378  -5.467   8.439  0.00  0.00    +0.010 C 
ENDBRANCH  17  18
ENDBRANCH  14  17
ENDBRANCH  12  14
ENDBRANCH   1  10
BRANCH   1  24
ATOM     22  C   UNL     1      -4.686  -4.410   3.959  0.00  0.00    +0.240 C 
ATOM     23  O   UNL     1      -4.847  -5.098   4.949  0.00  0.00    -0.271 OA
ATOM     24  N   UNL     1      -5.453  -3.319   3.763  0.00  0.00    -0.275 N 
BRANCH  22  26
ATOM     25  C   UNL     1      -2.995  -5.918   3.090  0.00  0.00    -0.022 C 
ATOM     26  C   UNL     1      -3.653  -4.768   2.975  0.00  0.00    +0.063 C 
BRANCH  25  27
ATOM     27  C   UNL     1      -3.513  -6.994   4.010  0.00  0.00    +0.027 C 
BRANCH  27  28
ATOM     28  C   UNL     1      -3.562  -8.327   3.260  0.00  0.00    +0.004 C 
BRANCH  28  29
ATOM     29  C   UNL     1      -4.087  -9.418   4.194  0.00  0.00    +0.000 C 
BRANCH  29  31
ATOM     30  C   UNL     1      -4.662 -11.843   4.379  0.00  0.00    +0.004 C 
ATOM     31  C   UNL     1      -4.136 -10.751   3.445  0.00  0.00    -0.003 C 
ENDBRANCH  29  31
ENDBRANCH  28  29
ENDBRANCH  27  28
ENDBRANCH  25  27
ENDBRANCH  22  26
BRANCH  24  32
ATOM     32  C   UNL     1      -5.259  -2.491   2.571  0.00  0.00    +0.183 C 
BRANCH  32  33
ATOM     33  C   UNL     1      -6.043  -3.071   1.423  0.00  0.00    +0.122 A 
ATOM     34  C   UNL     1      -7.280  -2.698   1.047  0.00  0.00    +0.046 A 
ATOM     35  C   UNL     1      -7.628  -3.498  -0.066  0.00  0.00    +0.041 A 
ATOM     36  C   UNL     1      -6.584  -4.311  -0.304  0.00  0.00    +0.195 A 
ATOM     37  O   UNL     1      -5.624  -4.044   0.597  0.00  0.00    -0.466 OA
ENDBRANCH  32  33
ENDBRANCH  24  32
ENDBRANCH   1  24
TORSDOF 13
