REMARK  Name = ZINC39666235
REMARK  10 active torsions:
REMARK  status: ('A' for Active; 'I' for Inactive)
REMARK    1  A    between atoms: C_1  and  C_2
REMARK    2  A    between atoms: C_5  and  O_8
REMARK    3  A    between atoms: O_8  and  C_9
REMARK    4  A    between atoms: C_9  and  C_11
REMARK    5  A    between atoms: C_9  and  C_12
REMARK    6  A    between atoms: C_12  and  N_13
REMARK    7  A    between atoms: C_14  and  C_16
REMARK    8  A    between atoms: C_27  and  C_29
REMARK    9  A    between atoms: C_32  and  C_36
REMARK   10  A    between atoms: C_34  and  C_35
REMARK                            x       y       z     vdW  Elec       q    Type
REMARK                         _______ _______ _______ _____ _____    ______ ____
ROOT
ATOM      1  C   UNL     1      -3.684  -7.375  -0.121  0.00  0.00    +0.100 C 
ATOM      2  C   UNL     1      -3.686  -6.660  -1.491  0.00  0.00    +0.121 C 
ATOM      3  N   UNL     1      -3.925  -7.740  -2.477  0.00  0.00    -0.296 N 
ATOM      4  C   UNL     1      -4.926  -8.619  -1.826  0.00  0.00    +0.115 C 
ATOM      5  C   UNL     1      -4.501  -8.658  -0.344  0.00  0.00    -0.004 C 
ATOM      6  C   UNL     1      -3.638  -9.888  -0.076  0.00  0.00    -0.010 C 
ATOM      7  C   UNL     1      -4.488 -11.150  -0.249  0.00  0.00    -0.082 C 
ATOM      8  N   UNL     1      -5.621 -11.110   0.683  0.00  0.00    +0.379 N 
ATOM      9  C   UNL     1      -6.497  -9.977   0.359  0.00  0.00    -0.082 C 
ATOM     10  C   UNL     1      -5.731  -8.665   0.558  0.00  0.00    -0.010 C 
ATOM     11  C   UNL     1      -3.360  -7.890  -3.691  0.00  0.00    +0.247 C 
ATOM     12  O   UNL     1      -3.596  -8.882  -4.354  0.00  0.00    -0.270 OA
ATOM     13  H   UNL     1      -6.145 -11.969   0.610  0.00  0.00    -0.086 HD
ATOM     14  H   UNL     1      -5.276 -11.008   1.625  0.00  0.00    -0.086 HD
ENDROOT
BRANCH  11  15
ATOM     15  C   UNL     1      -2.451  -6.849  -4.218  0.00  0.00    +0.040 A 
ATOM     16  C   UNL     1      -2.715  -5.500  -3.974  0.00  0.00    +0.013 A 
ATOM     17  C   UNL     1      -1.864  -4.534  -4.468  0.00  0.00    +0.004 A 
ATOM     18  C   UNL     1      -0.750  -4.899  -5.203  0.00  0.00    -0.050 A 
ATOM     19  C   UNL     1      -0.482  -6.234  -5.448  0.00  0.00    +0.007 A 
ATOM     20  C   UNL     1      -1.323  -7.211  -4.955  0.00  0.00    -0.038 A 
ATOM     21  C   UNL     1      -1.027  -8.665  -5.218  0.00  0.00    +0.044 C 
ATOM     22  C   UNL     1       0.176  -3.838  -5.740  0.00  0.00    +0.044 C 
ENDBRANCH  11  15
BRANCH   1  24
ATOM     23  N   UNL     1      -1.983  -7.917   1.591  0.00  0.00    -0.312 N 
ATOM     24  C   UNL     1      -2.275  -7.715   0.290  0.00  0.00    +0.218 C 
ATOM     25  O   UNL     1      -1.403  -7.807  -0.548  0.00  0.00    -0.275 OA
ATOM     26  H   UNL     1      -2.680  -7.844   2.261  0.00  0.00    +0.149 HD
BRANCH  23  27
ATOM     27  C   UNL     1      -0.613  -8.248   1.991  0.00  0.00    +0.148 C 
BRANCH  27  28
ATOM     28  C   UNL     1      -0.554  -8.425   3.510  0.00  0.00    +0.187 C 
ATOM     29  C   UNL     1       0.876  -8.770   3.928  0.00  0.00    +0.053 C 
BRANCH  28  30
ATOM     30  O   UNL     1      -0.957  -7.211   4.147  0.00  0.00    -0.488 OA
BRANCH  30  35
ATOM     31  C   UNL     1      -2.978  -7.621   9.388  0.00  0.00    +0.044 C 
ATOM     32  C   UNL     1      -2.437  -7.511   7.986  0.00  0.00    -0.050 A 
ATOM     33  C   UNL     1      -2.082  -8.653   7.292  0.00  0.00    +0.007 A 
ATOM     34  C   UNL     1      -1.586  -8.555   6.006  0.00  0.00    +0.046 A 
ATOM     35  C   UNL     1      -1.445  -7.310   5.411  0.00  0.00    +0.121 A 
ATOM     36  C   UNL     1      -1.803  -6.166   6.109  0.00  0.00    +0.046 A 
ATOM     37  C   UNL     1      -2.303  -6.269   7.393  0.00  0.00    +0.007 A 
ENDBRANCH  30  35
ENDBRANCH  28  30
ENDBRANCH  27  28
ENDBRANCH  23  27
ENDBRANCH   1  24
TORSDOF 6
