REMARK  Name = ZINC00618882
REMARK  5 active torsions:
REMARK  status: ('A' for Active; 'I' for Inactive)
REMARK    1  A    between atoms: C_1  and  C_2
REMARK    2  A    between atoms: C_7  and  N_11
REMARK    3  A    between atoms: C_16  and  C_25
REMARK    4  A    between atoms: C_21  and  C_23
REMARK    5  A    between atoms: C_21  and  C_24
REMARK                            x       y       z     vdW  Elec       q    Type
REMARK                         _______ _______ _______ _____ _____    ______ ____
ROOT
ATOM      1  N   UNL     1      -3.603   2.184   0.049  0.00  0.00    -0.269 N 
ATOM      2  C   UNL     1      -4.778   1.532  -0.044  0.00  0.00    +0.307 C 
ATOM      3  O   UNL     1      -4.800   0.316  -0.050  0.00  0.00    -0.252 OA
ATOM      4  N   UNL     1      -5.931   2.227  -0.130  0.00  0.00    -0.282 N 
ATOM      5  C   UNL     1      -6.051   3.693  -0.135  0.00  0.00    +0.116 C 
ATOM      6  C   UNL     1      -7.554   4.005  -0.306  0.00  0.00    -0.014 C 
ATOM      7  C   UNL     1      -8.223   2.757   0.336  0.00  0.00    +0.030 C 
ATOM      8  C   UNL     1      -7.287   1.652  -0.218  0.00  0.00    +0.079 C 
ATOM      9  C   UNL     1      -7.662   1.450  -1.687  0.00  0.00    +0.029 C 
ATOM     10  C   UNL     1      -7.528   2.717  -2.518  0.00  0.00    -0.033 C 
ATOM     11  C   UNL     1      -7.917   3.995  -1.792  0.00  0.00    +0.014 C 
ATOM     12  C   UNL     1      -8.498   2.570  -3.718  0.00  0.00    +0.011 C 
ATOM     13  C   UNL     1      -6.121   2.828  -3.111  0.00  0.00    +0.011 C 
ATOM     14  C   UNL     1      -7.965   5.311   0.393  0.00  0.00    +0.013 C 
ATOM     15  H   UNL     1      -3.590   3.151   0.122  0.00  0.00    +0.156 HD
ENDROOT
BRANCH   1  22
ATOM     16  C   UNL     1       2.238  -2.907   0.802  0.00  0.00    +0.073 C 
ATOM     17  C   UNL     1       1.113  -1.916   0.653  0.00  0.00    +0.076 A 
ATOM     18  N   UNL     1       1.123  -0.748   0.070  0.00  0.00    -0.244 NA
ATOM     19  C   UNL     1       0.032   0.046   0.007  0.00  0.00    +0.079 A 
ATOM     20  C   UNL     1      -0.086   1.323  -0.591  0.00  0.00    +0.031 A 
ATOM     21  C   UNL     1      -1.265   1.998  -0.569  0.00  0.00    +0.025 A 
ATOM     22  C   UNL     1      -2.400   1.466   0.041  0.00  0.00    +0.036 A 
ATOM     23  C   UNL     1      -2.325   0.214   0.635  0.00  0.00    +0.040 A 
ATOM     24  C   UNL     1      -1.134  -0.469   0.618  0.00  0.00    +0.041 A 
ATOM     25  S   UNL     1      -0.575  -2.041   1.228  0.00  0.00    -0.072 S 
ENDBRANCH   1  22
TORSDOF 1
