REMARK  Name = ZINC00831059
REMARK  5 active torsions:
REMARK  status: ('A' for Active; 'I' for Inactive)
REMARK    1  A    between atoms: C_3  and  C_8
REMARK    2  A    between atoms: C_8  and  S_9
REMARK    3  A    between atoms: S_9  and  C_10
REMARK    4  A    between atoms: C_10  and  C_11
REMARK    5  A    between atoms: N_13  and  N_14
REMARK                            x       y       z     vdW  Elec       q    Type
REMARK                         _______ _______ _______ _____ _____    ______ ____
ROOT
ATOM      1  C   UNL     1       6.317   3.728   2.864  0.00  0.00    +0.242 C 
ATOM      2  O   UNL     1       5.728   3.366   3.860  0.00  0.00    -0.273 OA
ATOM      3  N   UNL     1       7.471   4.415   2.975  0.00  0.00    -0.206 N 
ATOM      4  H   UNL     1       7.941   4.705   2.178  0.00  0.00    +0.177 HD
ENDROOT
BRANCH   3   5
ATOM      5  N   UNL     1       7.991   4.711   4.242  0.00  0.00    -0.175 NA
ATOM      6  C   UNL     1       9.113   5.379   4.350  0.00  0.00    +0.153 C 
ATOM      7  C   UNL     1       9.812   5.775   5.595  0.00  0.00    +0.029 A 
ATOM      8  C   UNL     1       9.533   5.585   6.944  0.00  0.00    +0.027 A 
ATOM      9  C   UNL     1      10.397   6.085   7.899  0.00  0.00    +0.019 A 
ATOM     10  C   UNL     1      11.537   6.771   7.512  0.00  0.00    +0.017 A 
ATOM     11  C   UNL     1      11.821   6.965   6.175  0.00  0.00    +0.025 A 
ATOM     12  C   UNL     1      10.962   6.468   5.200  0.00  0.00    +0.043 A 
ATOM     13  N   UNL     1      11.013   6.523   3.811  0.00  0.00    -0.280 N 
ATOM     14  C   UNL     1       9.961   5.897   3.256  0.00  0.00    +0.269 C 
ATOM     15  O   UNL     1       9.743   5.780   2.065  0.00  0.00    -0.268 OA
ATOM     16 BR   UNL     1      10.025   5.831   9.735  0.00  0.00    -0.050 Br
ATOM     17  H   UNL     1      11.720   6.954   3.306  0.00  0.00    +0.155 HD
ENDBRANCH   3   5
BRANCH   1  18
ATOM     18  C   UNL     1       5.757   3.410   1.501  0.00  0.00    +0.166 C 
BRANCH  18  19
ATOM     19  S   UNL     1       4.208   2.484   1.684  0.00  0.00    -0.147 S 
BRANCH  19  20
ATOM     20  C   UNL     1       3.672   2.183  -0.022  0.00  0.00    +0.104 C 
BRANCH  20  23
ATOM     21  C   UNL     1      -0.017   1.378   0.010  0.00  0.00    +0.001 A 
ATOM     22  C   UNL     1       1.171   2.086   0.002  0.00  0.00    +0.004 A 
ATOM     23  C   UNL     1       2.378   1.411  -0.013  0.00  0.00    -0.037 A 
ATOM     24  C   UNL     1       2.397   0.029  -0.022  0.00  0.00    +0.019 A 
ATOM     25  C   UNL     1       1.210  -0.679  -0.014  0.00  0.00    +0.018 A 
ATOM     26  C   UNL     1       0.002  -0.004   0.002  0.00  0.00    +0.015 A 
ATOM     27 BR   UNL     1       1.236  -2.570  -0.025  0.00  0.00    -0.050 Br
ENDBRANCH  20  23
ENDBRANCH  19  20
ENDBRANCH  18  19
ENDBRANCH   1  18
TORSDOF 5
