REMARK  Name = ZINC13235501
REMARK  9 active torsions:
REMARK  status: ('A' for Active; 'I' for Inactive)
REMARK    1  A    between atoms: C_1  and  C_2
REMARK    2  A    between atoms: C_5  and  C_8
REMARK    3  A    between atoms: C_11  and  S_16
REMARK    4  A    between atoms: N_12  and  C_13
REMARK    5  A    between atoms: C_13  and  C_14
REMARK    6  A    between atoms: S_16  and  C_17
REMARK    7  A    between atoms: C_17  and  C_18
REMARK    8  A    between atoms: N_20  and  C_21
REMARK    9  A    between atoms: C_25  and  C_27
REMARK                            x       y       z     vdW  Elec       q    Type
REMARK                         _______ _______ _______ _____ _____    ______ ____
ROOT
ATOM      1  C   UNL     1      -1.914   0.851   2.580  0.00  0.00    +0.165 A 
ATOM      2  N   UNL     1      -2.315   1.830   3.357  0.00  0.00    -0.128 NA
ATOM      3  N   UNL     1      -1.446   2.777   3.353  0.00  0.00    -0.122 NA
ATOM      4  C   UNL     1      -0.434   2.458   2.577  0.00  0.00    +0.193 A 
ATOM      5  N   UNL     1      -0.699   1.225   2.054  0.00  0.00    -0.291 N 
ENDROOT
BRANCH   1  10
ATOM      6  C   UNL     1      -4.711  -4.074   1.564  0.00  0.00    +0.044 C 
ATOM      7  C   UNL     1      -3.978  -2.784   1.830  0.00  0.00    -0.050 A 
ATOM      8  C   UNL     1      -4.310  -2.019   2.934  0.00  0.00    +0.004 A 
ATOM      9  C   UNL     1      -3.643  -0.837   3.183  0.00  0.00    +0.012 A 
ATOM     10  C   UNL     1      -2.632  -0.414   2.319  0.00  0.00    +0.019 A 
ATOM     11  C   UNL     1      -2.306  -1.188   1.204  0.00  0.00    +0.012 A 
ATOM     12  C   UNL     1      -2.977  -2.371   0.970  0.00  0.00    +0.004 A 
ENDBRANCH   1  10
BRANCH   5  13
ATOM     13  C   UNL     1       0.140   0.458   1.129  0.00  0.00    +0.250 C 
BRANCH  13  14
ATOM     14  C   UNL     1      -0.224   0.810  -0.290  0.00  0.00    +0.375 C 
ATOM     15  O   UNL     1      -1.095   1.619  -0.507  0.00  0.00    -0.244 OA
ATOM     16  O   UNL     1       0.418   0.225  -1.313  0.00  0.00    -0.244 OA
ENDBRANCH  13  14
ENDBRANCH   5  13
BRANCH   4  17
ATOM     17  S   UNL     1       0.995   3.441   2.267  0.00  0.00    -0.077 S 
BRANCH  17  18
ATOM     18  C   UNL     1       0.613   4.883   3.292  0.00  0.00    +0.173 C 
BRANCH  18  19
ATOM     19  C   UNL     1       1.731   5.888   3.180  0.00  0.00    +0.227 C 
ATOM     20  O   UNL     1       2.691   5.652   2.478  0.00  0.00    -0.275 OA
ATOM     21  N   UNL     1       1.663   7.049   3.862  0.00  0.00    -0.285 N 
ATOM     22  H   UNL     1       0.935   7.205   4.483  0.00  0.00    +0.155 HD
BRANCH  21  23
ATOM     23  C   UNL     1       2.644   8.030   3.673  0.00  0.00    +0.034 A 
ATOM     24  C   UNL     1       3.022   8.847   4.731  0.00  0.00    +0.023 A 
ATOM     25  C   UNL     1       3.994   9.814   4.551  0.00  0.00    +0.003 A 
ATOM     26  C   UNL     1       4.588   9.981   3.317  0.00  0.00    +0.015 A 
ATOM     27  C   UNL     1       4.211   9.168   2.246  0.00  0.00    +0.065 A 
ATOM     28  C   UNL     1       3.234   8.189   2.429  0.00  0.00    +0.038 A 
BRANCH  27  29
ATOM     29  C   UNL     1       4.845   9.345   0.923  0.00  0.00    +0.387 C 
ATOM     30  O   UNL     1       4.515   8.637  -0.008  0.00  0.00    -0.241 OA
ATOM     31  O   UNL     1       5.788  10.291   0.749  0.00  0.00    -0.241 OA
ENDBRANCH  27  29
ENDBRANCH  21  23
ENDBRANCH  18  19
ENDBRANCH  17  18
ENDBRANCH   4  17
TORSDOF 8
