REMARK  Name = ZINC38930950
REMARK  6 active torsions:
REMARK  status: ('A' for Active; 'I' for Inactive)
REMARK    1  A    between atoms: C_1  and  C_2
REMARK    2  A    between atoms: C_2  and  C_3
REMARK    3  A    between atoms: C_3  and  C_4
REMARK    4  A    between atoms: C_6  and  C_18
REMARK    5  A    between atoms: C_8  and  C_16
REMARK    6  A    between atoms: C_9  and  N_15
REMARK                            x       y       z     vdW  Elec       q    Type
REMARK                         _______ _______ _______ _____ _____    ______ ____
ROOT
ATOM      1  C   UNL     1       1.137  -1.811   1.587  0.00  0.00    +0.069 C 
ATOM      2  C   UNL     1       2.051  -2.541   0.995  0.00  0.00    +0.030 C 
ATOM      3  C   UNL     1       3.219  -2.216   0.102  0.00  0.00    +0.099 C 
ATOM      4  C   UNL     1       3.194  -3.264  -0.996  0.00  0.00    +0.097 C 
ATOM      5  C   UNL     1       2.369  -4.330  -0.941  0.00  0.00    +0.195 C 
ATOM      6  O   UNL     1       1.471  -4.603   0.023  0.00  0.00    -0.448 OA
ATOM      7  C   UNL     1       1.666  -3.988   1.300  0.00  0.00    +0.343 C 
ATOM      8  N   UNL     1       0.406  -3.820   2.031  0.00  0.00    -0.138 NA
ATOM      9  N   UNL     1       0.205  -2.607   2.170  0.00  0.00    -0.155 NA
ENDROOT
BRANCH   3  10
ATOM     10  C   UNL     1       3.058  -0.838  -0.485  0.00  0.00    -0.017 A 
ATOM     11  C   UNL     1       2.030  -0.581  -1.373  0.00  0.00    +0.055 A 
ATOM     12  C   UNL     1       1.881   0.685  -1.914  0.00  0.00    +0.167 A 
ATOM     13  C   UNL     1       2.769   1.699  -1.561  0.00  0.00    +0.167 A 
ATOM     14  C   UNL     1       3.797   1.435  -0.671  0.00  0.00    +0.065 A 
ATOM     15  C   UNL     1       3.937   0.170  -0.130  0.00  0.00    +0.026 A 
ATOM     16 BR   UNL     1       5.337  -0.185   1.091  0.00  0.00    -0.050 Br
ATOM     17  O   UNL     1       2.414   2.839  -2.221  0.00  0.00    -0.453 OA
ATOM     18  C   UNL     1       1.551   2.411  -3.292  0.00  0.00    +0.466 C 
ATOM     19  O   UNL     1       0.969   1.191  -2.795  0.00  0.00    -0.453 OA
ENDBRANCH   3  10
BRANCH   5  20
ATOM     20  N   UNL     1       2.455  -5.228  -1.975  0.00  0.00    -0.329 N 
ATOM     21  H   UNL     1       3.086  -5.079  -2.696  0.00  0.00    +0.145 HD
ATOM     22  H   UNL     1       1.884  -6.012  -1.984  0.00  0.00    +0.145 HD
ENDBRANCH   5  20
BRANCH   4  23
ATOM     23  C   UNL     1       4.069  -3.116  -2.120  0.00  0.00    +0.101 C 
ATOM     24  N   UNL     1       4.764  -2.998  -3.011  0.00  0.00    -0.191 NA
ENDBRANCH   4  23
BRANCH   1  25
ATOM     25  C   UNL     1       1.127  -0.304   1.621  0.00  0.00    +0.057 C 
BRANCH  25  27
ATOM     26  C   UNL     1       1.958   1.710   2.843  0.00  0.00    +0.004 C 
ATOM     27  C   UNL     1       1.875   0.183   2.864  0.00  0.00    +0.003 C 
ENDBRANCH  25  27
ENDBRANCH   1  25
TORSDOF 5
