REMARK  Name = ZINC58960347
REMARK  7 active torsions:
REMARK  status: ('A' for Active; 'I' for Inactive)
REMARK    1  A    between atoms: C_1  and  N_2
REMARK    2  A    between atoms: N_5  and  N_8
REMARK    3  A    between atoms: C_9  and  C_11
REMARK    4  A    between atoms: C_11  and  S_12
REMARK    5  A    between atoms: S_12  and  C_13
REMARK    6  A    between atoms: C_15  and  C_23
REMARK    7  A    between atoms: C_17  and  C_19
REMARK                            x       y       z     vdW  Elec       q    Type
REMARK                         _______ _______ _______ _____ _____    ______ ____
ROOT
ATOM      1  C   UNL     1       4.385  -8.267   0.001  0.00  0.00    +0.190 A 
ATOM      2  N   UNL     1       5.512  -8.963   0.026  0.00  0.00    -0.222 NA
ATOM      3  C   UNL     1       5.486 -10.293   0.017  0.00  0.00    +0.077 A 
ATOM      4  C   UNL     1       4.251 -10.947  -0.020  0.00  0.00    +0.060 A 
ATOM      5  C   UNL     1       3.100 -10.180  -0.046  0.00  0.00    +0.148 A 
ATOM      6  N   UNL     1       3.200  -8.860  -0.030  0.00  0.00    -0.218 NA
ENDROOT
BRANCH   3   7
ATOM      7  C   UNL     1       6.748 -11.071   0.045  0.00  0.00    +0.019 A 
ATOM      8  C   UNL     1       6.712 -12.464   0.029  0.00  0.00    +0.013 A 
ATOM      9  C   UNL     1       7.889 -13.183   0.055  0.00  0.00    +0.021 A 
ATOM     10  C   UNL     1       9.106 -12.523   0.097  0.00  0.00    +0.042 A 
ATOM     11  C   UNL     1       9.149 -11.140   0.113  0.00  0.00    +0.040 A 
ATOM     12  C   UNL     1       7.976 -10.410   0.081  0.00  0.00    +0.052 A 
ATOM     13 CL   UNL     1       8.031  -8.675   0.093  0.00  0.00    -0.083 Cl
ATOM     14 CL   UNL     1      10.584 -13.434   0.131  0.00  0.00    -0.083 Cl
ENDBRANCH   3   7
BRANCH   5  15
ATOM     15  C   UNL     1       1.746 -10.840  -0.087  0.00  0.00    +0.434 C 
ATOM     16  F   UNL     1       1.292 -11.054   1.219  0.00  0.00    -0.164 F 
ATOM     17  F   UNL     1       0.844 -10.013  -0.765  0.00  0.00    -0.164 F 
ATOM     18  F   UNL     1       1.845 -12.067  -0.752  0.00  0.00    -0.164 F 
ENDBRANCH   5  15
BRANCH   1  19
ATOM     19  S   UNL     1       4.463  -6.506   0.015  0.00  0.00    -0.077 S 
BRANCH  19  20
ATOM     20  C   UNL     1       2.725  -5.990  -0.020  0.00  0.00    +0.174 C 
BRANCH  20  22
ATOM     21  N   UNL     1       1.448  -3.871  -0.034  0.00  0.00    -0.248 N 
ATOM     22  C   UNL     1       2.648  -4.485  -0.011  0.00  0.00    +0.237 C 
ATOM     23  O   UNL     1       3.666  -3.826   0.016  0.00  0.00    -0.274 OA
ATOM     24  H   UNL     1       0.634  -4.398  -0.055  0.00  0.00    +0.169 HD
BRANCH  21  29
ATOM     25  C   UNL     1      -0.018   1.465   0.010  0.00  0.00    -0.096 C 
ATOM     26  N   UNL     1       0.002  -0.004   0.002  0.00  0.00    +0.380 N 
ATOM     27  C   UNL     1       0.688  -0.477  -1.207  0.00  0.00    -0.062 C 
ATOM     28  C   UNL     1       0.693  -2.008  -1.226  0.00  0.00    +0.087 C 
ATOM     29  N   UNL     1       1.378  -2.507  -0.025  0.00  0.00    -0.231 NA
ATOM     30  C   UNL     1       0.717  -2.021   1.194  0.00  0.00    +0.087 C 
ATOM     31  C   UNL     1       0.713  -0.490   1.192  0.00  0.00    -0.062 C 
ATOM     32  H   UNL     1      -0.945  -0.353   0.010  0.00  0.00    -0.082 HD
ENDBRANCH  21  29
ENDBRANCH  20  22
ENDBRANCH  19  20
ENDBRANCH   1  19
TORSDOF 6
