REMARK  Name = ZINC08964488
REMARK  6 active torsions:
REMARK  status: ('A' for Active; 'I' for Inactive)
REMARK    1  A    between atoms: C_1  and  N_2
REMARK    2  A    between atoms: C_5  and  C_12
REMARK    3  A    between atoms: C_5  and  C_21
REMARK    4  A    between atoms: N_8  and  C_11
REMARK    5  A    between atoms: C_12  and  C_13
REMARK    6  A    between atoms: C_21  and  N_61
REMARK                            x       y       z     vdW  Elec       q    Type
REMARK                         _______ _______ _______ _____ _____    ______ ____
ROOT
ATOM      1  C   UNL     1       0.106  -1.057  -3.495  0.00  0.00    +0.143 C 
ATOM      2  N   UNL     1       0.976   0.007  -2.988  0.00  0.00    -0.228 N 
ATOM      3  C   UNL     1       1.730  -0.229  -1.893  0.00  0.00    +0.236 C 
ATOM      4  O   UNL     1       1.698  -1.300  -1.327  0.00  0.00    -0.274 OA
ATOM      5  C   UNL     1       2.618   0.897  -1.398  0.00  0.00    +0.113 C 
ATOM      6  C   UNL     1       2.565   2.188  -2.193  0.00  0.00    +0.236 C 
ATOM      7  O   UNL     1       3.235   3.148  -1.879  0.00  0.00    -0.274 OA
ATOM      8  N   UNL     1       1.749   2.232  -3.263  0.00  0.00    -0.228 N 
ATOM      9  C   UNL     1       1.000   1.184  -3.624  0.00  0.00    +0.317 C 
ATOM     10  O   UNL     1       0.289   1.310  -4.602  0.00  0.00    -0.252 OA
ATOM     11  C   UNL     1       1.676   3.463  -4.053  0.00  0.00    +0.143 C 
ENDROOT
BRANCH   5  12
ATOM     12  C   UNL     1       2.227   1.212   0.047  0.00  0.00    +0.060 C 
BRANCH  12  13
ATOM     13  C   UNL     1       0.821   1.754   0.080  0.00  0.00    -0.028 A 
ATOM     14  C   UNL     1      -0.255   0.885   0.081  0.00  0.00    +0.006 A 
ATOM     15  C   UNL     1      -1.544   1.382   0.111  0.00  0.00    +0.020 A 
ATOM     16  C   UNL     1      -1.759   2.749   0.142  0.00  0.00    +0.042 A 
ATOM     17  C   UNL     1      -0.683   3.618   0.147  0.00  0.00    +0.040 A 
ATOM     18  C   UNL     1       0.607   3.120   0.111  0.00  0.00    +0.046 A 
ATOM     19 CL   UNL     1       1.958   4.210   0.110  0.00  0.00    -0.083 Cl
ATOM     20 CL   UNL     1      -3.379   3.372   0.180  0.00  0.00    -0.083 Cl
ENDBRANCH  12  13
ENDBRANCH   5  12
BRANCH   5  21
ATOM     21  C   UNL     1       4.064   0.397  -1.398  0.00  0.00    -0.053 C 
BRANCH  21  35
ATOM     22  C   UNL     1       5.543  -0.949  -2.759  0.00  0.00    -0.074 C 
ATOM     23  C   UNL     1       5.911  -1.368  -4.175  0.00  0.00    -0.007 C 
ATOM     24  C   UNL     1       6.265  -0.147  -5.028  0.00  0.00    +0.011 C 
ATOM     25  C   UNL     1       5.063   0.804  -4.997  0.00  0.00    +0.020 C 
ATOM     26  C   UNL     1       4.832   1.233  -3.538  0.00  0.00    -0.069 C 
ATOM     27  C   UNL     1       3.829   0.059  -5.452  0.00  0.00    +0.023 A 
ATOM     28  C   UNL     1       2.846   0.780  -6.053  0.00  0.00    +0.022 A 
ATOM     29  C   UNL     1       1.650   0.166  -6.441  0.00  0.00    +0.007 A 
ATOM     30  C   UNL     1       1.477  -1.163  -6.183  0.00  0.00    +0.070 A 
ATOM     31  C   UNL     1       2.510  -1.876  -5.559  0.00  0.00    +0.251 A 
ATOM     32  O   UNL     1       2.342  -3.050  -5.266  0.00  0.00    -0.268 OA
ATOM     33  N   UNL     1       3.692  -1.276  -5.277  0.00  0.00    -0.312 N 
ATOM     34  C   UNL     1       4.789  -2.144  -4.845  0.00  0.00    +0.126 C 
ATOM     35  N   UNL     1       4.433   0.026  -2.779  0.00  0.00    +0.381 N 
ATOM     36  H   UNL     1       3.621  -0.403  -3.237  0.00  0.00    -0.082 HD
ENDBRANCH  21  35
ENDBRANCH   5  21
TORSDOF 4
