REMARK  Name = ZINC36640125
REMARK  6 active torsions:
REMARK  status: ('A' for Active; 'I' for Inactive)
REMARK    1  A    between atoms: C_1  and  C_2
REMARK    2  A    between atoms: C_3  and  C_23
REMARK    3  A    between atoms: C_8  and  C_10
REMARK    4  A    between atoms: C_11  and  C_22
REMARK    5  A    between atoms: N_12  and  C_15
REMARK    6  A    between atoms: C_23  and  C_24
REMARK                            x       y       z     vdW  Elec       q    Type
REMARK                         _______ _______ _______ _____ _____    ______ ____
ROOT
ATOM      1  C   UNL     1      -0.330   1.539   0.061  0.00  0.00    +0.066 C 
ATOM      2  C   UNL     1      -0.227   0.035   0.039  0.00  0.00    +0.051 A 
ATOM      3  C   UNL     1      -0.187  -0.654  -1.127  0.00  0.00    +0.018 A 
ATOM      4  S   UNL     1      -0.069  -2.329  -0.519  0.00  0.00    -0.056 S 
ATOM      5  C   UNL     1      -0.083  -1.981   1.127  0.00  0.00    +0.165 A 
ATOM      6  N   UNL     1      -0.167  -0.668   1.155  0.00  0.00    -0.230 NA
ATOM      7  N   UNL     1      -0.016  -2.864   2.197  0.00  0.00    -0.259 N 
ATOM      8  C   UNL     1      -0.041  -2.396   3.460  0.00  0.00    +0.272 C 
ATOM      9  O   UNL     1      -0.121  -1.200   3.664  0.00  0.00    -0.268 OA
ATOM     10  H   UNL     1       0.048  -3.819   2.035  0.00  0.00    +0.157 HD
ENDROOT
BRANCH   8  11
ATOM     11  C   UNL     1       0.030  -3.334   4.596  0.00  0.00    +0.170 A 
ATOM     12  C   UNL     1       0.009  -2.990   5.918  0.00  0.00    +0.074 A 
ATOM     13  N   UNL     1       0.093  -4.140   6.622  0.00  0.00    -0.216 N 
ATOM     14  N   UNL     1       0.166  -5.182   5.687  0.00  0.00    -0.060 NA
ATOM     15  N   UNL     1       0.120  -4.672   4.506  0.00  0.00    -0.124 NA
ATOM     16  C   UNL     1      -0.090  -1.596   6.483  0.00  0.00    +0.068 C 
BRANCH  13  17
ATOM     17  C   UNL     1       0.107  -4.267   8.019  0.00  0.00    +0.067 A 
ATOM     18  C   UNL     1      -0.756  -3.505   8.794  0.00  0.00    +0.029 A 
ATOM     19  C   UNL     1      -0.741  -3.631  10.170  0.00  0.00    +0.022 A 
ATOM     20  C   UNL     1       0.133  -4.518  10.774  0.00  0.00    +0.041 A 
ATOM     21  C   UNL     1       0.994  -5.279  10.003  0.00  0.00    +0.022 A 
ATOM     22  C   UNL     1       0.979  -5.160   8.627  0.00  0.00    +0.029 A 
ATOM     23 CL   UNL     1       0.150  -4.674  12.503  0.00  0.00    -0.084 Cl
ENDBRANCH  13  17
ENDBRANCH   8  11
BRANCH   3  24
ATOM     24  C   UNL     1      -0.231  -0.147  -2.546  0.00  0.00    +0.079 C 
BRANCH  24  25
ATOM     25  C   UNL     1       1.172   0.119  -3.027  0.00  0.00    -0.041 A 
ATOM     26  C   UNL     1       1.743   1.364  -2.839  0.00  0.00    +0.004 A 
ATOM     27  C   UNL     1       3.030   1.609  -3.280  0.00  0.00    +0.001 A 
ATOM     28  C   UNL     1       3.747   0.609  -3.910  0.00  0.00    +0.015 A 
ATOM     29  C   UNL     1       3.176  -0.637  -4.099  0.00  0.00    +0.018 A 
ATOM     30  C   UNL     1       1.890  -0.883  -3.652  0.00  0.00    +0.019 A 
ATOM     31 BR   UNL     1       4.156  -2.005  -4.961  0.00  0.00    -0.050 Br
ENDBRANCH  24  25
ENDBRANCH   3  24
TORSDOF 4
