REMARK  Name = ZINC36558068
REMARK  17 active torsions:
REMARK  status: ('A' for Active; 'I' for Inactive)
REMARK    1  A    between atoms: C_1  and  C_2
REMARK    2  A    between atoms: C_2  and  C_3
REMARK    3  A    between atoms: C_3  and  C_4
REMARK    4  A    between atoms: C_4  and  C_5
REMARK    5  A    between atoms: C_5  and  C_7
REMARK    6  A    between atoms: C_5  and  C_9
REMARK    7  A    between atoms: C_7  and  C_8
REMARK    8  A    between atoms: N_11  and  C_12
REMARK    9  A    between atoms: N_11  and  C_19
REMARK   10  A    between atoms: C_12  and  C_13
REMARK   11  A    between atoms: C_16  and  C_18
REMARK   12  A    between atoms: C_19  and  C_21
REMARK   13  A    between atoms: C_19  and  C_26
REMARK   14  A    between atoms: C_22  and  C_23
REMARK   15  A    between atoms: C_23  and  C_24
REMARK   16  A    between atoms: C_24  and  C_25
REMARK   17  A    between atoms: N_28  and  C_29
REMARK                            x       y       z     vdW  Elec       q    Type
REMARK                         _______ _______ _______ _____ _____    ______ ____
ROOT
ATOM      1  C   UNL     1       1.160  -3.367  -2.413  0.00  0.00    +0.220 C 
ATOM      2  O   UNL     1       0.305  -3.445  -1.555  0.00  0.00    -0.275 OA
ATOM      3  N   UNL     1       1.507  -4.461  -3.119  0.00  0.00    -0.279 N 
ENDROOT
BRANCH   1   4
ATOM      4  C   UNL     1       1.834  -2.047  -2.687  0.00  0.00    +0.075 C 
BRANCH   4   5
ATOM      5  C   UNL     1       1.432  -1.549  -4.077  0.00  0.00    +0.009 C 
ATOM      6  C   UNL     1      -0.094  -1.513  -4.184  0.00  0.00    +0.004 C 
ENDBRANCH   4   5
BRANCH   4   7
ATOM      7  C   UNL     1       1.402  -1.025  -1.634  0.00  0.00    +0.013 C 
BRANCH   7   8
ATOM      8  C   UNL     1       2.211   0.261  -1.809  0.00  0.00    +0.000 C 
BRANCH   8  10
ATOM      9  C   UNL     1       2.518   2.605  -1.000  0.00  0.00    +0.004 C 
ATOM     10  C   UNL     1       1.708   1.319  -0.825  0.00  0.00    -0.003 C 
ENDBRANCH   8  10
ENDBRANCH   7   8
ENDBRANCH   4   7
ENDBRANCH   1   4
BRANCH   3  11
ATOM     11  C   UNL     1       2.524  -4.362  -4.169  0.00  0.00    +0.183 C 
BRANCH  11  12
ATOM     12  C   UNL     1       1.909  -4.712  -5.500  0.00  0.00    +0.122 A 
ATOM     13  C   UNL     1       1.158  -3.893  -6.258  0.00  0.00    +0.046 A 
ATOM     14  C   UNL     1       0.793  -4.625  -7.412  0.00  0.00    +0.045 A 
ATOM     15  C   UNL     1       1.343  -5.846  -7.289  0.00  0.00    +0.102 A 
ATOM     16  O   UNL     1       2.023  -5.891  -6.132  0.00  0.00    -0.463 OA
ATOM     17  C   UNL     1       1.222  -6.971  -8.285  0.00  0.00    +0.086 C 
ENDBRANCH  11  12
ENDBRANCH   3  11
BRANCH   3  18
ATOM     18  C   UNL     1       0.866  -5.748  -2.839  0.00  0.00    +0.185 C 
BRANCH  18  19
ATOM     19  C   UNL     1       1.924  -6.794  -2.598  0.00  0.00    +0.238 C 
ATOM     20  O   UNL     1       3.098  -6.494  -2.657  0.00  0.00    -0.273 OA
ATOM     21  N   UNL     1       1.566  -8.063  -2.318  0.00  0.00    -0.311 N 
ATOM     22  H   UNL     1       0.627  -8.303  -2.271  0.00  0.00    +0.149 HD
BRANCH  21  23
ATOM     23  C   UNL     1       2.595  -9.079  -2.084  0.00  0.00    +0.073 C 
ATOM     24  C   UNL     1       3.052  -9.660  -3.424  0.00  0.00    +0.022 C 
ATOM     25  C   UNL     1       4.126 -10.721  -3.180  0.00  0.00    +0.002 C 
ATOM     26  C   UNL     1       3.549 -11.840  -2.310  0.00  0.00    +0.000 C 
ATOM     27  C   UNL     1       3.092 -11.259  -0.970  0.00  0.00    +0.002 C 
ATOM     28  C   UNL     1       2.018 -10.198  -1.214  0.00  0.00    +0.022 C 
ENDBRANCH  21  23
ENDBRANCH  18  19
BRANCH  18  29
ATOM     29  C   UNL     1       0.017  -6.154  -4.016  0.00  0.00    +0.000 C 
ATOM     30  C   UNL     1      -1.288  -6.189  -3.901  0.00  0.00    -0.029 C 
BRANCH  30  31
ATOM     31  C   UNL     1      -2.137  -6.595  -5.078  0.00  0.00    +0.027 C 
BRANCH  31  32
ATOM     32  C   UNL     1      -3.045  -7.758  -4.675  0.00  0.00    +0.001 C 
ATOM     33  C   UNL     1      -3.907  -8.171  -5.870  0.00  0.00    +0.004 C 
ENDBRANCH  31  32
ENDBRANCH  30  31
ENDBRANCH  18  29
ENDBRANCH   3  18
TORSDOF 13
