REMARK  Name = ZINC19848807
REMARK  4 active torsions:
REMARK  status: ('A' for Active; 'I' for Inactive)
REMARK    1  A    between atoms: C_6  and  C_7
REMARK    2  A    between atoms: C_7  and  N_8
REMARK    3  A    between atoms: N_19  and  C_22
REMARK    4  A    between atoms: C_22  and  C_23
REMARK                            x       y       z     vdW  Elec       q    Type
REMARK                         _______ _______ _______ _____ _____    ______ ____
ROOT
ATOM      1  N   UNL     1      -2.926   0.716   1.405  0.00  0.00    +0.408 N 
ATOM      2  C   UNL     1      -1.876  -0.000   2.143  0.00  0.00    -0.034 C 
ATOM      3  C   UNL     1      -2.255  -0.093   3.599  0.00  0.00    -0.019 A 
ATOM      4  C   UNL     1      -1.619  -1.016   4.409  0.00  0.00    +0.051 A 
ATOM      5  C   UNL     1      -1.950  -1.113   5.753  0.00  0.00    +0.127 A 
ATOM      6  C   UNL     1      -2.921  -0.282   6.287  0.00  0.00    +0.012 A 
ATOM      7  C   UNL     1      -3.559   0.640   5.477  0.00  0.00    +0.054 A 
ATOM      8  C   UNL     1      -3.228   0.736   4.132  0.00  0.00    +0.120 A 
ATOM      9  O   UNL     1      -3.870   1.648   3.353  0.00  0.00    -0.509 OA
ATOM     10  C   UNL     1      -3.268   1.970   2.097  0.00  0.00    +0.158 C 
ATOM     11  C   UNL     1      -3.293  -0.367   7.745  0.00  0.00    +0.127 C 
ATOM     12  N   UNL     1      -2.823  -1.645   8.299  0.00  0.00    -0.262 NA
ATOM     13  C   UNL     1      -1.410  -1.862   7.947  0.00  0.00    +0.319 C 
ATOM     14  O   UNL     1      -1.313  -2.030   6.531  0.00  0.00    -0.476 OA
ATOM     15  H   UNL     1      -3.822   0.080   1.370  0.00  0.00    -0.076 HD
ENDROOT
BRANCH   1  16
ATOM     16  C   UNL     1      -2.513   0.975   0.020  0.00  0.00    -0.038 C 
BRANCH  16  22
ATOM     17  C   UNL     1      -0.013   1.076   0.008  0.00  0.00    +0.005 A 
ATOM     18  C   UNL     1       1.176   1.782   0.000  0.00  0.00    +0.050 A 
ATOM     19  C   UNL     1       1.160   3.167   0.007  0.00  0.00    +0.166 A 
ATOM     20  C   UNL     1      -0.057   3.845   0.022  0.00  0.00    +0.166 A 
ATOM     21  C   UNL     1      -1.244   3.131   0.031  0.00  0.00    +0.051 A 
ATOM     22  C   UNL     1      -1.220   1.749   0.017  0.00  0.00    -0.060 A 
ATOM     23  O   UNL     1       0.192   5.188   0.026  0.00  0.00    -0.453 OA
ATOM     24  C   UNL     1       1.561   5.326  -0.398  0.00  0.00    +0.466 C 
ATOM     25  O   UNL     1       2.171   4.084   0.002  0.00  0.00    -0.453 OA
ENDBRANCH  16  22
ENDBRANCH   1  16
BRANCH  12  26
ATOM     26  C   UNL     1      -3.016  -1.691   9.754  0.00  0.00    +0.123 C 
BRANCH  26  27
ATOM     27  C   UNL     1      -2.305  -0.525  10.392  0.00  0.00    -0.030 A 
ATOM     28  C   UNL     1      -2.970   0.673  10.574  0.00  0.00    +0.009 A 
ATOM     29  C   UNL     1      -2.321   1.745  11.159  0.00  0.00    +0.050 A 
ATOM     30  C   UNL     1      -1.003   1.620  11.565  0.00  0.00    +0.166 A 
ATOM     31  C   UNL     1      -0.333   0.412  11.382  0.00  0.00    +0.167 A 
ATOM     32  C   UNL     1      -0.991  -0.659  10.800  0.00  0.00    +0.054 A 
ATOM     33  O   UNL     1       0.939   0.543  11.860  0.00  0.00    -0.453 OA
ATOM     34  C   UNL     1       0.915   1.708  12.705  0.00  0.00    +0.466 C 
ATOM     35  O   UNL     1      -0.150   2.506  12.157  0.00  0.00    -0.453 OA
ENDBRANCH  26  27
ENDBRANCH  12  26
TORSDOF 4
