REMARK  Name = ZINC08342646
REMARK  6 active torsions:
REMARK  status: ('A' for Active; 'I' for Inactive)
REMARK    1  A    between atoms: C_1  and  C_2
REMARK    2  A    between atoms: C_2  and  C_3
REMARK    3  A    between atoms: C_2  and  C_4
REMARK    4  A    between atoms: C_2  and  C_5
REMARK    5  A    between atoms: C_12  and  C_14
REMARK    6  A    between atoms: N_16  and  N_17
REMARK                            x       y       z     vdW  Elec       q    Type
REMARK                         _______ _______ _______ _____ _____    ______ ____
ROOT
ATOM      1  C   UNL     1      -5.913  -3.939   1.495  0.00  0.00    +0.267 C 
ATOM      2  O   UNL     1      -5.265  -4.870   1.936  0.00  0.00    -0.268 OA
ATOM      3  N   UNL     1      -7.228  -4.093   1.243  0.00  0.00    -0.219 N 
ATOM      4  H   UNL     1      -7.745  -3.352   0.891  0.00  0.00    +0.174 HD
ENDROOT
BRANCH   3   5
ATOM      5  N   UNL     1      -7.849  -5.325   1.489  0.00  0.00    -0.137 N 
ATOM      6  C   UNL     1      -8.666  -5.567   2.535  0.00  0.00    +0.263 C 
ATOM      7  O   UNL     1      -8.990  -4.791   3.408  0.00  0.00    -0.271 OA
ATOM      8  C   UNL     1      -9.091  -7.011   2.389  0.00  0.00    +0.114 C 
ATOM      9  C   UNL     1     -10.603  -7.104   2.220  0.00  0.00    +0.035 C 
ATOM     10  C   UNL     1     -11.010  -8.570   2.046  0.00  0.00    +0.003 C 
ATOM     11  C   UNL     1     -10.567  -9.370   3.273  0.00  0.00    +0.000 C 
ATOM     12  C   UNL     1      -9.046  -9.286   3.415  0.00  0.00    +0.003 C 
ATOM     13  C   UNL     1      -8.630  -7.824   3.594  0.00  0.00    +0.035 C 
ATOM     14  N   UNL     1      -8.407  -7.463   1.171  0.00  0.00    -0.284 N 
ATOM     15  C   UNL     1      -7.709  -6.406   0.712  0.00  0.00    +0.326 C 
ATOM     16  O   UNL     1      -7.027  -6.432  -0.294  0.00  0.00    -0.251 OA
ATOM     17  H   UNL     1      -8.452  -8.346   0.773  0.00  0.00    +0.151 HD
ENDBRANCH   3   5
BRANCH   1  24
ATOM     18  C   UNL     1      -2.164   1.050   1.278  0.00  0.00    -0.001 C 
ATOM     19  C   UNL     1      -2.907   1.567   0.043  0.00  0.00    +0.009 C 
ATOM     20  C   UNL     1      -4.403   1.260   0.201  0.00  0.00    +0.043 C 
ATOM     21  C   UNL     1      -4.549  -0.171   0.620  0.00  0.00    -0.006 A 
ATOM     22  C   UNL     1      -3.570  -0.992   1.103  0.00  0.00    -0.036 A 
ATOM     23  C   UNL     1      -3.944  -2.286   1.425  0.00  0.00    +0.024 A 
ATOM     24  C   UNL     1      -5.264  -2.650   1.238  0.00  0.00    +0.076 A 
ATOM     25  S   UNL     1      -5.972  -1.141   0.600  0.00  0.00    -0.088 S 
ATOM     26  C   UNL     1      -2.141  -0.479   1.269  0.00  0.00    +0.040 C 
BRANCH  18  28
ATOM     27  C   UNL     1      -0.013   1.086   0.008  0.00  0.00    +0.011 C 
ATOM     28  C   UNL     1      -0.729   1.579   1.267  0.00  0.00    -0.035 C 
ATOM     29  C   UNL     1       0.011   1.072   2.506  0.00  0.00    +0.011 C 
ATOM     30  C   UNL     1      -0.750   3.109   1.275  0.00  0.00    +0.011 C 
ENDBRANCH  18  28
ENDBRANCH   1  24
TORSDOF 3
