REMARK  Name = ZINC39154590
REMARK  3 active torsions:
REMARK  status: ('A' for Active; 'I' for Inactive)
REMARK    1  A    between atoms: C_13  and  S_15
REMARK    2  A    between atoms: S_15  and  C_16
REMARK    3  A    between atoms: C_16  and  C_17
REMARK                            x       y       z     vdW  Elec       q    Type
REMARK                         _______ _______ _______ _____ _____    ______ ____
ROOT
ATOM      1  C   UNL     1      -0.014   1.343   0.022  0.00  0.00    +0.001 A 
ATOM      2  C   UNL     1       1.158   2.111   0.014  0.00  0.00    +0.002 A 
ATOM      3  C   UNL     1       2.384   1.540   0.004  0.00  0.00    +0.026 A 
ATOM      4  C   UNL     1       2.493   0.075   0.001  0.00  0.00    +0.046 A 
ATOM      5  N   UNL     1       3.533  -0.723  -0.041  0.00  0.00    -0.358 N 
ATOM      6  C   UNL     1       3.076  -2.095   0.104  0.00  0.00    +0.252 C 
ATOM      7  C   UNL     1       1.564  -2.043  -0.025  0.00  0.00    +0.117 C 
ATOM      8  C   UNL     1       1.233  -0.710  -0.003  0.00  0.00    +0.025 A 
ATOM      9  C   UNL     1       0.005  -0.010   0.013  0.00  0.00    +0.012 A 
ATOM     10  N   UNL     1       0.840  -3.142  -0.257  0.00  0.00    -0.147 NA
ATOM     11  N   UNL     1       1.459  -4.097  -0.882  0.00  0.00    -0.122 NA
ATOM     12  C   UNL     1       2.732  -3.961  -1.327  0.00  0.00    +0.208 C 
ATOM     13  N   UNL     1       3.551  -3.013  -0.930  0.00  0.00    -0.227 NA
ATOM     14  H   UNL     1       4.455  -0.444  -0.150  0.00  0.00    +0.162 HD
ENDROOT
BRANCH  12  15
ATOM     15  S   UNL     1       3.327  -5.127  -2.507  0.00  0.00    -0.075 S 
BRANCH  15  16
ATOM     16  C   UNL     1       5.032  -4.595  -2.828  0.00  0.00    +0.173 C 
BRANCH  16  17
ATOM     17  C   UNL     1       5.665  -5.521  -3.834  0.00  0.00    +0.229 C 
ATOM     18  O   UNL     1       5.030  -6.448  -4.290  0.00  0.00    -0.275 OA
ATOM     19  N   UNL     1       6.938  -5.319  -4.228  0.00  0.00    -0.270 N 
ATOM     20  C   UNL     1       7.559  -6.234  -5.077  0.00  0.00    +0.125 A 
ATOM     21  C   UNL     1       8.903  -6.076  -5.394  0.00  0.00    +0.045 A 
ATOM     22  C   UNL     1       9.508  -6.992  -6.238  0.00  0.00    +0.019 A 
ATOM     23  C   UNL     1       8.743  -8.038  -6.737  0.00  0.00    +0.032 A 
ATOM     24  C   UNL     1       7.412  -8.133  -6.379  0.00  0.00    +0.127 A 
ATOM     25  N   UNL     1       6.865  -7.248  -5.568  0.00  0.00    -0.239 NA
ATOM     26  I   UNL     1       9.598  -9.457  -8.019  0.00  0.00    -0.042 I 
ATOM     27  H   UNL     1       7.422  -4.536  -3.921  0.00  0.00    +0.156 HD
ENDBRANCH  16  17
ENDBRANCH  15  16
ENDBRANCH  12  15
TORSDOF 3
