REMARK  Name = ZINC28057556
REMARK  3 active torsions:
REMARK  status: ('A' for Active; 'I' for Inactive)
REMARK    1  A    between atoms: C_1  and  C_2
REMARK    2  A    between atoms: C_10  and  C_13
REMARK    3  A    between atoms: C_21  and  C_29
REMARK                            x       y       z     vdW  Elec       q    Type
REMARK                         _______ _______ _______ _____ _____    ______ ____
ROOT
ATOM      1  C   UNL     1       0.659   1.312  -6.343  0.00  0.00    +0.044 C 
ATOM      2  C   UNL     1       0.232   1.490  -4.909  0.00  0.00    -0.050 A 
ATOM      3  C   UNL     1      -1.107   1.385  -4.572  0.00  0.00    +0.007 A 
ATOM      4  C   UNL     1      -1.515   1.543  -3.260  0.00  0.00    +0.046 A 
ATOM      5  C   UNL     1      -0.579   1.809  -2.277  0.00  0.00    +0.131 A 
ATOM      6  C   UNL     1       0.776   1.918  -2.618  0.00  0.00    +0.038 A 
ATOM      7  C   UNL     1       1.177   1.756  -3.938  0.00  0.00    +0.016 A 
ATOM      8  C   UNL     1       1.752   2.208  -1.540  0.00  0.00    +0.050 C 
ATOM      9  C   UNL     1       1.373   2.022  -0.274  0.00  0.00    +0.026 C 
ATOM     10  C   UNL     1      -0.018   1.503   0.010  0.00  0.00    +0.234 C 
ATOM     11  O   UNL     1      -0.938   1.966  -0.978  0.00  0.00    -0.479 OA
ATOM     12  C   UNL     1       2.287   2.306   0.892  0.00  0.00    +0.177 C 
ATOM     13  N   UNL     1       3.452   3.056   0.446  0.00  0.00    -0.201 N 
ATOM     14  C   UNL     1       3.794   3.218  -0.860  0.00  0.00    +0.240 A 
ATOM     15  N   UNL     1       4.885   3.927  -0.890  0.00  0.00    -0.092 NA
ATOM     16  N   UNL     1       5.254   4.231   0.307  0.00  0.00    -0.021 NA
ATOM     17  N   UNL     1       4.428   3.737   1.172  0.00  0.00    -0.042 NA
ATOM     18  N   UNL     1       3.026   2.678  -1.878  0.00  0.00    -0.282 N 
ATOM     19  H   UNL     1       3.380   2.610  -2.917  0.00  0.00    +0.155 HD
ENDROOT
BRANCH  10  20
ATOM     20  C   UNL     1       0.002  -0.004   0.002  0.00  0.00    -0.002 A 
ATOM     21  C   UNL     1       0.104  -0.687  -1.196  0.00  0.00    +0.010 A 
ATOM     22  C   UNL     1       0.123  -2.069  -1.205  0.00  0.00    +0.040 A 
ATOM     23  C   UNL     1       0.040  -2.770  -0.014  0.00  0.00    +0.137 A 
ATOM     24  C   UNL     1      -0.063  -2.085   1.185  0.00  0.00    +0.053 A 
ATOM     25  C   UNL     1      -0.076  -0.702   1.192  0.00  0.00    +0.025 A 
ATOM     26 BR   UNL     1      -0.177  -3.041   2.813  0.00  0.00    -0.047 Br
ATOM     27  F   UNL     1       0.058  -4.121  -0.022  0.00  0.00    -0.204 F 
ENDBRANCH  10  20
BRANCH  12  28
ATOM     28  C   UNL     1       2.736   1.004   1.504  0.00  0.00    +0.017 A 
ATOM     29  C   UNL     1       3.438   0.088   0.744  0.00  0.00    +0.009 A 
ATOM     30  C   UNL     1       3.850  -1.106   1.305  0.00  0.00    +0.001 A 
ATOM     31  C   UNL     1       3.561  -1.385   2.628  0.00  0.00    +0.003 A 
ATOM     32  C   UNL     1       2.860  -0.471   3.390  0.00  0.00    +0.039 A 
ATOM     33  C   UNL     1       2.450   0.728   2.830  0.00  0.00    +0.129 A 
ATOM     34  F   UNL     1       1.769   1.625   3.577  0.00  0.00    -0.205 F 
ENDBRANCH  12  28
TORSDOF 2
