REMARK  Name = ZINC64144013
REMARK  12 active torsions:
REMARK  status: ('A' for Active; 'I' for Inactive)
REMARK    1  A    between atoms: C_1  and  C_2
REMARK    2  A    between atoms: C_4  and  C_13
REMARK    3  A    between atoms: C_5  and  C_12
REMARK    4  A    between atoms: N_6  and  C_8
REMARK    5  A    between atoms: C_8  and  C_9
REMARK    6  A    between atoms: C_9  and  C_10
REMARK    7  A    between atoms: C_9  and  C_11
REMARK    8  A    between atoms: C_13  and  C_14
REMARK    9  A    between atoms: N_16  and  C_17
REMARK   10  A    between atoms: C_17  and  C_18
REMARK   11  A    between atoms: C_18  and  C_20
REMARK   12  A    between atoms: C_18  and  C_26
REMARK                            x       y       z     vdW  Elec       q    Type
REMARK                         _______ _______ _______ _____ _____    ______ ____
ROOT
ATOM      1  C   UNL     1      -4.914   2.632  -1.154  0.00  0.00    +0.116 C 
ENDROOT
BRANCH   1   4
ATOM      2  C   UNL     1      -3.206   0.965  -0.661  0.00  0.00    +0.217 C 
ATOM      3  O   UNL     1      -2.859   1.643   0.283  0.00  0.00    -0.275 OA
ATOM      4  N   UNL     1      -4.225   1.371  -1.444  0.00  0.00    -0.314 N 
ATOM      5  H   UNL     1      -4.503   0.830  -2.199  0.00  0.00    +0.149 HD
BRANCH   2   6
ATOM      6  C   UNL     1      -2.498  -0.332  -0.959  0.00  0.00    +0.129 C 
BRANCH   6   9
ATOM      7  C   UNL     1      -0.019   1.526   0.010  0.00  0.00    +0.030 C 
ATOM      8  C   UNL     1       0.002  -0.004   0.002  0.00  0.00    +0.098 C 
ATOM      9  C   UNL     1      -1.407  -0.553   0.057  0.00  0.00    -0.025 C 
ATOM     10  C   UNL     1      -1.497  -1.261   1.165  0.00  0.00    +0.020 C 
ATOM     11  N   UNL     1      -0.311  -1.258   1.871  0.00  0.00    -0.270 N 
ATOM     12  N   UNL     1       0.644  -0.519   1.228  0.00  0.00    -0.234 NA
ATOM     13  C   UNL     1      -2.743  -1.985   1.607  0.00  0.00    +0.062 C 
ATOM     14  H   UNL     1       1.451  -1.082   1.005  0.00  0.00    +0.145 HD
BRANCH  11  15
ATOM     15  C   UNL     1      -0.102  -1.955   3.143  0.00  0.00    +0.126 C 
BRANCH  15  16
ATOM     16  C   UNL     1       0.401  -3.374   2.870  0.00  0.00    +0.002 C 
ATOM     17  C   UNL     1       0.738  -4.060   4.195  0.00  0.00    +0.009 C 
ATOM     18  C   UNL     1      -0.688  -4.170   2.146  0.00  0.00    +0.009 C 
ENDBRANCH  15  16
ENDBRANCH  11  15
ENDBRANCH   6   9
ENDBRANCH   2   6
ENDBRANCH   1   4
BRANCH   1  19
ATOM     19  C   UNL     1      -6.021   2.857  -2.186  0.00  0.00    +0.064 C 
BRANCH  19  20
ATOM     20  C   UNL     1      -6.648   4.209  -1.963  0.00  0.00    -0.033 C 
ATOM     21  C   UNL     1      -6.704   5.234  -2.844  0.00  0.00    -0.000 A 
ATOM     22  C   UNL     1      -6.217   5.391  -4.219  0.00  0.00    +0.010 A 
ATOM     23  C   UNL     1      -6.427   6.564  -4.860  0.00  0.00    +0.001 A 
ATOM     24  C   UNL     1      -7.097   7.630  -4.244  0.00  0.00    +0.002 A 
ATOM     25  C   UNL     1      -7.574   7.561  -2.983  0.00  0.00    +0.026 A 
ATOM     26  C   UNL     1      -7.409   6.375  -2.216  0.00  0.00    +0.043 A 
ATOM     27  N   UNL     1      -7.774   6.067  -0.996  0.00  0.00    -0.380 N 
ATOM     28  C   UNL     1      -7.347   4.692  -0.712  0.00  0.00    +0.145 C 
ATOM     29  H   UNL     1      -8.251   6.649  -0.383  0.00  0.00    +0.160 HD
ENDBRANCH  19  20
BRANCH  19  30
ATOM     30  C   UNL     1      -7.071   1.786  -2.037  0.00  0.00    -0.039 A 
ATOM     31  C   UNL     1      -7.755   1.649  -0.843  0.00  0.00    +0.004 A 
ATOM     32  C   UNL     1      -8.718   0.667  -0.707  0.00  0.00    +0.000 A 
ATOM     33  C   UNL     1      -8.997  -0.179  -1.764  0.00  0.00    +0.000 A 
ATOM     34  C   UNL     1      -8.314  -0.042  -2.958  0.00  0.00    +0.000 A 
ATOM     35  C   UNL     1      -7.354   0.943  -3.096  0.00  0.00    +0.004 A 
ENDBRANCH  19  30
ENDBRANCH   1  19
TORSDOF 8
