REMARK  Name = ZINC34747616
REMARK  7 active torsions:
REMARK  status: ('A' for Active; 'I' for Inactive)
REMARK    1  A    between atoms: C_1  and  C_2
REMARK    2  A    between atoms: C_2  and  C_3
REMARK    3  A    between atoms: C_2  and  C_4
REMARK    4  A    between atoms: C_4  and  N_5
REMARK    5  A    between atoms: N_18  and  C_21
REMARK    6  A    between atoms: C_21  and  C_22
REMARK    7  A    between atoms: N_24  and  C_25
REMARK                            x       y       z     vdW  Elec       q    Type
REMARK                         _______ _______ _______ _____ _____    ______ ____
ROOT
ATOM      1  N   UNL     1      -2.227  -3.540   0.903  0.00  0.00    -0.280 N 
ATOM      2  C   UNL     1      -2.317  -4.000  -0.359  0.00  0.00    +0.264 A 
ATOM      3  O   UNL     1      -3.206  -4.773  -0.673  0.00  0.00    -0.267 OA
ATOM      4  C   UNL     1      -1.354  -3.570  -1.326  0.00  0.00    +0.076 A 
ATOM      5  C   UNL     1      -1.260  -3.940  -2.739  0.00  0.00    -0.023 A 
ATOM      6  C   UNL     1      -0.251  -3.394  -3.449  0.00  0.00    -0.004 A 
ATOM      7  S   UNL     1       0.621  -2.369  -2.295  0.00  0.00    -0.073 S 
ATOM      8  C   UNL     1      -0.374  -2.679  -0.858  0.00  0.00    +0.117 A 
ATOM      9  N   UNL     1      -0.341  -2.262   0.402  0.00  0.00    -0.208 NA
ATOM     10  C   UNL     1      -1.243  -2.670   1.271  0.00  0.00    +0.202 A 
ATOM     11  N   UNL     1      -1.189  -2.218   2.566  0.00  0.00    -0.304 N 
ATOM     12  C   UNL     1      -1.038  -0.785   2.861  0.00  0.00    +0.089 C 
ATOM     13  C   UNL     1       0.111  -0.613   3.860  0.00  0.00    -0.059 C 
ATOM     14  N   UNL     1      -0.138  -1.452   5.039  0.00  0.00    +0.387 N 
ATOM     15  C   UNL     1      -0.120  -2.870   4.657  0.00  0.00    -0.059 C 
ATOM     16  C   UNL     1      -1.286  -3.153   3.698  0.00  0.00    +0.089 C 
ATOM     17  C   UNL     1       0.061  -3.611  -4.898  0.00  0.00    +0.043 C 
ATOM     18  C   UNL     1      -0.718  -4.843  -5.382  0.00  0.00    +0.005 C 
ATOM     19  C   UNL     1      -2.171  -4.719  -4.915  0.00  0.00    +0.005 C 
ATOM     20  C   UNL     1      -2.248  -4.899  -3.399  0.00  0.00    +0.037 C 
ATOM     21  H   UNL     1      -1.038  -1.222   5.431  0.00  0.00    -0.081 HD
ENDROOT
BRANCH   1  22
ATOM     22  C   UNL     1      -3.210  -3.976   1.898  0.00  0.00    +0.131 C 
BRANCH  22  24
ATOM     23  C   UNL     1      -5.541  -3.647   2.735  0.00  0.00    +0.009 C 
ATOM     24  C   UNL     1      -4.464  -3.107   1.792  0.00  0.00    +0.003 C 
ATOM     25  C   UNL     1      -4.121  -1.667   2.181  0.00  0.00    +0.009 C 
ENDBRANCH  22  24
ENDBRANCH   1  22
BRANCH  14  26
ATOM     26  C   UNL     1       0.906  -1.205   6.043  0.00  0.00    +0.019 C 
BRANCH  26  27
ATOM     27  C   UNL     1       0.586  -1.971   7.300  0.00  0.00    +0.197 C 
ATOM     28  O   UNL     1      -0.413  -2.656   7.355  0.00  0.00    -0.278 OA
ATOM     29  N   UNL     1       1.411  -1.895   8.364  0.00  0.00    -0.314 N 
ATOM     30  H   UNL     1       2.210  -1.347   8.320  0.00  0.00    +0.149 HD
BRANCH  29  31
ATOM     31  C   UNL     1       1.099  -2.640   9.586  0.00  0.00    +0.073 C 
ATOM     32  C   UNL     1       0.143  -1.820  10.454  0.00  0.00    +0.022 C 
ATOM     33  C   UNL     1      -0.182  -2.598  11.731  0.00  0.00    +0.002 C 
ATOM     34  C   UNL     1       1.109  -2.866  12.507  0.00  0.00    +0.000 C 
ATOM     35  C   UNL     1       2.065  -3.687  11.639  0.00  0.00    +0.002 C 
ATOM     36  C   UNL     1       2.390  -2.908  10.363  0.00  0.00    +0.022 C 
ENDBRANCH  29  31
ENDBRANCH  26  27
ENDBRANCH  14  26
TORSDOF 5
