REMARK  Name = ZINC39948762
REMARK  7 active torsions:
REMARK  status: ('A' for Active; 'I' for Inactive)
REMARK    1  A    between atoms: C_1  and  C_2
REMARK    2  A    between atoms: N_8  and  C_9
REMARK    3  A    between atoms: C_9  and  C_10
REMARK    4  A    between atoms: C_11  and  C_21
REMARK    5  A    between atoms: N_23  and  N_24
REMARK    6  A    between atoms: C_25  and  C_26
REMARK    7  A    between atoms: C_25  and  C_27
REMARK                            x       y       z     vdW  Elec       q    Type
REMARK                         _______ _______ _______ _____ _____    ______ ____
ROOT
ATOM      1  C   UNL     1       5.059   1.936   2.228  0.00  0.00    +0.063 A 
ATOM      2  C   UNL     1       4.463   2.047   3.453  0.00  0.00    +0.170 A 
ATOM      3  N   UNL     1       5.073   1.201   4.301  0.00  0.00    -0.124 NA
ATOM      4  N   UNL     1       6.009   0.570   3.683  0.00  0.00    -0.058 NA
ATOM      5  N   UNL     1       6.032   1.006   2.350  0.00  0.00    -0.194 N 
ATOM      6  C   UNL     1       6.897   0.566   1.343  0.00  0.00    +0.240 A 
ATOM      7  C   UNL     1       7.944  -0.448   1.493  0.00  0.00    +0.206 A 
ATOM      8  N   UNL     1       8.543  -0.594   0.344  0.00  0.00    -0.032 NA
ATOM      9  O   UNL     1       7.933   0.292  -0.579  0.00  0.00    -0.239 OA
ATOM     10  N   UNL     1       6.906   0.985   0.109  0.00  0.00    -0.027 NA
ATOM     11  N   UNL     1       8.247  -1.138   2.662  0.00  0.00    -0.337 N 
ATOM     12  H   UNL     1       7.745  -0.962   3.473  0.00  0.00    +0.144 HD
ATOM     13  H   UNL     1       8.961  -1.795   2.666  0.00  0.00    +0.144 HD
ENDROOT
BRANCH   2  14
ATOM     14  C   UNL     1       3.342   2.945   3.788  0.00  0.00    +0.285 C 
ATOM     15  O   UNL     1       2.869   3.671   2.935  0.00  0.00    -0.267 OA
ATOM     16  N   UNL     1       2.842   2.961   5.039  0.00  0.00    -0.201 N 
ATOM     17  H   UNL     1       3.220   2.382   5.720  0.00  0.00    +0.178 HD
BRANCH  16  18
ATOM     18  N   UNL     1       1.777   3.813   5.357  0.00  0.00    -0.184 NA
ATOM     19  C   UNL     1       1.371   3.914   6.586  0.00  0.00    +0.063 C 
ATOM     20  C   UNL     1       0.114   4.681   6.904  0.00  0.00    +0.068 C 
BRANCH  19  21
ATOM     21  C   UNL     1       2.141   3.278   7.671  0.00  0.00    -0.001 A 
ATOM     22  C   UNL     1       3.537   3.253   7.620  0.00  0.00    +0.010 A 
ATOM     23  C   UNL     1       4.251   2.656   8.639  0.00  0.00    +0.002 A 
ATOM     24  C   UNL     1       3.588   2.083   9.710  0.00  0.00    +0.020 A 
ATOM     25  C   UNL     1       2.205   2.104   9.767  0.00  0.00    +0.042 A 
ATOM     26  C   UNL     1       1.478   2.703   8.757  0.00  0.00    +0.029 A 
ATOM     27 CL   UNL     1       1.383   1.382  11.115  0.00  0.00    -0.084 Cl
ENDBRANCH  19  21
ENDBRANCH  16  18
ENDBRANCH   2  14
BRANCH   1  28
ATOM     28  C   UNL     1       4.696   2.698   0.980  0.00  0.00    -0.019 C 
BRANCH  28  35
ATOM     29  C   UNL     1       2.721   4.109  -0.433  0.00  0.00    -0.013 C 
ATOM     30  C   UNL     1       3.234   2.752  -0.919  0.00  0.00    -0.071 C 
ATOM     31  C   UNL     1       2.112   2.017  -1.655  0.00  0.00    -0.016 C 
ATOM     32  C   UNL     1       2.630   0.660  -2.140  0.00  0.00    -0.003 C 
ATOM     33  C   UNL     1       3.155  -0.134  -0.940  0.00  0.00    -0.019 C 
ATOM     34  C   UNL     1       4.239   0.681  -0.231  0.00  0.00    -0.078 C 
ATOM     35  N   UNL     1       3.674   1.954   0.232  0.00  0.00    +0.385 N 
ATOM     36  H   UNL     1       2.885   1.772   0.834  0.00  0.00    -0.081 HD
ENDBRANCH  28  35
ENDBRANCH   1  28
TORSDOF 5
