REMARK  Name = ZINC08588374
REMARK  2 active torsions:
REMARK  status: ('A' for Active; 'I' for Inactive)
REMARK    1  A    between atoms: C_1  and  C_2
REMARK    2  A    between atoms: C_15  and  C_17
REMARK                            x       y       z     vdW  Elec       q    Type
REMARK                         _______ _______ _______ _____ _____    ______ ____
ROOT
ATOM      1  C   UNL     1      -0.019   1.526   0.010  0.00  0.00    +0.008 C 
ATOM      2  C   UNL     1       0.002  -0.004   0.002  0.00  0.00    -0.009 C 
ATOM      3  C   UNL     1       0.726  -0.501  -1.253  0.00  0.00    +0.008 C 
ATOM      4  C   UNL     1       0.535  -2.011  -1.398  0.00  0.00    +0.037 C 
ATOM      5  C   UNL     1       0.948  -2.688  -0.093  0.00  0.00    -0.023 A 
ATOM      6  C   UNL     1       1.031  -1.976   1.055  0.00  0.00    -0.004 A 
ATOM      7  S   UNL     1       1.536  -3.145   2.292  0.00  0.00    -0.073 S 
ATOM      8  C   UNL     1       1.636  -4.581   1.271  0.00  0.00    +0.116 A 
ATOM      9  C   UNL     1       1.270  -4.102  -0.009  0.00  0.00    +0.075 A 
ATOM     10  C   UNL     1       1.253  -5.050  -1.085  0.00  0.00    +0.260 A 
ATOM     11  O   UNL     1       0.952  -4.733  -2.223  0.00  0.00    -0.267 OA
ATOM     12  N   UNL     1       1.593  -6.320  -0.759  0.00  0.00    -0.306 N 
ATOM     13  H   UNL     1       1.595  -6.993  -1.458  0.00  0.00    +0.170 HD
ATOM     14  C   UNL     1       1.934  -6.694   0.509  0.00  0.00    +0.149 A 
ATOM     15  N   UNL     1       1.960  -5.841   1.525  0.00  0.00    -0.222 NA
ATOM     16  C   UNL     1       0.751  -0.516   1.241  0.00  0.00    +0.046 C 
ENDROOT
BRANCH  14  17
ATOM     17  C   UNL     1       2.288  -8.102   0.759  0.00  0.00    +0.102 A 
ATOM     18  C   UNL     1       2.637  -8.543   2.027  0.00  0.00    +0.030 A 
ATOM     19  C   UNL     1       2.997  -9.907   2.184  0.00  0.00    +0.019 A 
ATOM     20  C   UNL     1       3.164 -10.456   3.463  0.00  0.00    +0.026 A 
ATOM     21  C   UNL     1       3.469 -11.781   3.599  0.00  0.00    +0.019 A 
ATOM     22  C   UNL     1       3.623 -12.588   2.479  0.00  0.00    +0.019 A 
ATOM     23  C   UNL     1       3.482 -12.064   1.211  0.00  0.00    +0.048 A 
ATOM     24  C   UNL     1       3.180 -10.718   1.049  0.00  0.00    +0.139 A 
ATOM     25  O   UNL     1       3.082 -10.182  -0.192  0.00  0.00    -0.422 OA
ATOM     26  C   UNL     1       2.279  -9.099  -0.327  0.00  0.00    +0.348 A 
ATOM     27  O   UNL     1       1.579  -8.951  -1.312  0.00  0.00    -0.244 OA
ATOM     28 BR   UNL     1       3.684 -12.522   5.325  0.00  0.00    -0.050 Br
ENDBRANCH  14  17
TORSDOF 1
