REMARK  Name = ZINC14158016
REMARK  10 active torsions:
REMARK  status: ('A' for Active; 'I' for Inactive)
REMARK    1  A    between atoms: C_1  and  C_2
REMARK    2  A    between atoms: C_4  and  C_30
REMARK    3  A    between atoms: N_10  and  C_11
REMARK    4  A    between atoms: C_11  and  N_13
REMARK    5  A    between atoms: N_13  and  C_14
REMARK    6  A    between atoms: N_19  and  C_20
REMARK    7  A    between atoms: C_22  and  C_28
REMARK    8  A    between atoms: C_22  and  C_29
REMARK    9  A    between atoms: C_24  and  C_26
REMARK   10  A    between atoms: C_24  and  C_27
REMARK                            x       y       z     vdW  Elec       q    Type
REMARK                         _______ _______ _______ _____ _____    ______ ____
ROOT
ATOM      1  C   UNL     1      -2.327  -0.608  -8.028  0.00  0.00    +0.066 C 
ATOM      2  C   UNL     1      -3.004  -0.018  -6.817  0.00  0.00    +0.044 A 
ATOM      3  C   UNL     1      -4.373   0.204  -6.817  0.00  0.00    +0.046 A 
ATOM      4  C   UNL     1      -4.955   0.748  -5.683  0.00  0.00    +0.044 A 
ATOM      5  N   UNL     1      -4.193   1.036  -4.641  0.00  0.00    -0.217 NA
ATOM      6  C   UNL     1      -2.889   0.811  -4.674  0.00  0.00    +0.231 A 
ATOM      7  N   UNL     1      -2.300   0.298  -5.743  0.00  0.00    -0.217 NA
ATOM      8  N   UNL     1      -2.119   1.126  -3.562  0.00  0.00    -0.297 N 
ATOM      9  C   UNL     1      -0.756   1.006  -3.617  0.00  0.00    +0.196 C 
ATOM     10  N   UNL     1      -0.165   0.700  -4.759  0.00  0.00    -0.160 NA
ATOM     11  N   UNL     1      -0.008   1.202  -2.492  0.00  0.00    -0.355 N 
ATOM     12  C   UNL     1      -6.439   1.006  -5.638  0.00  0.00    +0.066 C 
ATOM     13  H   UNL     1      -2.604   1.472  -2.638  0.00  0.00    +0.171 HD
ATOM     14  H   UNL     1       1.079   1.034  -2.518  0.00  0.00    +0.163 HD
ENDROOT
BRANCH  11  15
ATOM     15  C   UNL     1      -0.654   1.637  -1.247  0.00  0.00    +0.079 C 
ATOM     16  C   UNL     1       0.151   1.122  -0.055  0.00  0.00    +0.011 C 
ATOM     17  C   UNL     1      -0.485   1.579   1.255  0.00  0.00    -0.071 C 
ATOM     18  N   UNL     1      -0.783   2.996   1.275  0.00  0.00    +0.386 N 
ATOM     19  C   UNL     1      -1.321   3.646   0.099  0.00  0.00    -0.071 C 
ATOM     20  C   UNL     1      -0.673   3.165  -1.197  0.00  0.00    +0.011 C 
ATOM     21  C   UNL     1      -1.052   5.162   0.219  0.00  0.00    -0.010 C 
ATOM     22  C   UNL     1      -2.841   3.461   0.010  0.00  0.00    -0.010 C 
ATOM     23  C   UNL     1      -1.742   0.746   1.532  0.00  0.00    -0.010 C 
ATOM     24  C   UNL     1       0.520   1.281   2.389  0.00  0.00    -0.010 C 
ATOM     25  H   UNL     1      -1.530   3.203   2.055  0.00  0.00    -0.084 HD
ATOM     26  H   UNL     1       0.137   3.561   1.489  0.00  0.00    -0.084 HD
ENDBRANCH  11  15
BRANCH  10  27
ATOM     27  C   UNL     1       1.155   0.468  -4.789  0.00  0.00    +0.157 C 
ATOM     28  S   UNL     1       1.808  -0.873  -3.948  0.00  0.00    -0.017 S 
BRANCH  27  29
ATOM     29  N   UNL     1       1.968   1.290  -5.482  0.00  0.00    -0.322 N 
ATOM     30  H   UNL     1       1.549   2.151  -6.022  0.00  0.00    +0.148 HD
BRANCH  29  31
ATOM     31  C   UNL     1       3.411   1.036  -5.515  0.00  0.00    +0.072 C 
ATOM     32  C   UNL     1       4.096   1.724  -4.316  0.00  0.00    +0.022 C 
ATOM     33  C   UNL     1       5.446   2.225  -4.886  0.00  0.00    +0.002 C 
ATOM     34  C   UNL     1       5.062   2.691  -6.313  0.00  0.00    +0.002 C 
ATOM     35  C   UNL     1       4.025   1.651  -6.784  0.00  0.00    +0.022 C 
ENDBRANCH  29  31
ENDBRANCH  27  29
ENDBRANCH  10  27
TORSDOF 4
