REMARK  Name = ZINC64623267
REMARK  5 active torsions:
REMARK  status: ('A' for Active; 'I' for Inactive)
REMARK    1  A    between atoms: C_1  and  C_2
REMARK    2  A    between atoms: C_5  and  C_8
REMARK    3  A    between atoms: C_15  and  O_20
REMARK    4  A    between atoms: O_20  and  C_21
REMARK    5  A    between atoms: N_27  and  C_28
REMARK                            x       y       z     vdW  Elec       q    Type
REMARK                         _______ _______ _______ _____ _____    ______ ____
ROOT
ATOM      1  C   UNL     1      -0.818  -4.624  -0.419  0.00  0.00    +0.134 C 
ATOM      2  C   UNL     1       0.690  -4.845  -0.574  0.00  0.00    +0.131 C 
ATOM      3  C   UNL     1       0.980  -6.247  -0.053  0.00  0.00    -0.035 C 
ATOM      4  C   UNL     1       1.587  -6.895  -1.040  0.00  0.00    +0.003 A 
ATOM      5  C   UNL     1       2.164  -8.246  -1.120  0.00  0.00    +0.055 A 
ATOM      6  C   UNL     1       2.712  -8.607  -2.313  0.00  0.00    +0.121 A 
ATOM      7  C   UNL     1       2.750  -7.774  -3.442  0.00  0.00    +0.047 A 
ATOM      8  C   UNL     1       2.252  -6.512  -3.477  0.00  0.00    +0.029 A 
ATOM      9  C   UNL     1       1.637  -6.006  -2.242  0.00  0.00    +0.043 A 
ATOM     10  N   UNL     1       1.102  -4.829  -1.979  0.00  0.00    -0.375 N 
ATOM     11  C   UNL     1       0.538  -6.712   1.312  0.00  0.00    +0.052 C 
ATOM     12  C   UNL     1      -0.960  -6.378   1.430  0.00  0.00    +0.114 C 
ATOM     13  N   UNL     1      -1.194  -5.012   0.949  0.00  0.00    -0.276 N 
ATOM     14  C   UNL     1      -1.758  -4.103   1.770  0.00  0.00    +0.307 C 
ATOM     15  O   UNL     1      -2.121  -3.029   1.329  0.00  0.00    -0.252 OA
ATOM     16  N   UNL     1      -1.919  -4.385   3.078  0.00  0.00    -0.269 N 
ATOM     17  H   UNL     1      -1.545  -5.199   3.448  0.00  0.00    +0.156 HD
ATOM     18  H   UNL     1       0.991  -4.088  -2.594  0.00  0.00    +0.160 HD
ENDROOT
BRANCH  16  19
ATOM     19  C   UNL     1      -2.627  -3.500   3.903  0.00  0.00    +0.038 A 
ATOM     20  C   UNL     1      -2.611  -2.138   3.635  0.00  0.00    +0.027 A 
ATOM     21  C   UNL     1      -3.308  -1.265   4.449  0.00  0.00    +0.051 A 
ATOM     22  C   UNL     1      -4.026  -1.747   5.534  0.00  0.00    +0.162 A 
ATOM     23  C   UNL     1      -4.046  -3.110   5.802  0.00  0.00    +0.164 A 
ATOM     24  C   UNL     1      -3.349  -3.986   4.984  0.00  0.00    +0.072 A 
ATOM     25  O   UNL     1      -4.751  -3.602   6.858  0.00  0.00    -0.485 OA
ATOM     26  C   UNL     1      -5.134  -2.664   7.869  0.00  0.00    +0.270 C 
ATOM     27  C   UNL     1      -5.714  -1.423   7.178  0.00  0.00    +0.270 C 
ATOM     28  O   UNL     1      -4.703  -0.871   6.327  0.00  0.00    -0.485 OA
ENDBRANCH  16  19
BRANCH   1  33
ATOM     29  C   UNL     1      -2.078   0.947  -1.292  0.00  0.00    +0.044 C 
ATOM     30  C   UNL     1      -1.750  -0.506  -1.064  0.00  0.00    -0.050 A 
ATOM     31  C   UNL     1      -0.699  -0.855  -0.236  0.00  0.00    +0.004 A 
ATOM     32  C   UNL     1      -0.398  -2.188  -0.028  0.00  0.00    +0.006 A 
ATOM     33  C   UNL     1      -1.147  -3.171  -0.646  0.00  0.00    -0.025 A 
ATOM     34  C   UNL     1      -2.198  -2.822  -1.473  0.00  0.00    +0.006 A 
ATOM     35  C   UNL     1      -2.502  -1.489  -1.679  0.00  0.00    +0.004 A 
ENDBRANCH   1  33
BRANCH   6  36
ATOM     36  O   UNL     1       3.254  -9.849  -2.417  0.00  0.00    -0.495 OA
ATOM     37  C   UNL     1       3.822 -10.205  -3.679  0.00  0.00    +0.277 C 
ENDBRANCH   6  36
TORSDOF 3
