REMARK  Name = ZINC14976606
REMARK  9 active torsions:
REMARK  status: ('A' for Active; 'I' for Inactive)
REMARK    1  A    between atoms: C_1  and  C_2
REMARK    2  A    between atoms: C_7  and  N_8
REMARK    3  A    between atoms: C_9  and  C_11
REMARK    4  A    between atoms: C_11  and  O_12
REMARK    5  A    between atoms: O_12  and  C_13
REMARK    6  A    between atoms: C_16  and  C_27
REMARK    7  A    between atoms: C_18  and  C_19
REMARK    8  A    between atoms: C_19  and  N_67
REMARK    9  A    between atoms: C_23  and  C_26
REMARK                            x       y       z     vdW  Elec       q    Type
REMARK                         _______ _______ _______ _____ _____    ______ ____
ROOT
ATOM      1  C   UNL     1      -3.651  -2.183  -0.003  0.00  0.00    +0.123 A 
ATOM      2  C   UNL     1      -3.673  -0.795  -0.004  0.00  0.00    +0.046 A 
ATOM      3  C   UNL     1      -2.491  -0.085  -0.016  0.00  0.00    +0.012 A 
ATOM      4  C   UNL     1      -1.273  -0.763  -0.038  0.00  0.00    -0.017 A 
ATOM      5  C   UNL     1      -1.254  -2.156  -0.037  0.00  0.00    +0.013 A 
ATOM      6  C   UNL     1      -2.439  -2.861  -0.019  0.00  0.00    -0.022 A 
ENDROOT
BRANCH   4   7
ATOM      7  C   UNL     1       0.001  -0.002  -0.057  0.00  0.00    -0.014 A 
ATOM      8  C   UNL     1       1.219  -0.680  -0.074  0.00  0.00    +0.012 A 
ATOM      9  C   UNL     1       2.403   0.029  -0.092  0.00  0.00    +0.050 A 
ATOM     10  C   UNL     1       2.386   1.415  -0.093  0.00  0.00    +0.166 A 
ATOM     11  C   UNL     1       1.171   2.098  -0.076  0.00  0.00    +0.167 A 
ATOM     12  C   UNL     1      -0.018   1.391  -0.058  0.00  0.00    +0.058 A 
ATOM     13  O   UNL     1       1.424   3.440  -0.081  0.00  0.00    -0.453 OA
ATOM     14  C   UNL     1       2.803   3.572   0.311  0.00  0.00    +0.466 C 
ATOM     15  O   UNL     1       3.399   2.330  -0.109  0.00  0.00    -0.453 OA
ENDBRANCH   4   7
BRANCH   1  16
ATOM     16  O   UNL     1      -4.817  -2.880   0.013  0.00  0.00    -0.483 OA
BRANCH  16  17
ATOM     17  C   UNL     1      -6.027  -2.120   0.029  0.00  0.00    +0.324 C 
BRANCH  17  19
ATOM     18  N   UNL     1      -8.461  -2.559   0.062  0.00  0.00    -0.282 N 
ATOM     19  C   UNL     1      -7.208  -3.055   0.045  0.00  0.00    +0.255 C 
ATOM     20  O   UNL     1      -7.031  -4.255   0.044  0.00  0.00    -0.272 OA
ATOM     21  H   UNL     1      -8.603  -1.603   0.144  0.00  0.00    +0.155 HD
BRANCH  18  28
ATOM     22  C   UNL     1     -10.947  -1.708   1.153  0.00  0.00    +0.046 C 
ATOM     23  C   UNL     1     -10.790  -3.047   0.480  0.00  0.00    -0.027 A 
ATOM     24  C   UNL     1     -11.872  -3.899   0.374  0.00  0.00    +0.043 A 
ATOM     25  C   UNL     1     -11.726  -5.131  -0.239  0.00  0.00    +0.124 A 
ATOM     26  C   UNL     1     -10.497  -5.511  -0.752  0.00  0.00    +0.040 A 
ATOM     27  C   UNL     1      -9.414  -4.660  -0.653  0.00  0.00    +0.026 A 
ATOM     28  C   UNL     1      -9.558  -3.423  -0.039  0.00  0.00    +0.037 A 
ATOM     29  F   UNL     1     -12.785  -5.965  -0.337  0.00  0.00    -0.205 F 
ENDBRANCH  18  28
ENDBRANCH  17  19
ENDBRANCH  16  17
ENDBRANCH   1  16
BRANCH   6  30
ATOM     30  C   UNL     1      -2.420  -4.368  -0.018  0.00  0.00    -0.039 C 
BRANCH  30  37
ATOM     31  C   UNL     1      -1.870  -4.126  -2.364  0.00  0.00    -0.078 C 
ATOM     32  C   UNL     1      -2.265  -4.565  -3.776  0.00  0.00    -0.018 C 
ATOM     33  C   UNL     1      -2.031  -6.071  -3.921  0.00  0.00    -0.001 C 
ATOM     34  C   UNL     1      -2.840  -6.811  -2.853  0.00  0.00    -0.031 C 
ATOM     35  C   UNL     1      -2.429  -6.307  -1.467  0.00  0.00    -0.075 C 
ATOM     36  C   UNL     1      -2.565  -8.313  -2.952  0.00  0.00    +0.005 C 
ATOM     37  N   UNL     1      -2.702  -4.856  -1.384  0.00  0.00    +0.383 N 
ATOM     38  H   UNL     1      -3.692  -4.691  -1.599  0.00  0.00    -0.081 HD
ENDBRANCH  30  37
ENDBRANCH   6  30
TORSDOF 7
