REMARK  Name = ZINC55667215
REMARK  9 active torsions:
REMARK  status: ('A' for Active; 'I' for Inactive)
REMARK    1  A    between atoms: C_1  and  C_2
REMARK    2  A    between atoms: C_5  and  C_8
REMARK    3  A    between atoms: C_9  and  S_10
REMARK    4  A    between atoms: S_10  and  N_13
REMARK    5  A    between atoms: N_13  and  C_14
REMARK    6  A    between atoms: C_17  and  C_21
REMARK    7  A    between atoms: N_23  and  C_24
REMARK    8  A    between atoms: C_24  and  C_25
REMARK    9  A    between atoms: C_25  and  O_26
REMARK                            x       y       z     vdW  Elec       q    Type
REMARK                         _______ _______ _______ _____ _____    ______ ____
ROOT
ATOM      1  C   UNL     1       1.839  -8.509   1.893  0.00  0.00    +0.076 A 
ATOM      2  C   UNL     1       0.925  -9.463   1.455  0.00  0.00    +0.027 A 
ATOM      3  C   UNL     1       1.211 -10.794   1.571  0.00  0.00    +0.016 A 
ATOM      4  C   UNL     1       2.425 -11.203   2.131  0.00  0.00    +0.055 A 
ATOM      5  C   UNL     1       3.346 -10.246   2.571  0.00  0.00    +0.055 A 
ATOM      6  C   UNL     1       3.053  -8.905   2.446  0.00  0.00    +0.047 A 
ATOM      7 CL   UNL     1       4.856 -10.747   3.267  0.00  0.00    -0.083 Cl
ENDROOT
BRANCH   4   8
ATOM      8  C   UNL     1       2.734 -12.639   2.256  0.00  0.00    +0.246 C 
ATOM      9  O   UNL     1       3.790 -12.994   2.743  0.00  0.00    -0.270 OA
ATOM     10  N   UNL     1       1.845 -13.559   1.832  0.00  0.00    -0.309 N 
ATOM     11  H   UNL     1       1.002 -13.277   1.444  0.00  0.00    +0.149 HD
BRANCH  10  12
ATOM     12  C   UNL     1       2.152 -14.986   1.957  0.00  0.00    +0.132 C 
BRANCH  12  13
ATOM     13  C   UNL     1       0.986 -15.809   1.405  0.00  0.00    +0.174 C 
BRANCH  13  14
ATOM     14  O   UNL     1       0.858 -15.571   0.001  0.00  0.00    -0.393 OA
ATOM     15  H   UNL     1       0.137 -16.062  -0.416  0.00  0.00    +0.209 HD
ENDBRANCH  13  14
ENDBRANCH  12  13
ENDBRANCH  10  12
ENDBRANCH   4   8
BRANCH   1  16
ATOM     16  N   UNL     1       1.542  -7.156   1.772  0.00  0.00    -0.098 NA
BRANCH  16  17
ATOM     17  S   UNL     1       0.098  -6.682   1.113  0.00  0.00    +0.085 S 
ATOM     18  O   UNL     1      -0.917  -7.106   2.012  0.00  0.00    -0.149 OA
ATOM     19  O   UNL     1       0.123  -7.080  -0.251  0.00  0.00    -0.149 OA
BRANCH  17  21
ATOM     20  C   UNL     1       0.060  -4.251  -0.021  0.00  0.00    +0.028 C 
ATOM     21  C   UNL     1       0.074  -4.920   1.123  0.00  0.00    +0.159 C 
BRANCH  20  26
ATOM     22  C   UNL     1      -0.018   1.503   0.010  0.00  0.00    +0.044 C 
ATOM     23  C   UNL     1       0.002  -0.004   0.002  0.00  0.00    -0.050 A 
ATOM     24  C   UNL     1       0.006  -0.686  -1.202  0.00  0.00    +0.004 A 
ATOM     25  C   UNL     1       0.024  -2.066  -1.216  0.00  0.00    +0.008 A 
ATOM     26  C   UNL     1       0.040  -2.773  -0.013  0.00  0.00    -0.024 A 
ATOM     27  C   UNL     1       0.037  -2.079   1.197  0.00  0.00    +0.008 A 
ATOM     28  C   UNL     1       0.023  -0.699   1.198  0.00  0.00    +0.004 A 
ENDBRANCH  20  26
ENDBRANCH  17  21
ENDBRANCH  16  17
ENDBRANCH   1  16
TORSDOF 8
