REMARK  Name = ZINC16189152
REMARK  7 active torsions:
REMARK  status: ('A' for Active; 'I' for Inactive)
REMARK    1  A    between atoms: C_1  and  N_52
REMARK    2  A    between atoms: N_4  and  C_7
REMARK    3  A    between atoms: C_10  and  C_27
REMARK    4  A    between atoms: C_12  and  N_13
REMARK    5  A    between atoms: C_14  and  C_16
REMARK    6  A    between atoms: C_27  and  O_29
REMARK    7  A    between atoms: O_29  and  C_30
REMARK                            x       y       z     vdW  Elec       q    Type
REMARK                         _______ _______ _______ _____ _____    ______ ____
ROOT
ATOM      1  C   UNL     1       1.222  -0.674  -0.028  0.00  0.00    +0.051 A 
ATOM      2  C   UNL     1       2.414   0.042  -0.045  0.00  0.00    +0.026 A 
ATOM      3  C   UNL     1       2.394   1.419  -0.040  0.00  0.00    +0.017 A 
ATOM      4  C   UNL     1       1.174   2.101  -0.019  0.00  0.00    +0.061 A 
ATOM      5  C   UNL     1      -0.026   1.383  -0.003  0.00  0.00    +0.040 A 
ATOM      6  C   UNL     1      -0.001   0.001  -0.007  0.00  0.00    +0.056 A 
ENDROOT
BRANCH   1  10
ATOM      7  C   UNL     1       2.522  -6.094  -0.023  0.00  0.00    -0.096 C 
ATOM      8  C   UNL     1       1.861  -4.106  -1.238  0.00  0.00    -0.060 C 
ATOM      9  C   UNL     1       1.924  -2.577  -1.232  0.00  0.00    +0.086 C 
ATOM     10  N   UNL     1       1.248  -2.066  -0.032  0.00  0.00    -0.332 N 
ATOM     11  C   UNL     1       1.882  -2.585   1.188  0.00  0.00    +0.086 C 
ATOM     12  C   UNL     1       1.819  -4.114   1.182  0.00  0.00    -0.060 C 
ATOM     13  N   UNL     1       2.522  -4.615  -0.018  0.00  0.00    +0.380 N 
ATOM     14  H   UNL     1       3.492  -4.281  -0.000  0.00  0.00    -0.082 HD
ENDBRANCH   1  10
BRANCH   6  15
ATOM     15  N   UNL     1      -1.201  -0.722   0.009  0.00  0.00    -0.279 N 
ATOM     16  C   UNL     1      -2.263  -0.249   0.691  0.00  0.00    +0.256 C 
ATOM     17  O   UNL     1      -2.207   0.843   1.224  0.00  0.00    -0.269 OA
ATOM     18  H   UNL     1      -1.268  -1.562  -0.470  0.00  0.00    +0.155 HD
BRANCH  16  19
ATOM     19  C   UNL     1      -3.488  -1.052   0.790  0.00  0.00    +0.094 A 
ATOM     20  C   UNL     1      -4.650  -0.751   1.432  0.00  0.00    +0.068 A 
ATOM     21  C   UNL     1      -5.722  -1.663   1.405  0.00  0.00    +0.008 A 
ATOM     22  C   UNL     1      -7.002  -1.530   2.003  0.00  0.00    +0.012 A 
ATOM     23  C   UNL     1      -7.929  -2.514   1.885  0.00  0.00    +0.021 A 
ATOM     24  C   UNL     1      -7.665  -3.684   1.180  0.00  0.00    +0.042 A 
ATOM     25  C   UNL     1      -6.431  -3.854   0.583  0.00  0.00    +0.035 A 
ATOM     26  C   UNL     1      -5.481  -2.862   0.695  0.00  0.00    +0.023 A 
ATOM     27  S   UNL     1      -3.818  -2.666   0.105  0.00  0.00    -0.082 S 
ATOM     28 CL   UNL     1      -8.877  -4.921   1.052  0.00  0.00    -0.084 Cl
ATOM     29 CL   UNL     1      -4.811   0.756   2.278  0.00  0.00    -0.082 Cl
ENDBRANCH  16  19
ENDBRANCH   6  15
BRANCH   4  30
ATOM     30  C   UNL     1       1.152   3.575  -0.015  0.00  0.00    +0.339 C 
ATOM     31  O   UNL     1       0.091   4.167   0.003  0.00  0.00    -0.245 OA
BRANCH  30  32
ATOM     32  O   UNL     1       2.309   4.265  -0.031  0.00  0.00    -0.464 OA
ATOM     33  C   UNL     1       2.212   5.714  -0.026  0.00  0.00    +0.280 C 
ENDBRANCH  30  32
ENDBRANCH   4  30
TORSDOF 5
