REMARK  Name = ZINC01058240
REMARK  5 active torsions:
REMARK  status: ('A' for Active; 'I' for Inactive)
REMARK    1  A    between atoms: C_2  and  C_10
REMARK    2  A    between atoms: C_3  and  O_9
REMARK    3  A    between atoms: C_5  and  O_8
REMARK    4  A    between atoms: N_11  and  C_12
REMARK    5  A    between atoms: C_13  and  C_21
REMARK                            x       y       z     vdW  Elec       q    Type
REMARK                         _______ _______ _______ _____ _____    ______ ____
ROOT
ATOM      1  C   UNL     1       1.174   3.554   0.009  0.00  0.00    +0.123 C 
ATOM      2  N   UNL     1       2.301   4.219   0.002  0.00  0.00    -0.246 NA
ENDROOT
BRANCH   2   3
ATOM      3  C   UNL     1       2.289   5.569   0.009  0.00  0.00    +0.119 A 
ATOM      4  C   UNL     1       3.366   6.462  -0.002  0.00  0.00    +0.088 A 
ATOM      5  C   UNL     1       3.095   7.842   0.009  0.00  0.00    -0.018 A 
ATOM      6  C   UNL     1       1.791   8.211   0.030  0.00  0.00    -0.004 A 
ATOM      7  S   UNL     1       0.893   6.682   0.027  0.00  0.00    -0.073 S 
ATOM      8  C   UNL     1       1.239   9.602   0.047  0.00  0.00    +0.043 C 
ATOM      9  C   UNL     1       2.376  10.570   0.408  0.00  0.00    +0.005 C 
ATOM     10  C   UNL     1       3.598  10.232  -0.451  0.00  0.00    +0.005 C 
ATOM     11  C   UNL     1       4.197   8.899  -0.003  0.00  0.00    +0.037 C 
BRANCH   4  12
ATOM     12  C   UNL     1       4.715   5.981  -0.024  0.00  0.00    +0.102 C 
ATOM     13  N   UNL     1       5.785   5.600  -0.041  0.00  0.00    -0.191 NA
ENDBRANCH   4  12
ENDBRANCH   2   3
BRANCH   1  15
ATOM     14  C   UNL     1      -0.017   1.372   0.010  0.00  0.00    +0.032 A 
ATOM     15  C   UNL     1       1.188   2.087   0.002  0.00  0.00    +0.036 A 
ATOM     16  C   UNL     1       2.410   1.393  -0.013  0.00  0.00    +0.129 A 
ATOM     17  C   UNL     1       2.413   0.009  -0.021  0.00  0.00    +0.092 A 
ATOM     18  C   UNL     1       1.214  -0.689  -0.013  0.00  0.00    +0.134 A 
ATOM     19  C   UNL     1       0.002  -0.004   0.002  0.00  0.00    +0.060 A 
ATOM     20 BR   UNL     1      -1.625  -0.968   0.012  0.00  0.00    -0.047 Br
BRANCH  18  21
ATOM     21  O   UNL     1       1.223  -2.047  -0.021  0.00  0.00    -0.506 OA
ATOM     22  H   UNL     1       1.234  -2.445   0.860  0.00  0.00    +0.292 HD
ENDBRANCH  18  21
BRANCH  16  23
ATOM     23  O   UNL     1       3.582   2.077  -0.021  0.00  0.00    -0.506 OA
ATOM     24  H   UNL     1       3.930   2.270   0.860  0.00  0.00    +0.292 HD
ENDBRANCH  16  23
ENDBRANCH   1  15
TORSDOF 5
