REMARK  Name = ZINC41108024
REMARK  8 active torsions:
REMARK  status: ('A' for Active; 'I' for Inactive)
REMARK    1  A    between atoms: C_1  and  C_2
REMARK    2  A    between atoms: C_2  and  O_3
REMARK    3  A    between atoms: O_3  and  C_4
REMARK    4  A    between atoms: C_9  and  N_10
REMARK    5  A    between atoms: C_11  and  C_35
REMARK    6  A    between atoms: C_13  and  C_16
REMARK    7  A    between atoms: C_14  and  C_15
REMARK    8  A    between atoms: C_26  and  C_28
REMARK                            x       y       z     vdW  Elec       q    Type
REMARK                         _______ _______ _______ _____ _____    ______ ____
ROOT
ATOM      1  C   UNL     1       1.843   0.520  -6.414  0.00  0.00    +0.026 C 
ATOM      2  C   UNL     1       2.402   1.761  -6.643  0.00  0.00    +0.081 C 
ATOM      3  C   UNL     1       2.032   2.580  -7.830  0.00  0.00    +0.153 C 
ATOM      4  N   UNL     1       0.839   2.573  -8.364  0.00  0.00    -0.283 NA
ATOM      5  N   UNL     1       3.097   3.366  -8.322  0.00  0.00    -0.152 N 
ATOM      6  C   UNL     1       4.114   3.681  -7.445  0.00  0.00    +0.181 C 
ATOM      7  N   UNL     1       4.266   3.257  -6.216  0.00  0.00    -0.152 NA
ATOM      8  C   UNL     1       3.397   2.352  -5.717  0.00  0.00    +0.273 C 
ATOM      9  O   UNL     1       3.431   2.027  -4.541  0.00  0.00    -0.268 OA
ATOM     10  S   UNL     1       5.128   4.761  -8.419  0.00  0.00    -0.033 S 
ATOM     11  C   UNL     1       4.201   4.644  -9.943  0.00  0.00    +0.131 C 
ATOM     12  N   UNL     1       3.208   3.859  -9.605  0.00  0.00    -0.164 NA
ATOM     13  H   UNL     1       0.651   3.127  -9.138  0.00  0.00    +0.188 HD
ENDROOT
BRANCH   1  17
ATOM     14  N   UNL     1       2.462  -1.755  -3.707  0.00  0.00    -0.314 N 
ATOM     15  C   UNL     1       3.732  -1.286  -3.896  0.00  0.00    +0.022 A 
ATOM     16  C   UNL     1       3.729  -0.391  -4.898  0.00  0.00    +0.031 A 
ATOM     17  C   UNL     1       2.339  -0.299  -5.368  0.00  0.00    -0.003 A 
ATOM     18  C   UNL     1       1.614  -1.180  -4.582  0.00  0.00    +0.028 A 
ATOM     19  C   UNL     1       0.134  -1.447  -4.686  0.00  0.00    +0.064 C 
ATOM     20  C   UNL     1       4.945  -1.707  -3.106  0.00  0.00    +0.064 C 
BRANCH  14  26
ATOM     21  C   UNL     1       1.697  -2.293  -1.473  0.00  0.00    +0.144 A 
ATOM     22  C   UNL     1       1.330  -3.236  -0.526  0.00  0.00    +0.048 A 
ATOM     23  C   UNL     1       1.363  -4.581  -0.840  0.00  0.00    +0.004 A 
ATOM     24  C   UNL     1       1.764  -4.991  -2.099  0.00  0.00    +0.002 A 
ATOM     25  C   UNL     1       2.133  -4.058  -3.049  0.00  0.00    +0.030 A 
ATOM     26  C   UNL     1       2.095  -2.705  -2.742  0.00  0.00    +0.088 A 
BRANCH  21  27
ATOM     27  O   UNL     1       1.665  -0.969  -1.165  0.00  0.00    -0.490 OA
BRANCH  27  29
ATOM     28  C   UNL     1       1.274   0.901   0.315  0.00  0.00    +0.048 C 
ATOM     29  C   UNL     1       1.247  -0.621   0.157  0.00  0.00    +0.226 C 
ENDBRANCH  27  29
ENDBRANCH  21  27
ENDBRANCH  14  26
ENDBRANCH   1  17
BRANCH  11  30
ATOM     30  C   UNL     1       4.482   5.275 -11.252  0.00  0.00    +0.027 A 
ATOM     31  C   UNL     1       5.608   6.083 -11.413  0.00  0.00    +0.012 A 
ATOM     32  C   UNL     1       5.865   6.668 -12.635  0.00  0.00    +0.001 A 
ATOM     33  C   UNL     1       5.010   6.455 -13.702  0.00  0.00    +0.001 A 
ATOM     34  C   UNL     1       3.892   5.655 -13.550  0.00  0.00    +0.020 A 
ATOM     35  C   UNL     1       3.626   5.058 -12.333  0.00  0.00    +0.051 A 
ATOM     36 CL   UNL     1       2.226   4.048 -12.146  0.00  0.00    -0.083 Cl
ENDBRANCH  11  30
TORSDOF 5
