REMARK  Name = ZINC02777592
REMARK  4 active torsions:
REMARK  status: ('A' for Active; 'I' for Inactive)
REMARK    1  A    between atoms: C_1  and  N_2
REMARK    2  A    between atoms: C_3  and  C_8
REMARK    3  A    between atoms: N_10  and  C_11
REMARK    4  A    between atoms: C_12  and  C_20
REMARK                            x       y       z     vdW  Elec       q    Type
REMARK                         _______ _______ _______ _____ _____    ______ ____
ROOT
ATOM      1  C   UNL     1      -2.276   7.222  -2.922  0.00  0.00    +0.268 C 
ATOM      2  O   UNL     1      -2.172   6.359  -3.773  0.00  0.00    -0.268 OA
ATOM      3  N   UNL     1      -1.961   6.947  -1.641  0.00  0.00    -0.274 N 
ATOM      4  H   UNL     1      -1.973   7.653  -0.976  0.00  0.00    +0.156 HD
ENDROOT
BRANCH   3   5
ATOM      5  C   UNL     1      -1.620   5.654  -1.273  0.00  0.00    +0.090 A 
ATOM      6  C   UNL     1      -1.269   5.179  -0.017  0.00  0.00    +0.084 A 
ATOM      7  C   UNL     1      -0.953   3.767   0.103  0.00  0.00    -0.018 A 
ATOM      8  C   UNL     1      -1.037   3.059  -1.046  0.00  0.00    -0.004 A 
ATOM      9  S   UNL     1      -1.528   4.240  -2.270  0.00  0.00    -0.077 S 
ATOM     10  C   UNL     1      -0.770   1.596  -1.226  0.00  0.00    +0.043 C 
ATOM     11  C   UNL     1      -0.021   1.085   0.013  0.00  0.00    +0.005 C 
ATOM     12  C   UNL     1      -0.740   1.585   1.269  0.00  0.00    +0.005 C 
ATOM     13  C   UNL     1      -0.552   3.096   1.411  0.00  0.00    +0.037 C 
BRANCH   6  14
ATOM     14  C   UNL     1      -1.220   6.050   1.118  0.00  0.00    +0.102 C 
ATOM     15  N   UNL     1      -1.181   6.741   2.019  0.00  0.00    -0.191 NA
ENDBRANCH   6  14
ENDBRANCH   3   5
BRANCH   1  18
ATOM     16  C   UNL     1      -5.140   8.334  -2.558  0.00  0.00    +0.173 C 
ATOM     17  N   UNL     1      -4.008   9.065  -3.134  0.00  0.00    -0.261 N 
ATOM     18  C   UNL     1      -2.746   8.565  -3.291  0.00  0.00    +0.136 A 
ATOM     19  C   UNL     1      -1.997   9.580  -3.863  0.00  0.00    +0.063 A 
ATOM     20  C   UNL     1      -2.883  10.648  -4.024  0.00  0.00    +0.149 A 
ATOM     21  N   UNL     1      -4.051  10.273  -3.569  0.00  0.00    -0.178 NA
ATOM     22  I   UNL     1       0.033   9.525  -4.380  0.00  0.00    -0.040 I 
ENDBRANCH   1  18
TORSDOF 3
