REMARK  Name = ZINC08893904
REMARK  8 active torsions:
REMARK  status: ('A' for Active; 'I' for Inactive)
REMARK    1  A    between atoms: C_1  and  O_2
REMARK    2  A    between atoms: O_2  and  C_3
REMARK    3  A    between atoms: C_8  and  N_9
REMARK    4  A    between atoms: C_10  and  C_12
REMARK    5  A    between atoms: N_14  and  C_15
REMARK    6  A    between atoms: C_15  and  C_16
REMARK    7  A    between atoms: C_16  and  C_18
REMARK    8  A    between atoms: C_16  and  N_55
REMARK                            x       y       z     vdW  Elec       q    Type
REMARK                         _______ _______ _______ _____ _____    ______ ____
ROOT
ATOM      1  C   UNL     1       4.139  -0.562  -3.559  0.00  0.00    +0.299 C 
ATOM      2  O   UNL     1       4.907   0.245  -4.042  0.00  0.00    -0.265 OA
ATOM      3  N   UNL     1       3.750  -0.438  -2.275  0.00  0.00    -0.309 N 
ATOM      4  H   UNL     1       3.136  -1.083  -1.890  0.00  0.00    +0.149 HD
ENDROOT
BRANCH   1   6
ATOM      5  N   UNL     1       4.016  -1.817  -5.673  0.00  0.00    -0.275 N 
ATOM      6  C   UNL     1       3.626  -1.693  -4.389  0.00  0.00    +0.303 C 
ATOM      7  O   UNL     1       2.858  -2.500  -3.907  0.00  0.00    -0.265 OA
ATOM      8  H   UNL     1       4.567  -1.131  -6.082  0.00  0.00    +0.155 HD
BRANCH   5  14
ATOM      9  C   UNL     1       3.572  -2.865  -7.808  0.00  0.00    +0.141 A 
ATOM     10  C   UNL     1       3.185  -3.976  -8.540  0.00  0.00    +0.049 A 
ATOM     11  C   UNL     1       2.853  -5.151  -7.892  0.00  0.00    +0.024 A 
ATOM     12  C   UNL     1       2.906  -5.222  -6.511  0.00  0.00    +0.043 A 
ATOM     13  C   UNL     1       3.297  -4.120  -5.773  0.00  0.00    +0.047 A 
ATOM     14  C   UNL     1       3.626  -2.936  -6.418  0.00  0.00    +0.077 A 
ATOM     15 CL   UNL     1       2.488  -6.701  -5.703  0.00  0.00    -0.083 Cl
BRANCH   9  17
ATOM     16  C   UNL     1       3.820  -1.710  -9.872  0.00  0.00    +0.277 C 
ATOM     17  O   UNL     1       3.898  -1.709  -8.445  0.00  0.00    -0.493 OA
ENDBRANCH   9  17
ENDBRANCH   5  14
ENDBRANCH   1   6
BRANCH   3  18
ATOM     18  C   UNL     1       4.253   0.671  -1.461  0.00  0.00    +0.094 C 
BRANCH  18  19
ATOM     19  C   UNL     1       3.760   0.512  -0.022  0.00  0.00    -0.020 C 
BRANCH  19  26
ATOM     20  C   UNL     1       5.824   1.651   0.568  0.00  0.00    -0.078 C 
ATOM     21  C   UNL     1       6.536   2.497   1.588  0.00  0.00    -0.019 C 
ATOM     22  C   UNL     1       7.078   1.572   2.699  0.00  0.00    -0.002 C 
ATOM     23  C   UNL     1       6.037   1.172   3.639  0.00  0.00    -0.002 C 
ATOM     24  C   UNL     1       4.903   0.383   2.953  0.00  0.00    -0.019 C 
ATOM     25  C   UNL     1       4.004   1.358   2.244  0.00  0.00    -0.078 C 
ATOM     26  N   UNL     1       4.340   1.588   0.797  0.00  0.00    +0.385 N 
ATOM     27  H   UNL     1       3.929   2.483   0.508  0.00  0.00    -0.081 HD
ENDBRANCH  19  26
BRANCH  19  28
ATOM     28  C   UNL     1       2.260   0.654   0.014  0.00  0.00    -0.052 A 
ATOM     29  C   UNL     1       1.451  -0.466   0.069  0.00  0.00    +0.009 A 
ATOM     30  C   UNL     1       0.105  -0.303   0.099  0.00  0.00    +0.045 A 
ATOM     31  S   UNL     1      -0.053   1.474   0.050  0.00  0.00    -0.105 S 
ATOM     32  C   UNL     1       1.684   1.881  -0.007  0.00  0.00    +0.047 A 
ENDBRANCH  19  28
ENDBRANCH  18  19
ENDBRANCH   3  18
TORSDOF 7
