REMARK  Name = ZINC35684972
REMARK  6 active torsions:
REMARK  status: ('A' for Active; 'I' for Inactive)
REMARK    1  A    between atoms: C_1  and  C_2
REMARK    2  A    between atoms: C_5  and  C_8
REMARK    3  A    between atoms: C_9  and  C_31
REMARK    4  A    between atoms: C_13  and  C_19
REMARK    5  A    between atoms: C_16  and  O_18
REMARK    6  A    between atoms: N_21  and  C_22
REMARK                            x       y       z     vdW  Elec       q    Type
REMARK                         _______ _______ _______ _____ _____    ______ ____
ROOT
ATOM      1  C   UNL     1       0.054  -4.257  -0.021  0.00  0.00    +0.098 A 
ATOM      2  C   UNL     1       0.729  -5.074   0.906  0.00  0.00    +0.021 A 
ATOM      3  C   UNL     1       0.509  -6.363   0.554  0.00  0.00    +0.159 A 
ATOM      4  N   UNL     1      -0.289  -6.358  -0.564  0.00  0.00    -0.233 N 
ATOM      5  N   UNL     1      -0.557  -5.035  -0.896  0.00  0.00    -0.168 NA
ATOM      6  C   UNL     1      -0.731  -7.597  -1.208  0.00  0.00    +0.204 C 
ATOM      7  C   UNL     1      -0.830  -8.684  -0.133  0.00  0.00    +0.131 C 
ATOM      8  C   UNL     1       0.342  -8.636   0.805  0.00  0.00    +0.191 C 
ATOM      9  N   UNL     1       0.944  -7.527   1.123  0.00  0.00    -0.198 NA
ATOM     10  C   UNL     1       1.550  -4.599   2.078  0.00  0.00    +0.050 C 
ENDROOT
BRANCH   1  15
ATOM     11  C   UNL     1      -0.052   1.502   0.011  0.00  0.00    +0.044 C 
ATOM     12  C   UNL     1      -0.024  -0.005   0.003  0.00  0.00    -0.050 A 
ATOM     13  C   UNL     1      -0.024  -0.687  -1.200  0.00  0.00    +0.004 A 
ATOM     14  C   UNL     1       0.001  -2.067  -1.214  0.00  0.00    +0.010 A 
ATOM     15  C   UNL     1       0.027  -2.772  -0.013  0.00  0.00    +0.002 A 
ATOM     16  C   UNL     1       0.027  -2.080   1.196  0.00  0.00    +0.010 A 
ATOM     17  C   UNL     1       0.007  -0.700   1.198  0.00  0.00    +0.004 A 
ENDBRANCH   1  15
BRANCH   6  18
ATOM     18  C   UNL     1       0.269  -8.009  -2.259  0.00  0.00    +0.242 C 
ATOM     19  O   UNL     1       1.257  -7.333  -2.453  0.00  0.00    -0.273 OA
ATOM     20  N   UNL     1       0.064  -9.127  -2.982  0.00  0.00    -0.284 N 
ATOM     21  H   UNL     1      -0.691  -9.703  -2.782  0.00  0.00    +0.155 HD
BRANCH  20  22
ATOM     22  C   UNL     1       0.941  -9.459  -4.022  0.00  0.00    +0.039 A 
ATOM     23  C   UNL     1       0.456 -10.068  -5.172  0.00  0.00    +0.064 A 
ATOM     24  C   UNL     1       1.323 -10.394  -6.199  0.00  0.00    +0.163 A 
ATOM     25  C   UNL     1       2.675 -10.113  -6.082  0.00  0.00    +0.193 A 
ATOM     26  C   UNL     1       3.160  -9.505  -4.934  0.00  0.00    +0.163 A 
ATOM     27  C   UNL     1       2.294  -9.173  -3.908  0.00  0.00    +0.064 A 
ATOM     28  F   UNL     1       4.479  -9.232  -4.820  0.00  0.00    -0.202 F 
ATOM     29  F   UNL     1       3.521 -10.432  -7.085  0.00  0.00    -0.199 F 
ATOM     30  F   UNL     1       0.852 -10.987  -7.318  0.00  0.00    -0.202 F 
ENDBRANCH  20  22
ENDBRANCH   6  18
BRANCH   8  31
ATOM     31  O   UNL     1       0.789  -9.791   1.340  0.00  0.00    -0.495 OA
ATOM     32  H   UNL     1       1.545  -9.683   1.933  0.00  0.00    +0.293 HD
ENDBRANCH   8  31
TORSDOF 4
