REMARK  Name = ZINC58985712
REMARK  5 active torsions:
REMARK  status: ('A' for Active; 'I' for Inactive)
REMARK    1  A    between atoms: C_1  and  C_2
REMARK    2  A    between atoms: C_11  and  O_13
REMARK    3  A    between atoms: O_13  and  C_14
REMARK    4  A    between atoms: C_14  and  C_15
REMARK    5  A    between atoms: N_27  and  C_28
REMARK                            x       y       z     vdW  Elec       q    Type
REMARK                         _______ _______ _______ _____ _____    ______ ____
ROOT
ATOM      1  C   UNL     1       0.108  -4.373   4.632  0.00  0.00    +0.305 C 
ENDROOT
BRANCH   1   2
ATOM      2  C   UNL     1       0.130  -4.991   6.007  0.00  0.00    +0.177 A 
ATOM      3  N   UNL     1       1.191  -5.289   6.707  0.00  0.00    -0.129 NA
ATOM      4  N   UNL     1       0.846  -5.802   7.834  0.00  0.00    -0.110 NA
ATOM      5  C   UNL     1      -0.465  -5.860   7.916  0.00  0.00    +0.239 A 
ATOM      6  N   UNL     1      -0.954  -5.339   6.757  0.00  0.00    -0.261 N 
ATOM      7  C   UNL     1      -2.334  -5.250   6.527  0.00  0.00    +0.071 A 
ATOM      8  C   UNL     1      -3.026  -4.760   5.422  0.00  0.00    +0.034 A 
ATOM      9  C   UNL     1      -4.376  -4.772   5.417  0.00  0.00    +0.048 A 
ATOM     10  S   UNL     1      -4.793  -5.443   6.901  0.00  0.00    -0.090 S 
ATOM     11  C   UNL     1      -3.166  -5.717   7.547  0.00  0.00    +0.101 A 
ATOM     12  C   UNL     1      -2.650  -6.247   8.737  0.00  0.00    +0.269 A 
ATOM     13  O   UNL     1      -3.402  -6.646   9.608  0.00  0.00    -0.266 OA
ATOM     14  N   UNL     1      -1.311  -6.320   8.908  0.00  0.00    -0.279 N 
ATOM     15  C   UNL     1      -0.758  -6.869  10.148  0.00  0.00    +0.155 C 
ENDBRANCH   1   2
BRANCH   1  16
ATOM     16  O   UNL     1       0.088  -2.950   4.751  0.00  0.00    -0.483 OA
BRANCH  16  27
ATOM     17  C   UNL     1      -0.018   1.503   0.010  0.00  0.00    +0.045 C 
ATOM     18  C   UNL     1       0.002  -0.004   0.002  0.00  0.00    -0.033 A 
ATOM     19  C   UNL     1       0.006  -0.695  -1.167  0.00  0.00    +0.096 A 
ATOM     20  C   UNL     1       0.026  -2.105  -1.149  0.00  0.00    +0.337 A 
ATOM     21  O   UNL     1       0.029  -2.712  -2.205  0.00  0.00    -0.245 OA
ATOM     22  O   UNL     1       0.042  -2.795   0.002  0.00  0.00    -0.422 OA
ATOM     23  C   UNL     1       0.038  -2.169   1.199  0.00  0.00    +0.143 A 
ATOM     24  C   UNL     1       0.024  -0.763   1.254  0.00  0.00    +0.022 A 
ATOM     25  C   UNL     1       0.026  -0.110   2.492  0.00  0.00    +0.035 A 
ATOM     26  C   UNL     1       0.047  -0.842   3.645  0.00  0.00    +0.083 A 
ATOM     27  C   UNL     1       0.067  -2.235   3.596  0.00  0.00    +0.143 A 
ATOM     28  C   UNL     1       0.054  -2.897   2.379  0.00  0.00    +0.094 A 
ATOM     29 CL   UNL     1       0.050  -0.033   5.181  0.00  0.00    -0.080 Cl
ENDBRANCH  16  27
ENDBRANCH   1  16
TORSDOF 3
