REMARK  Name = ZINC67013513
REMARK  3 active torsions:
REMARK  status: ('A' for Active; 'I' for Inactive)
REMARK    1  A    between atoms: C_3  and  N_9
REMARK    2  A    between atoms: C_6  and  C_7
REMARK    3  A    between atoms: C_16  and  C_19
REMARK                            x       y       z     vdW  Elec       q    Type
REMARK                         _______ _______ _______ _____ _____    ______ ____
ROOT
ATOM      1  N   UNL     1       3.582   2.133  -0.058  0.00  0.00    -0.269 N 
ATOM      2  C   UNL     1       4.755   1.480   0.065  0.00  0.00    +0.307 C 
ATOM      3  O   UNL     1       4.774   0.265   0.091  0.00  0.00    -0.252 OA
ATOM      4  N   UNL     1       5.906   2.175   0.159  0.00  0.00    -0.280 N 
ATOM      5  C   UNL     1       5.898   3.641   0.285  0.00  0.00    +0.137 C 
ATOM      6  C   UNL     1       6.853   4.221  -0.764  0.00  0.00    +0.179 C 
ATOM      7  O   UNL     1       8.126   3.581  -0.648  0.00  0.00    -0.369 OA
ATOM      8  C   UNL     1       8.099   2.175  -0.903  0.00  0.00    +0.166 C 
ATOM      9  C   UNL     1       7.208   1.489   0.145  0.00  0.00    +0.145 C 
ATOM     10  H   UNL     1       3.574   3.090  -0.219  0.00  0.00    +0.156 HD
ENDROOT
BRANCH   8  11
ATOM     11  C   UNL     1       9.498   1.620  -0.814  0.00  0.00    -0.016 A 
ATOM     12  C   UNL     1      10.355   2.065   0.175  0.00  0.00    +0.009 A 
ATOM     13  C   UNL     1      11.638   1.558   0.259  0.00  0.00    +0.040 A 
ATOM     14  C   UNL     1      12.065   0.602  -0.648  0.00  0.00    +0.142 A 
ATOM     15  C   UNL     1      11.205   0.157  -1.638  0.00  0.00    +0.076 A 
ATOM     16  C   UNL     1       9.920   0.663  -1.717  0.00  0.00    +0.029 A 
ATOM     17 CL   UNL     1      11.738  -1.041  -2.777  0.00  0.00    -0.081 Cl
ATOM     18  F   UNL     1      13.318   0.106  -0.567  0.00  0.00    -0.204 F 
ENDBRANCH   8  11
BRANCH   1  21
ATOM     19  C   UNL     1       0.051   1.390   0.621  0.00  0.00    +0.020 A 
ATOM     20  C   UNL     1       1.240   2.077   0.516  0.00  0.00    +0.024 A 
ATOM     21  C   UNL     1       2.379   1.433   0.047  0.00  0.00    +0.035 A 
ATOM     22  C   UNL     1       2.323   0.092  -0.320  0.00  0.00    +0.024 A 
ATOM     23  C   UNL     1       1.138  -0.602  -0.218  0.00  0.00    +0.020 A 
ATOM     24  C   UNL     1      -0.009   0.042   0.254  0.00  0.00    +0.052 A 
BRANCH  24  25
ATOM     25  C   UNL     1      -1.243  -0.676   0.361  0.00  0.00    +0.099 C 
ATOM     26  N   UNL     1      -2.222  -1.246   0.446  0.00  0.00    -0.191 NA
ENDBRANCH  24  25
ENDBRANCH   1  21
TORSDOF 3
