REMARK  Name = ZINC63941331
REMARK  11 active torsions:
REMARK  status: ('A' for Active; 'I' for Inactive)
REMARK    1  A    between atoms: C_1  and  C_2
REMARK    2  A    between atoms: C_2  and  C_3
REMARK    3  A    between atoms: C_3  and  C_4
REMARK    4  A    between atoms: C_4  and  C_5
REMARK    5  A    between atoms: C_9  and  N_12
REMARK    6  A    between atoms: C_13  and  C_15
REMARK    7  A    between atoms: N_20  and  C_22
REMARK    8  A    between atoms: C_22  and  C_23
REMARK    9  A    between atoms: C_23  and  C_24
REMARK   10  A    between atoms: C_27  and  O_33
REMARK   11  A    between atoms: O_33  and  C_34
REMARK                            x       y       z     vdW  Elec       q    Type
REMARK                         _______ _______ _______ _____ _____    ______ ____
ROOT
ATOM      1  C   UNL     1       0.598  -5.353   8.150  0.00  0.00    +0.101 C 
ATOM      2  C   UNL     1       2.077  -5.097   8.524  0.00  0.00    +0.110 C 
ATOM      3  C   UNL     1       2.343  -6.059   9.661  0.00  0.00    +0.216 C 
ATOM      4  O   UNL     1       3.284  -5.990  10.423  0.00  0.00    -0.276 OA
ATOM      5  N   UNL     1       1.385  -7.001   9.704  0.00  0.00    -0.300 N 
ATOM      6  C   UNL     1       0.396  -6.805   8.637  0.00  0.00    +0.121 C 
ENDROOT
BRANCH   1   8
ATOM      7  N   UNL     1       0.587  -4.074   6.033  0.00  0.00    -0.290 N 
ATOM      8  C   UNL     1       0.393  -5.251   6.660  0.00  0.00    +0.220 C 
ATOM      9  O   UNL     1       0.054  -6.227   6.026  0.00  0.00    -0.275 OA
ATOM     10  H   UNL     1       0.858  -3.292   6.540  0.00  0.00    +0.151 HD
BRANCH   7  14
ATOM     11  C   UNL     1       1.503  -2.548   2.473  0.00  0.00    +0.130 C 
ATOM     12  N   UNL     1       1.580  -4.035   2.479  0.00  0.00    -0.241 NA
ATOM     13  N   UNL     1       1.535  -4.574   3.833  0.00  0.00    -0.227 NA
ATOM     14  C   UNL     1       0.388  -3.974   4.585  0.00  0.00    +0.216 C 
ATOM     15  S   UNL     1       0.527  -2.227   4.003  0.00  0.00    -0.102 S 
ATOM     16  H   UNL     1       0.853  -4.437   1.905  0.00  0.00    +0.142 HD
ATOM     17  H   UNL     1       2.407  -4.414   4.315  0.00  0.00    +0.143 HD
BRANCH  11  18
ATOM     18  C   UNL     1       0.763  -2.041   1.233  0.00  0.00    +0.031 C 
BRANCH  18  19
ATOM     19  C   UNL     1       0.742  -0.511   1.242  0.00  0.00    +0.002 C 
BRANCH  19  21
ATOM     20  C   UNL     1      -0.019   1.526   0.010  0.00  0.00    +0.004 C 
ATOM     21  C   UNL     1       0.002  -0.004   0.002  0.00  0.00    -0.003 C 
ENDBRANCH  19  21
ENDBRANCH  18  19
ENDBRANCH  11  18
ENDBRANCH   7  14
ENDBRANCH   1   8
BRANCH   5  22
ATOM     22  C   UNL     1       1.335  -8.084  10.689  0.00  0.00    +0.112 C 
BRANCH  22  23
ATOM     23  C   UNL     1       0.534  -7.625  11.910  0.00  0.00    +0.052 C 
BRANCH  23  24
ATOM     24  C   UNL     1       0.482  -8.739  12.924  0.00  0.00    -0.040 C 
ATOM     25  C   UNL     1       1.302  -8.912  13.984  0.00  0.00    +0.002 A 
ATOM     26  C   UNL     1       2.446  -8.147  14.493  0.00  0.00    +0.055 A 
ATOM     27  C   UNL     1       3.092  -8.572  15.605  0.00  0.00    +0.121 A 
ATOM     28  C   UNL     1       2.706  -9.732  16.300  0.00  0.00    +0.047 A 
ATOM     29  C   UNL     1       1.667 -10.502  15.909  0.00  0.00    +0.029 A 
ATOM     30  C   UNL     1       0.897 -10.133  14.717  0.00  0.00    +0.043 A 
ATOM     31  N   UNL     1      -0.133 -10.693  14.133  0.00  0.00    -0.380 N 
ATOM     32  C   UNL     1      -0.503  -9.886  12.964  0.00  0.00    +0.144 C 
ATOM     33  H   UNL     1      -0.579 -11.503  14.425  0.00  0.00    +0.160 HD
BRANCH  27  34
ATOM     34  O   UNL     1       4.150  -7.854  16.066  0.00  0.00    -0.495 OA
ATOM     35  C   UNL     1       4.801  -8.339  17.241  0.00  0.00    +0.277 C 
ENDBRANCH  27  34
ENDBRANCH  23  24
ENDBRANCH  22  23
ENDBRANCH   5  22
TORSDOF 9
