REMARK  Name = ZINC54919907
REMARK  9 active torsions:
REMARK  status: ('A' for Active; 'I' for Inactive)
REMARK    1  A    between atoms: C_1  and  N_2
REMARK    2  A    between atoms: N_2  and  C_3
REMARK    3  A    between atoms: N_2  and  C_4
REMARK    4  A    between atoms: C_4  and  C_6
REMARK    5  A    between atoms: C_4  and  C_22
REMARK    6  A    between atoms: C_6  and  N_7
REMARK    7  A    between atoms: N_10  and  N_11
REMARK    8  A    between atoms: C_12  and  C_14
REMARK    9  A    between atoms: C_14  and  C_15
REMARK                            x       y       z     vdW  Elec       q    Type
REMARK                         _______ _______ _______ _____ _____    ______ ____
ROOT
ATOM      1  N   UNL     1      -1.702   1.302  -1.405  0.00  0.00    -0.299 N 
ATOM      2  C   UNL     1      -2.076   1.923  -2.541  0.00  0.00    +0.316 C 
ATOM      3  O   UNL     1      -2.647   1.300  -3.415  0.00  0.00    -0.251 OA
ATOM      4  N   UNL     1      -1.817   3.235  -2.708  0.00  0.00    -0.218 N 
ATOM      5  H   UNL     1      -1.246   1.799  -0.708  0.00  0.00    +0.150 HD
ATOM      6  H   UNL     1      -2.087   3.683  -3.525  0.00  0.00    +0.174 HD
ENDROOT
BRANCH   4   7
ATOM      7  N   UNL     1      -1.160   3.953  -1.700  0.00  0.00    -0.233 N 
ATOM      8  C   UNL     1      -0.901   5.266  -1.867  0.00  0.00    +0.233 C 
ATOM      9  O   UNL     1      -1.238   5.825  -2.889  0.00  0.00    -0.274 OA
ATOM     10  H   UNL     1      -0.890   3.506  -0.883  0.00  0.00    +0.173 HD
BRANCH   8  11
ATOM     11  C   UNL     1      -0.194   6.038  -0.783  0.00  0.00    +0.132 C 
BRANCH  11  12
ATOM     12  C   UNL     1      -0.028   7.472  -1.215  0.00  0.00    -0.038 A 
ATOM     13  C   UNL     1       1.101   7.857  -1.914  0.00  0.00    +0.007 A 
ATOM     14  C   UNL     1       1.253   9.172  -2.311  0.00  0.00    +0.038 A 
ATOM     15  C   UNL     1       0.275  10.104  -2.008  0.00  0.00    +0.123 A 
ATOM     16  C   UNL     1      -0.855   9.717  -1.308  0.00  0.00    +0.038 A 
ATOM     17  C   UNL     1      -1.008   8.400  -0.917  0.00  0.00    +0.007 A 
ATOM     18  F   UNL     1       0.423  11.390  -2.395  0.00  0.00    -0.205 F 
ENDBRANCH  11  12
ENDBRANCH   8  11
ENDBRANCH   4   7
BRANCH   1  19
ATOM     19  C   UNL     1      -1.983  -0.125  -1.224  0.00  0.00    +0.098 C 
BRANCH  19  20
ATOM     20  C   UNL     1      -1.371  -0.601   0.095  0.00  0.00    +0.016 C 
BRANCH  20  21
ATOM     21  C   UNL     1       0.130  -0.488   0.023  0.00  0.00    +0.093 A 
ATOM     22  C   UNL     1       0.983  -1.497  -0.231  0.00  0.00    +0.043 A 
ATOM     23  C   UNL     1       2.285  -0.948  -0.204  0.00  0.00    +0.041 A 
ATOM     24  C   UNL     1       2.150   0.363   0.065  0.00  0.00    +0.195 A 
ATOM     25  O   UNL     1       0.842   0.637   0.196  0.00  0.00    -0.469 OA
ENDBRANCH  20  21
BRANCH  20  27
ATOM     26  C   UNL     1      -3.338   0.143   1.249  0.00  0.00    -0.096 C 
ATOM     27  N   UNL     1      -1.873   0.232   1.196  0.00  0.00    +0.384 N 
ATOM     28  C   UNL     1      -1.308  -0.244   2.466  0.00  0.00    -0.096 C 
ATOM     29  H   UNL     1      -1.599   1.191   1.044  0.00  0.00    -0.082 HD
ENDBRANCH  20  27
ENDBRANCH  19  20
ENDBRANCH   1  19
TORSDOF 7
