REMARK  Name = ZINC50709046
REMARK  6 active torsions:
REMARK  status: ('A' for Active; 'I' for Inactive)
REMARK    1  A    between atoms: C_1  and  C_2
REMARK    2  A    between atoms: C_3  and  C_8
REMARK    3  A    between atoms: C_5  and  C_7
REMARK    4  A    between atoms: C_8  and  C_10
REMARK    5  A    between atoms: C_8  and  N_11
REMARK    6  A    between atoms: C_12  and  C_14
REMARK                            x       y       z     vdW  Elec       q    Type
REMARK                         _______ _______ _______ _____ _____    ______ ____
ROOT
ATOM      1  N   UNL     1       0.975  -0.964  -3.369  0.00  0.00    -0.304 N 
ATOM      2  C   UNL     1       1.510  -0.416  -4.478  0.00  0.00    +0.246 C 
ATOM      3  O   UNL     1       1.177   0.701  -4.826  0.00  0.00    -0.270 OA
ATOM      4  H   UNL     1       1.240  -1.855  -3.092  0.00  0.00    +0.150 HD
ENDROOT
BRANCH   2   5
ATOM      5  C   UNL     1       2.501  -1.171  -5.270  0.00  0.00    +0.056 A 
ATOM      6  C   UNL     1       3.069  -0.607  -6.423  0.00  0.00    +0.038 A 
ATOM      7  C   UNL     1       3.984  -1.344  -7.126  0.00  0.00    +0.081 A 
ATOM      8  C   UNL     1       4.322  -2.622  -6.681  0.00  0.00    +0.135 A 
ATOM      9  N   UNL     1       3.770  -3.130  -5.588  0.00  0.00    -0.238 NA
ATOM     10  C   UNL     1       2.890  -2.453  -4.879  0.00  0.00    +0.126 A 
ATOM     11  N   UNL     1       5.247  -3.370  -7.390  0.00  0.00    -0.342 N 
ATOM     12 CL   UNL     1       4.716  -0.694  -8.560  0.00  0.00    -0.080 Cl
ATOM     13  H   UNL     1       5.655  -3.005  -8.190  0.00  0.00    +0.144 HD
ATOM     14  H   UNL     1       5.487  -4.259  -7.085  0.00  0.00    +0.144 HD
ENDBRANCH   2   5
BRANCH   1  15
ATOM     15  C   UNL     1      -0.008  -0.215  -2.583  0.00  0.00    +0.109 C 
ATOM     16  C   UNL     1      -1.402  -0.420  -3.180  0.00  0.00    +0.033 C 
BRANCH  15  19
ATOM     17  C   UNL     1      -0.018   1.503   0.010  0.00  0.00    +0.066 C 
ATOM     18  C   UNL     1       0.002  -0.004   0.002  0.00  0.00    +0.051 A 
ATOM     19  C   UNL     1       0.006  -0.708  -1.159  0.00  0.00    +0.032 A 
ATOM     20  S   UNL     1       0.032  -2.379  -0.531  0.00  0.00    -0.075 S 
ATOM     21  C   UNL     1       0.036  -2.009   1.111  0.00  0.00    +0.076 A 
ATOM     22  N   UNL     1       0.023  -0.699   1.122  0.00  0.00    -0.249 NA
ATOM     23  C   UNL     1       0.055  -2.955   2.284  0.00  0.00    +0.073 C 
ENDBRANCH  15  19
ENDBRANCH   1  15
TORSDOF 3
