REMARK  Name = ZINC39686919
REMARK  7 active torsions:
REMARK  status: ('A' for Active; 'I' for Inactive)
REMARK    1  A    between atoms: C_1  and  C_2
REMARK    2  A    between atoms: C_2  and  C_4
REMARK    3  A    between atoms: C_2  and  N_12
REMARK    4  A    between atoms: C_4  and  C_5
REMARK    5  A    between atoms: C_13  and  C_15
REMARK    6  A    between atoms: C_26  and  C_28
REMARK    7  A    between atoms: C_31  and  C_35
REMARK                            x       y       z     vdW  Elec       q    Type
REMARK                         _______ _______ _______ _____ _____    ______ ____
ROOT
ATOM      1  C   UNL     1      -3.791  -1.988   1.239  0.00  0.00    +0.100 C 
ATOM      2  C   UNL     1      -4.476  -0.793   0.539  0.00  0.00    +0.121 C 
ATOM      3  N   UNL     1      -5.685  -0.525   1.354  0.00  0.00    -0.296 N 
ATOM      4  C   UNL     1      -5.236  -0.718   2.754  0.00  0.00    +0.115 C 
ATOM      5  C   UNL     1      -4.292  -1.935   2.692  0.00  0.00    -0.004 C 
ATOM      6  C   UNL     1      -3.119  -1.742   3.649  0.00  0.00    -0.010 C 
ATOM      7  C   UNL     1      -3.635  -1.751   5.090  0.00  0.00    -0.082 C 
ATOM      8  N   UNL     1      -4.309  -3.026   5.363  0.00  0.00    +0.379 N 
ATOM      9  C   UNL     1      -5.490  -3.162   4.502  0.00  0.00    -0.082 C 
ATOM     10  C   UNL     1      -5.053  -3.212   3.036  0.00  0.00    -0.010 C 
ATOM     11  C   UNL     1      -6.914  -0.183   0.920  0.00  0.00    +0.249 C 
ATOM     12  O   UNL     1      -7.789   0.085   1.721  0.00  0.00    -0.270 OA
ATOM     13  H   UNL     1      -3.672  -3.787   5.180  0.00  0.00    -0.086 HD
ATOM     14  H   UNL     1      -4.594  -3.054   6.330  0.00  0.00    -0.086 HD
ENDROOT
BRANCH  11  15
ATOM     15  C   UNL     1      -7.199  -0.133  -0.528  0.00  0.00    +0.072 A 
ATOM     16  C   UNL     1      -6.245   0.373  -1.414  0.00  0.00    +0.016 A 
ATOM     17  C   UNL     1      -6.516   0.417  -2.764  0.00  0.00    +0.013 A 
ATOM     18  C   UNL     1      -7.732  -0.039  -3.246  0.00  0.00    +0.058 A 
ATOM     19  C   UNL     1      -8.683  -0.541  -2.378  0.00  0.00    +0.051 A 
ATOM     20  C   UNL     1      -8.422  -0.597  -1.020  0.00  0.00    +0.136 A 
ATOM     21  F   UNL     1      -9.350  -1.093  -0.172  0.00  0.00    -0.205 F 
BRANCH  18  22
ATOM     22  C   UNL     1      -8.020   0.013  -4.724  0.00  0.00    +0.418 C 
ATOM     23  F   UNL     1      -7.600  -1.179  -5.324  0.00  0.00    -0.166 F 
ATOM     24  F   UNL     1      -9.394   0.178  -4.926  0.00  0.00    -0.166 F 
ATOM     25  F   UNL     1      -7.333   1.090  -5.295  0.00  0.00    -0.166 F 
ENDBRANCH  18  22
ENDBRANCH  11  15
BRANCH   1  27
ATOM     26  N   UNL     1      -1.505  -2.925   1.114  0.00  0.00    -0.312 N 
ATOM     27  C   UNL     1      -2.293  -1.834   1.194  0.00  0.00    +0.218 C 
ATOM     28  O   UNL     1      -1.796  -0.729   1.231  0.00  0.00    -0.275 OA
ATOM     29  H   UNL     1      -1.903  -3.809   1.085  0.00  0.00    +0.149 HD
BRANCH  26  31
ATOM     30  C   UNL     1       0.396  -2.528  -0.372  0.00  0.00    +0.028 C 
ATOM     31  C   UNL     1      -0.049  -2.775   1.071  0.00  0.00    +0.074 C 
BRANCH  31  32
ATOM     32  C   UNL     1       0.611  -4.051   1.596  0.00  0.00    +0.060 C 
BRANCH  32  33
ATOM     33  C   UNL     1       0.272  -4.229   3.054  0.00  0.00    -0.010 A 
ATOM     34  C   UNL     1       1.139  -3.768   4.026  0.00  0.00    +0.006 A 
ATOM     35  C   UNL     1       0.828  -3.931   5.363  0.00  0.00    +0.000 A 
ATOM     36  C   UNL     1      -0.350  -4.554   5.729  0.00  0.00    +0.003 A 
ATOM     37  C   UNL     1      -1.219  -5.016   4.758  0.00  0.00    +0.038 A 
ATOM     38  C   UNL     1      -0.911  -4.849   3.419  0.00  0.00    +0.127 A 
ATOM     39  F   UNL     1      -1.761  -5.295   2.469  0.00  0.00    -0.205 F 
ENDBRANCH  32  33
ENDBRANCH  31  32
ENDBRANCH  26  31
ENDBRANCH   1  27
TORSDOF 6
