REMARK  Name = ZINC59500930
REMARK  3 active torsions:
REMARK  status: ('A' for Active; 'I' for Inactive)
REMARK    1  A    between atoms: C_5  and  N_7
REMARK    2  A    between atoms: N_16  and  C_19
REMARK    3  A    between atoms: C_22  and  N_25
REMARK                            x       y       z     vdW  Elec       q    Type
REMARK                         _______ _______ _______ _____ _____    ______ ____
ROOT
ATOM      1  N   UNL     1       1.236  -2.082  -0.022  0.00  0.00    -0.206 N 
ATOM      2  C   UNL     1       1.254  -2.847   1.109  0.00  0.00    +0.255 C 
ATOM      3  O   UNL     1       1.505  -2.474   2.235  0.00  0.00    -0.272 OA
ATOM      4  C   UNL     1       0.903  -4.238   0.681  0.00  0.00    +0.247 C 
ATOM      5  C   UNL     1       1.562  -4.171  -0.752  0.00  0.00    +0.221 C 
ATOM      6  C   UNL     1       1.237  -2.837  -1.168  0.00  0.00    +0.251 C 
ATOM      7  O   UNL     1       1.011  -2.455  -2.296  0.00  0.00    -0.273 OA
ATOM      8  N   UNL     1       1.580  -5.534  -1.061  0.00  0.00    -0.192 N 
ATOM      9  N   UNL     1       1.962  -6.113   0.193  0.00  0.00    -0.078 NA
ATOM     10  N   UNL     1       1.618  -5.396   1.186  0.00  0.00    -0.156 NA
ENDROOT
BRANCH   1  15
ATOM     11  C   UNL     1      -0.017   1.377   0.010  0.00  0.00    +0.002 A 
ATOM     12  C   UNL     1       1.171   2.086   0.002  0.00  0.00    +0.001 A 
ATOM     13  C   UNL     1       2.380   1.416  -0.013  0.00  0.00    +0.016 A 
ATOM     14  C   UNL     1       2.405   0.034  -0.021  0.00  0.00    +0.035 A 
ATOM     15  C   UNL     1       1.214  -0.680  -0.014  0.00  0.00    +0.057 A 
ATOM     16  C   UNL     1       0.002  -0.004   0.002  0.00  0.00    +0.025 A 
ATOM     17  I   UNL     1       4.237  -0.981  -0.046  0.00  0.00    -0.042 I 
ENDBRANCH   1  15
BRANCH   8  18
ATOM     18  C   UNL     1       1.298  -6.166  -2.275  0.00  0.00    +0.054 A 
ATOM     19  C   UNL     1       0.947  -5.412  -3.388  0.00  0.00    +0.027 A 
ATOM     20  C   UNL     1       0.670  -6.040  -4.586  0.00  0.00    +0.034 A 
ATOM     21  C   UNL     1       0.741  -7.418  -4.679  0.00  0.00    +0.126 A 
ATOM     22  C   UNL     1       1.091  -8.172  -3.573  0.00  0.00    +0.034 A 
ATOM     23  C   UNL     1       1.375  -7.550  -2.373  0.00  0.00    +0.027 A 
BRANCH  21  24
ATOM     24  N   UNL     1       0.443  -8.088  -5.965  0.00  0.00    +0.056 N 
ATOM     25  O   UNL     1       0.137  -7.431  -6.932  0.00  0.00    -0.126 OA
ATOM     26  O   UNL     1       0.505  -9.293  -6.048  0.00  0.00    -0.126 OA
ENDBRANCH  21  24
ENDBRANCH   8  18
TORSDOF 3
