REMARK  Name = ZINC58227486
REMARK  8 active torsions:
REMARK  status: ('A' for Active; 'I' for Inactive)
REMARK    1  A    between atoms: C_1  and  C_2
REMARK    2  A    between atoms: C_5  and  C_8
REMARK    3  A    between atoms: C_10  and  C_13
REMARK    4  A    between atoms: C_13  and  C_14
REMARK    5  A    between atoms: C_14  and  C_15
REMARK    6  A    between atoms: N_17  and  C_18
REMARK    7  A    between atoms: C_23  and  C_24
REMARK    8  A    between atoms: N_26  and  C_27
REMARK                            x       y       z     vdW  Elec       q    Type
REMARK                         _______ _______ _______ _____ _____    ______ ____
ROOT
ATOM      1  C   UNL     1      -1.320  -9.082   2.894  0.00  0.00    +0.218 C 
ATOM      2  O   UNL     1      -0.264  -9.536   3.280  0.00  0.00    -0.275 OA
ATOM      3  N   UNL     1      -2.480  -9.629   3.309  0.00  0.00    -0.285 N 
ATOM      4  H   UNL     1      -3.324  -9.218   3.067  0.00  0.00    +0.155 HD
ENDROOT
BRANCH   3   5
ATOM      5  C   UNL     1      -2.466 -10.784   4.088  0.00  0.00    +0.046 A 
ATOM      6  C   UNL     1      -1.391 -11.660   4.018  0.00  0.00    +0.025 A 
ATOM      7  C   UNL     1      -1.379 -12.804   4.790  0.00  0.00    +0.022 A 
ATOM      8  C   UNL     1      -2.437 -13.088   5.640  0.00  0.00    +0.042 A 
ATOM      9  C   UNL     1      -3.513 -12.229   5.722  0.00  0.00    +0.035 A 
ATOM     10  C   UNL     1      -3.536 -11.065   4.951  0.00  0.00    +0.059 A 
ATOM     11 CL   UNL     1      -2.407 -14.531   6.604  0.00  0.00    -0.084 Cl
BRANCH  10  12
ATOM     12  C   UNL     1      -4.681 -10.139   5.039  0.00  0.00    +0.246 C 
ATOM     13  O   UNL     1      -4.743  -9.177   4.298  0.00  0.00    -0.270 OA
ATOM     14  N   UNL     1      -5.658 -10.360   5.941  0.00  0.00    -0.314 N 
ATOM     15  C   UNL     1      -6.795  -9.440   6.028  0.00  0.00    +0.128 C 
ATOM     16  H   UNL     1      -5.608 -11.127   6.532  0.00  0.00    +0.149 HD
ENDBRANCH  10  12
ENDBRANCH   3   5
BRANCH   1  17
ATOM     17  C   UNL     1      -1.336  -7.907   1.950  0.00  0.00    +0.105 C 
BRANCH  17  18
ATOM     18  C   UNL     1       0.101  -7.484   1.639  0.00  0.00    +0.108 C 
BRANCH  18  21
ATOM     19  C   UNL     1       0.053  -4.273  -0.052  0.00  0.00    +0.202 A 
ATOM     20  N   UNL     1       0.060  -5.054   1.043  0.00  0.00    -0.191 NA
ATOM     21  C   UNL     1       0.085  -6.309   0.695  0.00  0.00    +0.228 A 
ATOM     22  O   UNL     1       0.094  -6.379  -0.642  0.00  0.00    -0.338 OA
ATOM     23  N   UNL     1       0.068  -5.040  -1.114  0.00  0.00    -0.056 NA
BRANCH  19  28
ATOM     24  C   UNL     1      -0.055   1.486  -0.071  0.00  0.00    +0.044 C 
ATOM     25  C   UNL     1      -0.026  -0.021  -0.066  0.00  0.00    -0.050 A 
ATOM     26  C   UNL     1      -0.011  -0.714  -1.263  0.00  0.00    +0.004 A 
ATOM     27  C   UNL     1       0.015  -2.094  -1.264  0.00  0.00    +0.012 A 
ATOM     28  C   UNL     1       0.025  -2.789  -0.057  0.00  0.00    +0.022 A 
ATOM     29  C   UNL     1       0.010  -2.086   1.146  0.00  0.00    +0.012 A 
ATOM     30  C   UNL     1      -0.010  -0.706   1.136  0.00  0.00    +0.004 A 
ENDBRANCH  19  28
ENDBRANCH  18  21
ENDBRANCH  17  18
ENDBRANCH   1  17
TORSDOF 6
