REMARK  Name = ZINC32635270
REMARK  7 active torsions:
REMARK  status: ('A' for Active; 'I' for Inactive)
REMARK    1  A    between atoms: C_1  and  C_2
REMARK    2  A    between atoms: C_6  and  C_26
REMARK    3  A    between atoms: C_7  and  N_8
REMARK    4  A    between atoms: N_20  and  C_21
REMARK    5  A    between atoms: C_21  and  C_23
REMARK    6  A    between atoms: C_23  and  C_24
REMARK    7  A    between atoms: C_23  and  C_25
REMARK                            x       y       z     vdW  Elec       q    Type
REMARK                         _______ _______ _______ _____ _____    ______ ____
ROOT
ATOM      1  N   UNL     1       2.321   0.946  -0.017  0.00  0.00    -0.275 N 
ATOM      2  C   UNL     1       1.492  -0.243  -0.022  0.00  0.00    +0.116 C 
ATOM      3  C   UNL     1       1.902  -1.153   1.160  0.00  0.00    +0.190 C 
ATOM      4  S   UNL     1       0.290  -1.916   1.627  0.00  0.00    -0.028 S 
ATOM      5  O   UNL     1       0.240  -2.085   3.038  0.00  0.00    -0.174 OA
ATOM      6  O   UNL     1       0.027  -3.022   0.774  0.00  0.00    -0.174 OA
ATOM      7  C   UNL     1      -0.791  -0.500   1.143  0.00  0.00    +0.182 C 
ATOM      8  C   UNL     1      -0.009   0.068  -0.058  0.00  0.00    +0.097 C 
ATOM      9  S   UNL     1      -0.006   1.896   0.041  0.00  0.00    -0.086 S 
ATOM     10  C   UNL     1       1.753   2.179   0.050  0.00  0.00    +0.154 C 
ATOM     11  N   UNL     1       2.378   3.349   0.107  0.00  0.00    -0.159 NA
ENDROOT
BRANCH   1  18
ATOM     12  C   UNL     1       3.793   1.077   2.415  0.00  0.00    +0.046 C 
ATOM     13  C   UNL     1       4.470   0.882   1.083  0.00  0.00    -0.028 A 
ATOM     14  C   UNL     1       5.844   0.757   1.018  0.00  0.00    +0.020 A 
ATOM     15  C   UNL     1       6.467   0.583  -0.205  0.00  0.00    +0.018 A 
ATOM     16  C   UNL     1       5.716   0.530  -1.365  0.00  0.00    +0.020 A 
ATOM     17  C   UNL     1       4.341   0.650  -1.306  0.00  0.00    -0.028 A 
ATOM     18  C   UNL     1       3.713   0.824  -0.080  0.00  0.00    +0.042 A 
ATOM     19  C   UNL     1       3.524   0.592  -2.571  0.00  0.00    +0.046 C 
ATOM     20 BR   UNL     1       8.349   0.419  -0.290  0.00  0.00    -0.050 Br
ENDBRANCH   1  18
BRANCH  11  21
ATOM     21  C   UNL     1       1.675   4.477   0.168  0.00  0.00    +0.241 C 
ATOM     22  O   UNL     1       0.460   4.436   0.171  0.00  0.00    -0.273 OA
BRANCH  21  23
ATOM     23  C   UNL     1       2.384   5.804   0.234  0.00  0.00    +0.071 C 
ATOM     24  C   UNL     1       1.352   6.932   0.296  0.00  0.00    +0.017 C 
ATOM     25  C   UNL     1       3.265   5.851   1.484  0.00  0.00    +0.017 C 
ENDBRANCH  21  23
ENDBRANCH  11  21
TORSDOF 3
