REMARK  Name = ZINC29430957
REMARK  17 active torsions:
REMARK  status: ('A' for Active; 'I' for Inactive)
REMARK    1  A    between atoms: C_1  and  C_2
REMARK    2  A    between atoms: C_2  and  C_3
REMARK    3  A    between atoms: C_3  and  C_4
REMARK    4  A    between atoms: C_4  and  C_5
REMARK    5  A    between atoms: C_5  and  C_7
REMARK    6  A    between atoms: C_5  and  C_9
REMARK    7  A    between atoms: C_7  and  C_8
REMARK    8  A    between atoms: C_9  and  N_10
REMARK    9  A    between atoms: C_11  and  C_13
REMARK   10  A    between atoms: C_13  and  C_15
REMARK   11  A    between atoms: C_13  and  N_19
REMARK   12  A    between atoms: C_15  and  C_16
REMARK   13  A    between atoms: C_16  and  S_17
REMARK   14  A    between atoms: S_17  and  C_18
REMARK   15  A    between atoms: N_19  and  S_20
REMARK   16  A    between atoms: S_20  and  C_23
REMARK   17  A    between atoms: C_26  and  C_29
REMARK                            x       y       z     vdW  Elec       q    Type
REMARK                         _______ _______ _______ _____ _____    ______ ____
ROOT
ATOM      1  C   UNL     1       3.366   2.705   3.109  0.00  0.00    +0.163 C 
ENDROOT
BRANCH   1   3
ATOM      2  N   UNL     1       1.138   1.909   2.388  0.00  0.00    -0.314 N 
ATOM      3  C   UNL     1       2.175   1.791   3.240  0.00  0.00    +0.232 C 
ATOM      4  O   UNL     1       2.150   0.950   4.113  0.00  0.00    -0.274 OA
ATOM      5  H   UNL     1       1.161   2.672   1.596  0.00  0.00    +0.149 HD
BRANCH   2   6
ATOM      6  C   UNL     1      -0.020   1.020   2.516  0.00  0.00    +0.107 C 
BRANCH   6   7
ATOM      7  C   UNL     1      -1.046   1.361   1.434  0.00  0.00    +0.006 C 
BRANCH   7   8
ATOM      8  C   UNL     1      -0.455   1.058   0.056  0.00  0.00    +0.002 C 
ATOM      9  C   UNL     1      -0.154  -0.438  -0.054  0.00  0.00    +0.004 C 
ENDBRANCH   7   8
BRANCH   7  10
ATOM     10  C   UNL     1      -2.307   0.519   1.643  0.00  0.00    +0.005 C 
BRANCH  10  11
ATOM     11  C   UNL     1      -3.379   0.947   0.639  0.00  0.00    +0.000 C 
BRANCH  11  13
ATOM     12  C   UNL     1      -5.752   0.625  -0.073  0.00  0.00    +0.004 C 
ATOM     13  C   UNL     1      -4.680   0.197   0.931  0.00  0.00    -0.003 C 
ENDBRANCH  11  13
ENDBRANCH  10  11
ENDBRANCH   7  10
ENDBRANCH   6   7
ENDBRANCH   2   6
ENDBRANCH   1   3
BRANCH   1  14
ATOM     14  N   UNL     1       4.349   2.379   4.144  0.00  0.00    -0.178 NA
ATOM     15  H   UNL     1       4.371   1.371   4.584  0.00  0.00    +0.149 HD
BRANCH  14  16
ATOM     16  S   UNL     1       5.258   3.581   4.831  0.00  0.00    +0.059 S 
ATOM     17  O   UNL     1       6.058   2.964   5.830  0.00  0.00    -0.153 OA
ATOM     18  O   UNL     1       5.819   4.328   3.760  0.00  0.00    -0.153 OA
BRANCH  16  19
ATOM     19  C   UNL     1       4.147   4.660   5.671  0.00  0.00    +0.105 A 
ATOM     20  C   UNL     1       3.600   5.742   5.006  0.00  0.00    +0.029 A 
ATOM     21  C   UNL     1       2.725   6.586   5.664  0.00  0.00    +0.005 A 
ATOM     22  C   UNL     1       2.404   6.354   6.988  0.00  0.00    -0.050 A 
ATOM     23  C   UNL     1       2.954   5.274   7.654  0.00  0.00    +0.005 A 
ATOM     24  C   UNL     1       3.826   4.428   6.995  0.00  0.00    +0.029 A 
ATOM     25  C   UNL     1       1.453   7.277   7.706  0.00  0.00    +0.044 C 
ENDBRANCH  16  19
ENDBRANCH  14  16
ENDBRANCH   1  14
BRANCH   1  26
ATOM     26  C   UNL     1       4.000   2.522   1.728  0.00  0.00    +0.040 C 
BRANCH  26  27
ATOM     27  C   UNL     1       4.449   1.069   1.563  0.00  0.00    +0.071 C 
BRANCH  27  28
ATOM     28  S   UNL     1       5.332   0.884  -0.012  0.00  0.00    -0.164 S 
ATOM     29  C   UNL     1       5.792  -0.870  -0.054  0.00  0.00    +0.084 C 
ENDBRANCH  27  28
ENDBRANCH  26  27
ENDBRANCH   1  26
TORSDOF 13
