REMARK  Name = ZINC64600500
REMARK  3 active torsions:
REMARK  status: ('A' for Active; 'I' for Inactive)
REMARK    1  A    between atoms: C_6  and  C_10
REMARK    2  A    between atoms: N_15  and  S_16
REMARK    3  A    between atoms: S_16  and  C_19
REMARK                            x       y       z     vdW  Elec       q    Type
REMARK                         _______ _______ _______ _____ _____    ______ ____
ROOT
ATOM      1  C   UNL     1       3.542  -2.787  -1.302  0.00  0.00    +0.122 C 
ATOM      2  C   UNL     1       2.972  -2.084  -2.553  0.00  0.00    +0.026 C 
ATOM      3  C   UNL     1       2.631  -3.271  -3.492  0.00  0.00    +0.019 C 
ATOM      4  C   UNL     1       2.158  -4.344  -2.479  0.00  0.00    +0.110 C 
ATOM      5  N   UNL     1       3.035  -4.167  -1.304  0.00  0.00    -0.170 NA
ENDROOT
BRANCH   1  11
ATOM      6  C   UNL     1      -0.016   1.344   0.009  0.00  0.00    +0.002 A 
ATOM      7  C   UNL     1       1.158   2.118   0.002  0.00  0.00    +0.002 A 
ATOM      8  C   UNL     1       2.389   1.570  -0.013  0.00  0.00    +0.027 A 
ATOM      9  C   UNL     1       2.533   0.108  -0.022  0.00  0.00    +0.060 A 
ATOM     10  N   UNL     1       3.569  -0.680  -0.036  0.00  0.00    -0.362 N 
ATOM     11  C   UNL     1       3.071  -2.062  -0.039  0.00  0.00    +0.193 C 
ATOM     12  N   UNL     1       1.606  -1.974  -0.024  0.00  0.00    -0.362 N 
ATOM     13  C   UNL     1       1.290  -0.712  -0.014  0.00  0.00    +0.060 A 
ATOM     14  C   UNL     1       0.002  -0.004   0.002  0.00  0.00    +0.027 A 
ATOM     15  H   UNL     1       4.499  -0.405  -0.045  0.00  0.00    +0.162 HD
ATOM     16  H   UNL     1       0.987  -2.721  -0.022  0.00  0.00    +0.162 HD
ENDBRANCH   1  11
BRANCH   5  17
ATOM     17  S   UNL     1       3.390  -5.327  -0.176  0.00  0.00    +0.061 S 
ATOM     18  O   UNL     1       3.192  -6.583  -0.809  0.00  0.00    -0.153 OA
ATOM     19  O   UNL     1       4.630  -4.956   0.411  0.00  0.00    -0.153 OA
BRANCH  17  20
ATOM     20  C   UNL     1       2.176  -5.206   1.095  0.00  0.00    +0.106 A 
ATOM     21  C   UNL     1       2.387  -4.373   2.179  0.00  0.00    +0.030 A 
ATOM     22  C   UNL     1       1.440  -4.274   3.177  0.00  0.00    +0.025 A 
ATOM     23  C   UNL     1       0.263  -5.015   3.100  0.00  0.00    +0.037 A 
ATOM     24  C   UNL     1       0.062  -5.848   2.007  0.00  0.00    -0.016 A 
ATOM     25  C   UNL     1       1.006  -5.941   1.009  0.00  0.00    +0.034 A 
ATOM     26  C   UNL     1      -1.284  -6.503   2.212  0.00  0.00    +0.133 C 
ATOM     27  C   UNL     1      -1.775  -5.931   3.525  0.00  0.00    +0.222 C 
ATOM     28  O   UNL     1      -2.826  -6.187   4.074  0.00  0.00    -0.275 OA
ATOM     29  N   UNL     1      -0.828  -5.087   3.967  0.00  0.00    -0.285 N 
ATOM     30  H   UNL     1      -0.895  -4.585   4.795  0.00  0.00    +0.155 HD
ENDBRANCH  17  20
ENDBRANCH   5  17
TORSDOF 3
