REMARK  Name = ZINC13343541
REMARK  12 active torsions:
REMARK  status: ('A' for Active; 'I' for Inactive)
REMARK    1  A    between atoms: C_1  and  C_2
REMARK    2  A    between atoms: C_2  and  O_3
REMARK    3  A    between atoms: O_3  and  C_4
REMARK    4  A    between atoms: C_7  and  N_10
REMARK    5  A    between atoms: C_11  and  C_13
REMARK    6  A    between atoms: C_13  and  C_23
REMARK    7  A    between atoms: C_14  and  C_15
REMARK    8  A    between atoms: C_18  and  C_21
REMARK    9  A    between atoms: N_25  and  C_26
REMARK   10  A    between atoms: C_29  and  O_32
REMARK   11  A    between atoms: O_32  and  C_33
REMARK   12  A    between atoms: C_33  and  C_34
REMARK                            x       y       z     vdW  Elec       q    Type
REMARK                         _______ _______ _______ _____ _____    ______ ____
ROOT
ATOM      1  C   UNL     1       2.172  -3.799  -0.290  0.00  0.00    +0.099 C 
ATOM      2  C   UNL     1       3.139  -4.101  -1.206  0.00  0.00    +0.026 C 
ENDROOT
BRANCH   2   3
ATOM      3  C   UNL     1       4.396  -3.342  -1.222  0.00  0.00    -0.024 A 
ATOM      4  C   UNL     1       4.376  -1.948  -1.088  0.00  0.00    +0.009 A 
ATOM      5  C   UNL     1       5.556  -1.240  -1.099  0.00  0.00    +0.016 A 
ATOM      6  C   UNL     1       6.773  -1.909  -1.254  0.00  0.00    +0.063 A 
ATOM      7  C   UNL     1       6.794  -3.299  -1.394  0.00  0.00    +0.016 A 
ATOM      8  C   UNL     1       5.617  -4.012  -1.378  0.00  0.00    +0.009 A 
BRANCH   6   9
ATOM      9  C   UNL     1       8.039  -1.146  -1.271  0.00  0.00    +0.387 C 
ATOM     10  O   UNL     1       9.097  -1.727  -1.406  0.00  0.00    -0.241 OA
ATOM     11  O   UNL     1       8.019   0.195  -1.137  0.00  0.00    -0.241 OA
ENDBRANCH   6   9
ENDBRANCH   2   3
BRANCH   1  13
ATOM     12  N   UNL     1       3.279  -3.295   1.829  0.00  0.00    -0.281 N 
ATOM     13  C   UNL     1       2.474  -2.889   0.827  0.00  0.00    +0.253 C 
ATOM     14  O   UNL     1       1.997  -1.770   0.846  0.00  0.00    -0.270 OA
ATOM     15  H   UNL     1       3.725  -4.155   1.775  0.00  0.00    +0.155 HD
BRANCH  12  19
ATOM     16  C   UNL     1       3.858  -0.853   5.158  0.00  0.00    +0.121 A 
ATOM     17  C   UNL     1       3.929  -2.233   5.289  0.00  0.00    +0.047 A 
ATOM     18  C   UNL     1       3.738  -3.042   4.187  0.00  0.00    +0.027 A 
ATOM     19  C   UNL     1       3.473  -2.475   2.947  0.00  0.00    +0.034 A 
ATOM     20  C   UNL     1       3.402  -1.094   2.817  0.00  0.00    +0.027 A 
ATOM     21  C   UNL     1       3.594  -0.286   3.920  0.00  0.00    +0.047 A 
BRANCH  16  22
ATOM     22  O   UNL     1       4.046  -0.057   6.244  0.00  0.00    -0.492 OA
BRANCH  22  24
ATOM     23  C   UNL     1       4.197   2.080   7.363  0.00  0.00    +0.048 C 
ATOM     24  C   UNL     1       3.959   1.354   6.037  0.00  0.00    +0.225 C 
ENDBRANCH  22  24
ENDBRANCH  16  22
ENDBRANCH  12  19
ENDBRANCH   1  13
BRANCH   1  25
ATOM     25  C   UNL     1       0.827  -4.385  -0.419  0.00  0.00    +0.253 C 
ATOM     26  O   UNL     1       0.603  -5.207  -1.288  0.00  0.00    -0.270 OA
ATOM     27  N   UNL     1      -0.155  -4.011   0.424  0.00  0.00    -0.281 N 
ATOM     28  H   UNL     1      -0.005  -3.288   1.053  0.00  0.00    +0.155 HD
BRANCH  27  29
ATOM     29  C   UNL     1      -1.392  -4.666   0.393  0.00  0.00    +0.034 A 
ATOM     30  C   UNL     1      -1.445  -6.044   0.229  0.00  0.00    +0.027 A 
ATOM     31  C   UNL     1      -2.665  -6.690   0.204  0.00  0.00    +0.047 A 
ATOM     32  C   UNL     1      -3.838  -5.961   0.331  0.00  0.00    +0.121 A 
ATOM     33  C   UNL     1      -3.787  -4.584   0.490  0.00  0.00    +0.047 A 
ATOM     34  C   UNL     1      -2.567  -3.937   0.521  0.00  0.00    +0.027 A 
BRANCH  32  35
ATOM     35  O   UNL     1      -5.040  -6.597   0.301  0.00  0.00    -0.492 OA
BRANCH  35  36
ATOM     36  C   UNL     1      -5.019  -8.016   0.135  0.00  0.00    +0.225 C 
ATOM     37  C   UNL     1      -6.452  -8.550   0.124  0.00  0.00    +0.048 C 
ENDBRANCH  35  36
ENDBRANCH  32  35
ENDBRANCH  27  29
ENDBRANCH   1  25
TORSDOF 10
