REMARK  Name = ZINC09307568
REMARK  7 active torsions:
REMARK  status: ('A' for Active; 'I' for Inactive)
REMARK    1  A    between atoms: C_1  and  C_2
REMARK    2  A    between atoms: C_6  and  C_34
REMARK    3  A    between atoms: C_7  and  N_8
REMARK    4  A    between atoms: C_9  and  C_33
REMARK    5  A    between atoms: C_11  and  C_14
REMARK    6  A    between atoms: C_12  and  C_13
REMARK    7  A    between atoms: C_24  and  C_26
REMARK                            x       y       z     vdW  Elec       q    Type
REMARK                         _______ _______ _______ _____ _____    ______ ____
ROOT
ATOM      1  C   UNL     1      -1.585   1.644   5.235  0.00  0.00    +0.026 C 
ATOM      2  C   UNL     1      -1.081   2.647   6.037  0.00  0.00    +0.081 C 
ATOM      3  C   UNL     1       0.260   3.246   5.795  0.00  0.00    +0.153 C 
ATOM      4  N   UNL     1       0.778   3.388   4.602  0.00  0.00    -0.283 NA
ATOM      5  N   UNL     1       0.918   3.645   6.978  0.00  0.00    -0.152 N 
ATOM      6  C   UNL     1       0.137   3.910   8.082  0.00  0.00    +0.181 C 
ATOM      7  N   UNL     1      -1.156   3.745   8.202  0.00  0.00    -0.152 NA
ATOM      8  C   UNL     1      -1.849   3.191   7.184  0.00  0.00    +0.273 C 
ATOM      9  O   UNL     1      -3.068   3.135   7.206  0.00  0.00    -0.268 OA
ATOM     10  S   UNL     1       1.331   4.494   9.256  0.00  0.00    -0.033 S 
ATOM     11  C   UNL     1       2.788   4.255   8.248  0.00  0.00    +0.130 C 
ATOM     12  N   UNL     1       2.280   3.805   7.127  0.00  0.00    -0.164 NA
ATOM     13  H   UNL     1       1.671   3.753   4.502  0.00  0.00    +0.188 HD
ENDROOT
BRANCH   1  17
ATOM     14  N   UNL     1      -0.032  -0.178   2.560  0.00  0.00    -0.317 N 
ATOM     15  C   UNL     1       1.089   0.261   3.209  0.00  0.00    +0.022 A 
ATOM     16  C   UNL     1       0.725   0.989   4.278  0.00  0.00    +0.031 A 
ATOM     17  C   UNL     1      -0.745   1.001   4.291  0.00  0.00    -0.003 A 
ATOM     18  C   UNL     1      -1.140   0.260   3.190  0.00  0.00    +0.028 A 
ATOM     19  C   UNL     1      -2.562  -0.013   2.771  0.00  0.00    +0.064 C 
ATOM     20  C   UNL     1       2.509  -0.027   2.792  0.00  0.00    +0.064 C 
BRANCH  14  27
ATOM     21  C   UNL     1      -0.011   1.139   0.037  0.00  0.00    +0.046 C 
ATOM     22  C   UNL     1      -0.018  -0.363   0.150  0.00  0.00    -0.026 A 
ATOM     23  C   UNL     1      -0.008  -1.143  -0.990  0.00  0.00    +0.005 A 
ATOM     24  C   UNL     1      -0.015  -2.522  -0.887  0.00  0.00    +0.001 A 
ATOM     25  C   UNL     1      -0.032  -3.125   0.358  0.00  0.00    +0.005 A 
ATOM     26  C   UNL     1      -0.041  -2.351   1.502  0.00  0.00    -0.026 A 
ATOM     27  C   UNL     1      -0.028  -0.966   1.401  0.00  0.00    +0.052 A 
ATOM     28  C   UNL     1      -0.060  -3.009   2.857  0.00  0.00    +0.046 C 
ENDBRANCH  14  27
ENDBRANCH   1  17
BRANCH  11  29
ATOM     29  C   UNL     1       4.206   4.500   8.593  0.00  0.00    +0.009 A 
ATOM     30  C   UNL     1       5.207   4.253   7.653  0.00  0.00    +0.013 A 
ATOM     31  C   UNL     1       6.527   4.485   7.979  0.00  0.00    +0.039 A 
ATOM     32  C   UNL     1       6.860   4.961   9.237  0.00  0.00    +0.123 A 
ATOM     33  C   UNL     1       5.869   5.208  10.174  0.00  0.00    +0.039 A 
ATOM     34  C   UNL     1       4.545   4.985   9.856  0.00  0.00    +0.013 A 
ATOM     35  F   UNL     1       8.155   5.185   9.552  0.00  0.00    -0.205 F 
ENDBRANCH  11  29
TORSDOF 3
