REMARK  Name = ZINC20804690
REMARK  6 active torsions:
REMARK  status: ('A' for Active; 'I' for Inactive)
REMARK    1  A    between atoms: C_1  and  C_2
REMARK    2  A    between atoms: C_7  and  N_8
REMARK    3  A    between atoms: C_9  and  C_11
REMARK    4  A    between atoms: C_12  and  C_29
REMARK    5  A    between atoms: C_16  and  C_28
REMARK    6  A    between atoms: C_19  and  C_21
REMARK                            x       y       z     vdW  Elec       q    Type
REMARK                         _______ _______ _______ _____ _____    ______ ____
ROOT
ATOM      1  C   UNL     1       0.017   1.387  -0.040  0.00  0.00    +0.060 C 
ATOM      2  C   UNL     1       1.185   2.046  -0.022  0.00  0.00    +0.018 C 
ATOM      3  N   UNL     1       1.252   3.418  -0.039  0.00  0.00    -0.287 N 
ATOM      4  C   UNL     1       0.087   4.111  -0.338  0.00  0.00    +0.219 A 
ATOM      5  N   UNL     1      -0.092   5.369  -0.634  0.00  0.00    -0.198 NA
ATOM      6  C   UNL     1      -1.390   5.596  -0.856  0.00  0.00    +0.150 A 
ATOM      7  N   UNL     1      -2.056   4.478  -0.701  0.00  0.00    -0.153 NA
ATOM      8  N   UNL     1      -1.123   3.499  -0.361  0.00  0.00    -0.220 N 
ATOM      9  C   UNL     1      -1.318   2.082  -0.073  0.00  0.00    +0.180 C 
ATOM     10  C   UNL     1      -1.993   6.927  -1.226  0.00  0.00    +0.090 C 
ATOM     11  C   UNL     1       2.467   1.255   0.018  0.00  0.00    +0.061 C 
ATOM     12  H   UNL     1       2.204   3.925   0.180  0.00  0.00    +0.155 HD
ENDROOT
BRANCH   9  13
ATOM     13  C   UNL     1      -1.995   1.935   1.265  0.00  0.00    +0.017 A 
ATOM     14  C   UNL     1      -1.389   2.430   2.405  0.00  0.00    +0.009 A 
ATOM     15  C   UNL     1      -2.009   2.295   3.632  0.00  0.00    +0.001 A 
ATOM     16  C   UNL     1      -3.237   1.665   3.722  0.00  0.00    +0.003 A 
ATOM     17  C   UNL     1      -3.844   1.169   2.585  0.00  0.00    +0.039 A 
ATOM     18  C   UNL     1      -3.226   1.308   1.354  0.00  0.00    +0.129 A 
ATOM     19  F   UNL     1      -3.821   0.828   0.240  0.00  0.00    -0.205 F 
ENDBRANCH   9  13
BRANCH   1  21
ATOM     20  N   UNL     1       0.328  -0.691   1.104  0.00  0.00    -0.281 N 
ATOM     21  C   UNL     1       0.041  -0.027  -0.033  0.00  0.00    +0.248 C 
ATOM     22  O   UNL     1      -0.198  -0.645  -1.055  0.00  0.00    -0.270 OA
ATOM     23  H   UNL     1       0.452  -0.138   2.047  0.00  0.00    +0.155 HD
BRANCH  20  30
ATOM     24  C   UNL     1      -0.511  -2.156   3.394  0.00  0.00    +0.045 C 
ATOM     25  C   UNL     1       0.070  -2.836   2.182  0.00  0.00    -0.029 A 
ATOM     26  C   UNL     1       0.205  -4.211   2.158  0.00  0.00    +0.005 A 
ATOM     27  C   UNL     1       0.744  -4.835   1.049  0.00  0.00    +0.000 A 
ATOM     28  C   UNL     1       1.146  -4.087  -0.043  0.00  0.00    +0.002 A 
ATOM     29  C   UNL     1       1.009  -2.713  -0.028  0.00  0.00    +0.023 A 
ATOM     30  C   UNL     1       0.467  -2.082   1.085  0.00  0.00    +0.037 A 
ENDBRANCH  20  30
ENDBRANCH   1  21
TORSDOF 3
