REMARK  Name = ZINC36341741
REMARK  11 active torsions:
REMARK  status: ('A' for Active; 'I' for Inactive)
REMARK    1  A    between atoms: C_1  and  O_2
REMARK    2  A    between atoms: O_2  and  C_3
REMARK    3  A    between atoms: C_6  and  C_9
REMARK    4  A    between atoms: C_12  and  C_15
REMARK    5  A    between atoms: C_17  and  O_23
REMARK    6  A    between atoms: C_20  and  O_21
REMARK    7  A    between atoms: O_21  and  C_22
REMARK    8  A    between atoms: O_23  and  C_24
REMARK    9  A    between atoms: C_25  and  C_27
REMARK   10  A    between atoms: C_27  and  N_28
REMARK   11  A    between atoms: N_31  and  C_34
REMARK                            x       y       z     vdW  Elec       q    Type
REMARK                         _______ _______ _______ _____ _____    ______ ____
ROOT
ATOM      1  C   UNL     1      -4.956  -2.616   0.034  0.00  0.00    +0.069 C 
ATOM      2  N   UNL     1      -6.104  -2.031   0.038  0.00  0.00    -0.181 NA
ATOM      3  N   UNL     1      -7.188  -2.906   0.046  0.00  0.00    -0.187 N 
ATOM      4  C   UNL     1      -6.684  -4.289   0.049  0.00  0.00    +0.140 C 
ATOM      5  C   UNL     1      -5.152  -4.115   0.034  0.00  0.00    +0.087 C 
ATOM      6  C   UNL     1      -8.487  -2.546   0.052  0.00  0.00    +0.219 C 
ATOM      7  O   UNL     1      -9.352  -3.396   0.060  0.00  0.00    -0.276 OA
ENDROOT
BRANCH   1  11
ATOM      8  C   UNL     1      -1.200  -0.637   0.010  0.00  0.00    +0.120 A 
ATOM      9  C   UNL     1      -2.373   0.105   0.019  0.00  0.00    +0.046 A 
ATOM     10  C   UNL     1      -3.595  -0.532   0.027  0.00  0.00    +0.013 A 
ATOM     11  C   UNL     1      -3.651  -1.929   0.026  0.00  0.00    -0.002 A 
ATOM     12  C   UNL     1      -2.468  -2.672   0.016  0.00  0.00    +0.013 A 
ATOM     13  C   UNL     1      -1.251  -2.025   0.003  0.00  0.00    +0.046 A 
BRANCH   8  15
ATOM     14  C   UNL     1      -0.017   1.425   0.010  0.00  0.00    +0.277 C 
ATOM     15  O   UNL     1       0.002  -0.004   0.002  0.00  0.00    -0.495 OA
ENDBRANCH   8  15
ENDBRANCH   1  11
BRANCH   4  16
ATOM     16  C   UNL     1      -7.132  -5.015   1.291  0.00  0.00    +0.020 A 
ATOM     17  C   UNL     1      -7.570  -4.300   2.389  0.00  0.00    +0.054 A 
ATOM     18  C   UNL     1      -7.983  -4.968   3.532  0.00  0.00    +0.121 A 
ATOM     19  C   UNL     1      -7.955  -6.355   3.572  0.00  0.00    +0.049 A 
ATOM     20  C   UNL     1      -7.517  -7.069   2.475  0.00  0.00    +0.049 A 
ATOM     21  C   UNL     1      -7.109  -6.401   1.330  0.00  0.00    +0.125 A 
BRANCH  21  22
ATOM     22  O   UNL     1      -6.684  -7.105   0.247  0.00  0.00    -0.495 OA
ATOM     23  C   UNL     1      -6.687  -8.530   0.357  0.00  0.00    +0.277 C 
ENDBRANCH  21  22
BRANCH  18  24
ATOM     24  O   UNL     1      -8.414  -4.265   4.612  0.00  0.00    -0.495 OA
ATOM     25  C   UNL     1      -8.823  -5.018   5.756  0.00  0.00    +0.277 C 
ENDBRANCH  18  24
ENDBRANCH   4  16
BRANCH   6  26
ATOM     26  C   UNL     1      -8.863  -1.087   0.049  0.00  0.00    +0.021 C 
BRANCH  26  27
ATOM     27  N   UNL     1     -10.327  -0.959   0.057  0.00  0.00    +0.387 N 
ATOM     28  C   UNL     1     -10.871  -1.513  -1.189  0.00  0.00    -0.059 C 
ATOM     29  C   UNL     1     -12.402  -1.485  -1.133  0.00  0.00    +0.086 C 
ATOM     30  N   UNL     1     -12.833  -0.109  -0.842  0.00  0.00    -0.331 N 
ATOM     31  C   UNL     1     -12.214   0.585   0.298  0.00  0.00    +0.086 C 
ATOM     32  C   UNL     1     -10.692   0.459   0.175  0.00  0.00    -0.059 C 
ATOM     33  H   UNL     1     -10.704  -1.468   0.842  0.00  0.00    -0.081 HD
BRANCH  30  34
ATOM     34  C   UNL     1     -13.803   0.522  -1.627  0.00  0.00    +0.065 A 
ATOM     35  C   UNL     1     -15.146   0.418  -1.291  0.00  0.00    +0.026 A 
ATOM     36  C   UNL     1     -16.102   1.043  -2.068  0.00  0.00    +0.002 A 
ATOM     37  C   UNL     1     -15.724   1.772  -3.181  0.00  0.00    +0.003 A 
ATOM     38  C   UNL     1     -14.388   1.878  -3.520  0.00  0.00    +0.040 A 
ATOM     39  C   UNL     1     -13.425   1.260  -2.744  0.00  0.00    +0.144 A 
ATOM     40  F   UNL     1     -12.119   1.369  -3.072  0.00  0.00    -0.204 F 
ENDBRANCH  30  34
ENDBRANCH  26  27
ENDBRANCH   6  26
TORSDOF 8
