REMARK  Name = ZINC43757077
REMARK  4 active torsions:
REMARK  status: ('A' for Active; 'I' for Inactive)
REMARK    1  A    between atoms: C_1  and  C_2
REMARK    2  A    between atoms: C_9  and  O_15
REMARK    3  A    between atoms: C_10  and  O_14
REMARK    4  A    between atoms: C_20  and  C_25
REMARK                            x       y       z     vdW  Elec       q    Type
REMARK                         _______ _______ _______ _____ _____    ______ ____
ROOT
ATOM      1  C   UNL     1      -0.019   1.526   0.010  0.00  0.00    +0.014 C 
ATOM      2  C   UNL     1       0.002  -0.004   0.002  0.00  0.00    -0.000 C 
ATOM      3  C   UNL     1       0.592  -0.567  -1.293  0.00  0.00    +0.010 C 
ATOM      4  C   UNL     1       2.101  -0.343  -1.341  0.00  0.00    +0.005 C 
ATOM      5  C   UNL     1       2.747  -1.097  -0.173  0.00  0.00    +0.001 C 
ATOM      6  C   UNL     1       2.227  -0.503   1.135  0.00  0.00    +0.027 C 
ATOM      7  C   UNL     1       0.734  -0.586   1.225  0.00  0.00    +0.100 C 
ATOM      8  C   UNL     1       0.241  -2.035   1.327  0.00  0.00    +0.147 C 
ATOM      9  C   UNL     1      -1.145  -2.059   0.652  0.00  0.00    +0.035 C 
ATOM     10  C   UNL     1      -1.419  -0.620   0.165  0.00  0.00    +0.012 C 
ATOM     11  C   UNL     1       2.880  -1.219   2.319  0.00  0.00    +0.007 C 
ATOM     12  C   UNL     1       4.398  -1.048   2.246  0.00  0.00    +0.004 C 
ATOM     13  C   UNL     1       4.916  -1.650   0.938  0.00  0.00    -0.005 C 
ATOM     14  C   UNL     1       4.268  -0.943  -0.254  0.00  0.00    -0.026 C 
ATOM     15  C   UNL     1       4.633   0.542  -0.209  0.00  0.00    +0.007 C 
ATOM     16  C   UNL     1       6.152   0.697  -0.290  0.00  0.00    +0.001 C 
ATOM     17  C   UNL     1       6.802  -0.025   0.893  0.00  0.00    +0.000 C 
ATOM     18  C   UNL     1       6.435  -1.484   0.866  0.00  0.00    +0.004 C 
ATOM     19  C   UNL     1       4.773  -1.552  -1.563  0.00  0.00    +0.012 C 
ENDROOT
BRANCH   8  20
ATOM     20  O   UNL     1       1.139  -2.910   0.642  0.00  0.00    -0.389 OA
ATOM     21  H   UNL     1       0.881  -3.841   0.671  0.00  0.00    +0.210 HD
ENDBRANCH   8  20
BRANCH   7  22
ATOM     22  O   UNL     1       0.304   0.111   2.396  0.00  0.00    -0.385 OA
ATOM     23  H   UNL     1      -0.647   0.054   2.562  0.00  0.00    +0.210 HD
ENDBRANCH   7  22
TORSDOF 2
