REMARK  Name = ZINC23483123
REMARK  11 active torsions:
REMARK  status: ('A' for Active; 'I' for Inactive)
REMARK    1  A    between atoms: C_1  and  C_2
REMARK    2  A    between atoms: C_2  and  C_4
REMARK    3  A    between atoms: C_2  and  N_30
REMARK    4  A    between atoms: C_7  and  S_16
REMARK    5  A    between atoms: N_8  and  C_9
REMARK    6  A    between atoms: S_16  and  C_17
REMARK    7  A    between atoms: C_17  and  C_19
REMARK    8  A    between atoms: C_17  and  C_20
REMARK    9  A    between atoms: N_22  and  C_23
REMARK   10  A    between atoms: N_30  and  C_31
REMARK   11  A    between atoms: N_30  and  C_32
REMARK                            x       y       z     vdW  Elec       q    Type
REMARK                         _______ _______ _______ _____ _____    ______ ____
ROOT
ATOM      1  C   UNL     1      -1.474   3.480   2.497  0.00  0.00    +0.125 A 
ATOM      2  N   UNL     1      -2.593   3.003   2.966  0.00  0.00    -0.135 NA
ATOM      3  N   UNL     1      -2.911   3.609   4.054  0.00  0.00    -0.122 NA
ATOM      4  C   UNL     1      -2.009   4.520   4.338  0.00  0.00    +0.197 A 
ATOM      5  N   UNL     1      -1.062   4.467   3.352  0.00  0.00    -0.275 N 
ENDROOT
BRANCH   5   6
ATOM      6  C   UNL     1       0.090   5.260   3.240  0.00  0.00    +0.050 A 
ATOM      7  C   UNL     1       1.346   4.677   3.340  0.00  0.00    +0.029 A 
ATOM      8  C   UNL     1       2.480   5.457   3.224  0.00  0.00    +0.040 A 
ATOM      9  C   UNL     1       2.364   6.822   3.020  0.00  0.00    +0.124 A 
ATOM     10  C   UNL     1       1.112   7.406   2.926  0.00  0.00    +0.040 A 
ATOM     11  C   UNL     1      -0.024   6.628   3.036  0.00  0.00    +0.029 A 
ATOM     12  F   UNL     1       3.474   7.585   2.912  0.00  0.00    -0.205 F 
ENDBRANCH   5   6
BRANCH   1  14
ATOM     13  C   UNL     1      -1.515   3.567   0.019  0.00  0.00    -0.005 C 
ATOM     14  C   UNL     1      -0.768   3.032   1.243  0.00  0.00    -0.003 C 
BRANCH  14  15
ATOM     15  N   UNL     1      -0.738   1.564   1.196  0.00  0.00    +0.382 N 
ATOM     16  C   UNL     1      -0.056   1.091  -0.016  0.00  0.00    -0.096 C 
ATOM     17  C   UNL     1      -0.111   1.011   2.403  0.00  0.00    -0.096 C 
ATOM     18  H   UNL     1      -1.778   1.206   1.160  0.00  0.00    -0.082 HD
ENDBRANCH  14  15
ENDBRANCH   1  14
BRANCH   4  19
ATOM     19  S   UNL     1      -2.018   5.607   5.725  0.00  0.00    -0.073 S 
BRANCH  19  20
ATOM     20  C   UNL     1      -3.548   5.074   6.532  0.00  0.00    +0.137 C 
ATOM     21  C   UNL     1      -4.740   5.391   5.626  0.00  0.00    +0.029 C 
BRANCH  20  22
ATOM     22  C   UNL     1      -3.705   5.802   7.842  0.00  0.00    +0.230 C 
ATOM     23  O   UNL     1      -3.172   6.879   8.005  0.00  0.00    -0.274 OA
ATOM     24  N   UNL     1      -4.439   5.256   8.833  0.00  0.00    -0.285 N 
ATOM     25  H   UNL     1      -4.984   4.317   8.660  0.00  0.00    +0.155 HD
BRANCH  24  26
ATOM     26  C   UNL     1      -4.505   5.885  10.081  0.00  0.00    +0.033 A 
ATOM     27  C   UNL     1      -4.583   5.123  11.240  0.00  0.00    +0.024 A 
ATOM     28  C   UNL     1      -4.643   5.746  12.471  0.00  0.00    +0.017 A 
ATOM     29  C   UNL     1      -4.638   7.128  12.550  0.00  0.00    +0.018 A 
ATOM     30  C   UNL     1      -4.566   7.889  11.397  0.00  0.00    +0.017 A 
ATOM     31  C   UNL     1      -4.500   7.271  10.164  0.00  0.00    +0.024 A 
ATOM     32 BR   UNL     1      -4.727   7.977  14.238  0.00  0.00    -0.050 Br
ENDBRANCH  24  26
ENDBRANCH  20  22
ENDBRANCH  19  20
ENDBRANCH   4  19
TORSDOF 7
