REMARK  Name = ZINC38553580
REMARK  2 active torsions:
REMARK  status: ('A' for Active; 'I' for Inactive)
REMARK    1  A    between atoms: C_9  and  C_12
REMARK    2  A    between atoms: C_23  and  C_26
REMARK                            x       y       z     vdW  Elec       q    Type
REMARK                         _______ _______ _______ _____ _____    ______ ____
ROOT
ATOM      1  C   UNL     1       5.080  -2.630  -0.170  0.00  0.00    +0.260 C 
ATOM      2  O   UNL     1       5.783  -2.084  -0.994  0.00  0.00    -0.271 OA
ATOM      3  N   UNL     1       5.367  -3.882   0.238  0.00  0.00    -0.295 N 
ATOM      4  C   UNL     1       4.467  -4.595   1.156  0.00  0.00    +0.127 C 
ATOM      5  C   UNL     1       4.072  -5.931   0.514  0.00  0.00    +0.126 C 
ATOM      6  N   UNL     1       5.291  -6.607   0.050  0.00  0.00    -0.307 N 
ATOM      7  C   UNL     1       6.191  -5.894  -0.867  0.00  0.00    +0.126 C 
ATOM      8  C   UNL     1       6.583  -4.561  -0.231  0.00  0.00    +0.127 C 
ATOM      9  C   UNL     1       5.584  -7.883   0.466  0.00  0.00    +0.151 C 
ATOM     10  N   UNL     1       4.666  -8.637   1.034  0.00  0.00    -0.258 N 
ATOM     11  N   UNL     1       4.850  -9.819   1.454  0.00  0.00    -0.176 NA
ATOM     12  C   UNL     1       5.952 -10.421   1.741  0.00  0.00    +0.079 C 
ATOM     13  C   UNL     1       7.296  -9.736   1.642  0.00  0.00    +0.134 C 
ATOM     14  S   UNL     1       7.204  -8.562   0.246  0.00  0.00    -0.085 S 
ATOM     15  H   UNL     1       3.779  -8.258   1.141  0.00  0.00    +0.191 HD
ENDROOT
BRANCH   1  24
ATOM     16  C   UNL     1       0.566   1.761   0.631  0.00  0.00    +0.004 A 
ATOM     17  C   UNL     1       1.802   2.372   0.530  0.00  0.00    +0.004 A 
ATOM     18  C   UNL     1       2.940   1.608   0.351  0.00  0.00    +0.049 A 
ATOM     19  C   UNL     1       2.845   0.227   0.274  0.00  0.00    +0.163 A 
ATOM     20  C   UNL     1       1.602  -0.388   0.379  0.00  0.00    +0.162 A 
ATOM     21  C   UNL     1       0.464   0.385   0.556  0.00  0.00    +0.049 A 
ATOM     22  O   UNL     1       1.488  -1.742   0.313  0.00  0.00    -0.484 OA
ATOM     23  C   UNL     1       2.600  -2.457  -0.237  0.00  0.00    +0.283 C 
ATOM     24  C   UNL     1       3.885  -1.908   0.398  0.00  0.00    +0.296 C 
ATOM     25  O   UNL     1       3.974  -0.512   0.094  0.00  0.00    -0.473 OA
ENDBRANCH   1  24
BRANCH  12  26
ATOM     26  C   UNL     1       5.901 -11.824   2.182  0.00  0.00    -0.001 A 
ATOM     27  C   UNL     1       7.080 -12.502   2.506  0.00  0.00    +0.011 A 
ATOM     28  C   UNL     1       7.024 -13.817   2.919  0.00  0.00    +0.020 A 
ATOM     29  C   UNL     1       5.804 -14.466   3.012  0.00  0.00    +0.041 A 
ATOM     30  C   UNL     1       4.632 -13.800   2.692  0.00  0.00    +0.020 A 
ATOM     31  C   UNL     1       4.672 -12.484   2.283  0.00  0.00    +0.011 A 
ATOM     32 CL   UNL     1       5.744 -16.121   3.532  0.00  0.00    -0.084 Cl
ENDBRANCH  12  26
TORSDOF 2
