REMARK  Name = ZINC10694871
REMARK  7 active torsions:
REMARK  status: ('A' for Active; 'I' for Inactive)
REMARK    1  A    between atoms: C_1  and  C_2
REMARK    2  A    between atoms: C_5  and  C_36
REMARK    3  A    between atoms: N_8  and  S_10
REMARK    4  A    between atoms: S_10  and  C_13
REMARK    5  A    between atoms: C_16  and  C_19
REMARK    6  A    between atoms: N_21  and  C_22
REMARK    7  A    between atoms: C_23  and  C_27
REMARK                            x       y       z     vdW  Elec       q    Type
REMARK                         _______ _______ _______ _____ _____    ______ ____
ROOT
ATOM      1  C   UNL     1      -7.645   1.503   0.083  0.00  0.00    +0.249 C 
ATOM      2  O   UNL     1      -8.150   1.175   1.139  0.00  0.00    -0.270 OA
ATOM      3  N   UNL     1      -8.228   1.153  -1.081  0.00  0.00    -0.275 N 
ATOM      4  H   UNL     1      -7.825   1.415  -1.923  0.00  0.00    +0.156 HD
ENDROOT
BRANCH   1   8
ATOM      5  C   UNL     1      -4.043   3.754   0.061  0.00  0.00    +0.106 A 
ATOM      6  C   UNL     1      -4.642   3.400  -1.135  0.00  0.00    +0.029 A 
ATOM      7  C   UNL     1      -5.809   2.665  -1.135  0.00  0.00    +0.015 A 
ATOM      8  C   UNL     1      -6.392   2.287   0.075  0.00  0.00    +0.037 A 
ATOM      9  C   UNL     1      -5.786   2.651   1.279  0.00  0.00    +0.015 A 
ATOM     10  C   UNL     1      -4.616   3.382   1.264  0.00  0.00    +0.029 A 
BRANCH   5  11
ATOM     11  S   UNL     1      -2.550   4.688   0.052  0.00  0.00    +0.061 S 
ATOM     12  O   UNL     1      -2.485   5.364   1.300  0.00  0.00    -0.153 OA
ATOM     13  O   UNL     1      -2.509   5.377  -1.190  0.00  0.00    -0.153 OA
BRANCH  11  19
ATOM     14  C   UNL     1      -2.198   1.093  -1.204  0.00  0.00    +0.009 C 
ATOM     15  C   UNL     1      -0.752   1.593  -1.232  0.00  0.00    +0.002 C 
ATOM     16  C   UNL     1      -0.013   1.086   0.008  0.00  0.00    +0.009 C 
ATOM     17  C   UNL     1      -0.729   1.579   1.268  0.00  0.00    +0.002 C 
ATOM     18  C   UNL     1      -0.717   3.111   1.290  0.00  0.00    +0.112 C 
ATOM     19  N   UNL     1      -1.296   3.606   0.034  0.00  0.00    -0.176 NA
ATOM     20  C   UNL     1      -0.741   3.124  -1.238  0.00  0.00    +0.112 C 
ATOM     21  C   UNL     1      -0.008   1.045   2.507  0.00  0.00    +0.009 C 
ENDBRANCH  11  19
ENDBRANCH   5  11
ENDBRANCH   1   8
BRANCH   3  22
ATOM     22  C   UNL     1      -9.406   0.416  -1.073  0.00  0.00    +0.082 A 
ATOM     23  C   UNL     1     -10.158  -0.034  -2.151  0.00  0.00    +0.036 A 
ATOM     24  C   UNL     1     -11.346  -0.788  -1.849  0.00  0.00    +0.020 A 
ATOM     25  C   UNL     1     -11.661  -1.000  -0.556  0.00  0.00    +0.048 A 
ATOM     26  S   UNL     1     -10.341  -0.184   0.321  0.00  0.00    -0.081 S 
BRANCH  23  27
ATOM     27  C   UNL     1      -9.754   0.243  -3.540  0.00  0.00    +0.112 A 
ATOM     28  N   UNL     1      -8.708   0.912  -3.979  0.00  0.00    -0.239 NA
ATOM     29  C   UNL     1      -8.459   1.084  -5.293  0.00  0.00    +0.079 A 
ATOM     30  C   UNL     1      -7.378   1.771  -5.894  0.00  0.00    +0.029 A 
ATOM     31  C   UNL     1      -7.276   1.860  -7.258  0.00  0.00    +0.002 A 
ATOM     32  C   UNL     1      -8.222   1.284  -8.095  0.00  0.00    +0.001 A 
ATOM     33  C   UNL     1      -9.292   0.604  -7.542  0.00  0.00    +0.017 A 
ATOM     34  C   UNL     1      -9.403   0.510  -6.177  0.00  0.00    +0.040 A 
ATOM     35  S   UNL     1     -10.565  -0.236  -5.059  0.00  0.00    -0.067 S 
ENDBRANCH  23  27
ENDBRANCH   3  22
TORSDOF 5
