REMARK  Name = ZINC19542437
REMARK  12 active torsions:
REMARK  status: ('A' for Active; 'I' for Inactive)
REMARK    1  A    between atoms: C_1  and  C_2
REMARK    2  A    between atoms: C_2  and  N_3
REMARK    3  A    between atoms: N_3  and  C_4
REMARK    4  A    between atoms: N_3  and  C_11
REMARK    5  A    between atoms: C_4  and  C_5
REMARK    6  A    between atoms: C_11  and  C_12
REMARK    7  A    between atoms: N_14  and  C_15
REMARK    8  A    between atoms: C_16  and  C_28
REMARK    9  A    between atoms: C_17  and  C_27
REMARK   10  A    between atoms: C_18  and  C_26
REMARK   11  A    between atoms: N_19  and  C_20
REMARK   12  A    between atoms: C_20  and  C_21
REMARK                            x       y       z     vdW  Elec       q    Type
REMARK                         _______ _______ _______ _____ _____    ______ ____
ROOT
ATOM      1  C   UNL     1       3.091   3.418  -0.092  0.00  0.00    +0.202 C 
ATOM      2  O   UNL     1       3.869   2.507  -0.281  0.00  0.00    -0.278 OA
ATOM      3  N   UNL     1       1.773   3.166   0.025  0.00  0.00    -0.272 N 
ATOM      4  H   UNL     1       1.058   3.998   0.097  0.00  0.00    +0.156 HD
ENDROOT
BRANCH   3   5
ATOM      5  C   UNL     1       1.317   1.856   0.053  0.00  0.00    +0.124 A 
ATOM      6  C   UNL     1       2.014   0.759   0.541  0.00  0.00    +0.095 A 
ATOM      7  C   UNL     1       1.127  -0.397   0.358  0.00  0.00    -0.011 A 
ATOM      8  C   UNL     1       0.001   0.067  -0.207  0.00  0.00    +0.022 A 
ATOM      9  N   UNL     1       0.111   1.419  -0.392  0.00  0.00    -0.324 N 
ATOM     10  C   UNL     1      -1.196  -0.769  -0.579  0.00  0.00    +0.064 C 
ATOM     11  C   UNL     1       1.425  -1.826   0.731  0.00  0.00    +0.047 C 
BRANCH   6  12
ATOM     12  C   UNL     1       3.326   0.757   1.113  0.00  0.00    +0.103 C 
ATOM     13  N   UNL     1       4.368   0.755   1.567  0.00  0.00    -0.191 NA
ENDBRANCH   6  12
BRANCH   9  14
ATOM     14  C   UNL     1      -0.924   2.272  -0.983  0.00  0.00    +0.197 C 
BRANCH  14  15
ATOM     15  C   UNL     1      -1.904   2.686   0.084  0.00  0.00    +0.124 A 
ATOM     16  C   UNL     1      -1.860   3.828   0.793  0.00  0.00    +0.046 A 
ATOM     17  C   UNL     1      -2.965   3.807   1.674  0.00  0.00    +0.041 A 
ATOM     18  C   UNL     1      -3.615   2.649   1.456  0.00  0.00    +0.195 A 
ATOM     19  O   UNL     1      -2.968   1.974   0.492  0.00  0.00    -0.466 OA
ENDBRANCH  14  15
ENDBRANCH   9  14
ENDBRANCH   3   5
BRANCH   1  20
ATOM     20  C   UNL     1       3.600   4.833   0.012  0.00  0.00    +0.019 C 
BRANCH  20  21
ATOM     21  N   UNL     1       5.068   4.830  -0.030  0.00  0.00    +0.388 N 
ATOM     22  H   UNL     1       5.425   4.050   0.659  0.00  0.00    -0.081 HD
BRANCH  21  24
ATOM     23  C   UNL     1       5.144   5.604  -2.352  0.00  0.00    -0.017 C 
ATOM     24  C   UNL     1       5.555   4.500  -1.376  0.00  0.00    -0.081 C 
ENDBRANCH  21  24
BRANCH  21  25
ATOM     25  C   UNL     1       5.611   6.117   0.425  0.00  0.00    -0.035 C 
BRANCH  25  26
ATOM     26  C   UNL     1       7.114   6.034   0.488  0.00  0.00    -0.026 A 
ATOM     27  C   UNL     1       8.029   6.402  -0.441  0.00  0.00    +0.010 A 
ATOM     28  C   UNL     1       9.373   6.233  -0.164  0.00  0.00    +0.023 A 
ATOM     29  C   UNL     1       9.735   5.703   1.031  0.00  0.00    +0.055 A 
ATOM     30  S   UNL     1       8.152   5.433   1.811  0.00  0.00    -0.088 S 
ATOM     31 BR   UNL     1      11.468   5.350   1.700  0.00  0.00    -0.043 Br
ENDBRANCH  25  26
ENDBRANCH  21  25
ENDBRANCH  20  21
ENDBRANCH   1  20
TORSDOF 9
