REMARK  Name = ZINC09819891
REMARK  10 active torsions:
REMARK  status: ('A' for Active; 'I' for Inactive)
REMARK    1  A    between atoms: C_1  and  C_2
REMARK    2  A    between atoms: C_5  and  N_12
REMARK    3  A    between atoms: C_8  and  C_10
REMARK    4  A    between atoms: C_8  and  C_11
REMARK    5  A    between atoms: C_13  and  C_15
REMARK    6  A    between atoms: C_15  and  C_16
REMARK    7  A    between atoms: N_21  and  S_22
REMARK    8  A    between atoms: S_22  and  C_25
REMARK    9  A    between atoms: C_28  and  N_31
REMARK   10  A    between atoms: C_32  and  C_34
REMARK                            x       y       z     vdW  Elec       q    Type
REMARK                         _______ _______ _______ _____ _____    ______ ____
ROOT
ATOM      1  C   UNL     1      -4.095   0.217   2.497  0.00  0.00    +0.059 A 
ATOM      2  C   UNL     1      -4.267  -0.643   1.464  0.00  0.00    +0.072 A 
ATOM      3  S   UNL     1      -2.822  -0.274   0.480  0.00  0.00    -0.059 S 
ATOM      4  C   UNL     1      -2.147   0.945   1.516  0.00  0.00    +0.178 A 
ATOM      5  N   UNL     1      -3.030   0.996   2.496  0.00  0.00    -0.228 NA
ATOM      6  N   UNL     1      -0.984   1.680   1.353  0.00  0.00    -0.194 N 
ATOM      7  H   UNL     1      -0.729   2.339   2.018  0.00  0.00    +0.176 HD
ENDROOT
BRANCH   6   8
ATOM      8  S   UNL     1      -0.028   1.434   0.023  0.00  0.00    +0.074 S 
ATOM      9  O   UNL     1       0.162   0.030  -0.086  0.00  0.00    -0.150 OA
ATOM     10  O   UNL     1       1.058   2.344   0.130  0.00  0.00    -0.150 OA
BRANCH   8  11
ATOM     11  C   UNL     1      -0.962   1.928  -1.387  0.00  0.00    +0.109 A 
ATOM     12  C   UNL     1      -1.754   1.006  -2.047  0.00  0.00    +0.030 A 
ATOM     13  C   UNL     1      -2.491   1.391  -3.150  0.00  0.00    +0.025 A 
ATOM     14  C   UNL     1      -2.427   2.703  -3.603  0.00  0.00    +0.033 A 
ATOM     15  C   UNL     1      -1.626   3.624  -2.941  0.00  0.00    +0.025 A 
ATOM     16  C   UNL     1      -0.895   3.234  -1.836  0.00  0.00    +0.030 A 
BRANCH  14  17
ATOM     17  N   UNL     1      -3.168   3.095  -4.723  0.00  0.00    -0.286 N 
ATOM     18  C   UNL     1      -2.683   4.035  -5.557  0.00  0.00    +0.214 C 
ATOM     19  O   UNL     1      -1.563   4.472  -5.392  0.00  0.00    -0.276 OA
ATOM     20  C   UNL     1      -3.530   4.543  -6.695  0.00  0.00    +0.109 C 
ATOM     21  H   UNL     1      -4.032   2.689  -4.899  0.00  0.00    +0.155 HD
ENDBRANCH  14  17
ENDBRANCH   8  11
ENDBRANCH   6   8
BRANCH   1  22
ATOM     22  C   UNL     1      -5.097   0.282   3.620  0.00  0.00    +0.151 C 
BRANCH  22  24
ATOM     23  N   UNL     1      -5.092   0.087   6.086  0.00  0.00    -0.312 N 
ATOM     24  C   UNL     1      -4.391   0.070   4.935  0.00  0.00    +0.219 C 
ATOM     25  O   UNL     1      -3.193  -0.116   4.957  0.00  0.00    -0.275 OA
ATOM     26  H   UNL     1      -6.051   0.235   6.068  0.00  0.00    +0.149 HD
BRANCH  23  30
ATOM     27  C   UNL     1      -2.560   2.330   9.691  0.00  0.00    +0.007 C 
ATOM     28  C   UNL     1      -3.125   0.998   9.195  0.00  0.00    -0.012 C 
ATOM     29  C   UNL     1      -3.841   1.213   7.860  0.00  0.00    +0.025 C 
ATOM     30  C   UNL     1      -4.407  -0.119   7.364  0.00  0.00    +0.074 C 
ATOM     31  C   UNL     1      -5.398  -0.667   8.393  0.00  0.00    +0.028 C 
ATOM     32  C   UNL     1      -4.682  -0.882   9.728  0.00  0.00    -0.033 C 
ATOM     33  C   UNL     1      -4.117   0.451  10.223  0.00  0.00    +0.009 C 
ATOM     34  C   UNL     1      -5.674  -1.430  10.756  0.00  0.00    +0.011 C 
ATOM     35  C   UNL     1      -3.539  -1.882   9.538  0.00  0.00    +0.011 C 
ENDBRANCH  23  30
ENDBRANCH  22  24
ENDBRANCH   1  22
TORSDOF 6
