REMARK  Name = ZINC39217571
REMARK  4 active torsions:
REMARK  status: ('A' for Active; 'I' for Inactive)
REMARK    1  A    between atoms: C_3  and  C_11
REMARK    2  A    between atoms: C_5  and  C_7
REMARK    3  A    between atoms: C_22  and  N_26
REMARK    4  A    between atoms: C_23  and  C_24
REMARK                            x       y       z     vdW  Elec       q    Type
REMARK                         _______ _______ _______ _____ _____    ______ ____
ROOT
ATOM      1  C   UNL     1       3.672   2.182  -0.022  0.00  0.00    +0.085 C 
ATOM      2  C   UNL     1       3.754   3.055   1.234  0.00  0.00    +0.175 C 
ATOM      3  C   UNL     1       4.860   4.061   0.953  0.00  0.00    +0.212 C 
ATOM      4  N   UNL     1       5.893   4.084   1.748  0.00  0.00    -0.207 NA
ATOM      5  C   UNL     1       6.012   3.245   2.772  0.00  0.00    +0.214 C 
ATOM      6  N   UNL     1       5.147   2.316   3.092  0.00  0.00    -0.168 NA
ATOM      7  C   UNL     1       3.998   2.123   2.408  0.00  0.00    +0.251 C 
ATOM      8  O   UNL     1       3.205   1.253   2.705  0.00  0.00    -0.273 OA
ATOM      9  O   UNL     1       4.729   4.865  -0.111  0.00  0.00    -0.426 OA
ATOM     10  C   UNL     1       4.241   4.300  -1.241  0.00  0.00    +0.200 C 
ATOM     11  C   UNL     1       3.728   3.051  -1.248  0.00  0.00    +0.095 C 
ENDROOT
BRANCH   1  14
ATOM     12  C   UNL     1      -0.017   1.378   0.010  0.00  0.00    +0.001 A 
ATOM     13  C   UNL     1       1.171   2.085   0.002  0.00  0.00    +0.004 A 
ATOM     14  C   UNL     1       2.377   1.411  -0.013  0.00  0.00    -0.037 A 
ATOM     15  C   UNL     1       2.396   0.028  -0.020  0.00  0.00    +0.016 A 
ATOM     16  C   UNL     1       1.209  -0.679  -0.012  0.00  0.00    +0.055 A 
ATOM     17  C   UNL     1       0.002  -0.004   0.002  0.00  0.00    +0.012 A 
BRANCH  16  18
ATOM     18  C   UNL     1       1.229  -2.186  -0.020  0.00  0.00    +0.417 C 
ATOM     19  F   UNL     1       1.249  -2.660   1.296  0.00  0.00    -0.166 F 
ATOM     20  F   UNL     1       0.086  -2.664  -0.671  0.00  0.00    -0.166 F 
ATOM     21  F   UNL     1       2.371  -2.633  -0.694  0.00  0.00    -0.166 F 
ENDBRANCH  16  18
ENDBRANCH   1  14
BRANCH  10  22
ATOM     22  N   UNL     1       4.269   5.017  -2.411  0.00  0.00    -0.328 N 
ATOM     23  H   UNL     1       4.634   5.916  -2.420  0.00  0.00    +0.145 HD
ATOM     24  H   UNL     1       3.923   4.625  -3.228  0.00  0.00    +0.145 HD
ENDBRANCH  10  22
BRANCH  11  25
ATOM     25  C   UNL     1       3.215   2.530  -2.480  0.00  0.00    +0.100 C 
ATOM     26  N   UNL     1       2.809   2.118  -3.457  0.00  0.00    -0.191 NA
ENDBRANCH  11  25
TORSDOF 4
