REMARK  Name = ZINC04221968
REMARK  9 active torsions:
REMARK  status: ('A' for Active; 'I' for Inactive)
REMARK    1  A    between atoms: C_1  and  C_2
REMARK    2  A    between atoms: C_7  and  C_9
REMARK    3  A    between atoms: C_9  and  S_10
REMARK    4  A    between atoms: S_10  and  C_13
REMARK    5  A    between atoms: C_21  and  C_42
REMARK    6  A    between atoms: C_24  and  O_41
REMARK    7  A    between atoms: C_26  and  C_30
REMARK    8  A    between atoms: C_30  and  C_32
REMARK    9  A    between atoms: C_30  and  C_33
REMARK                            x       y       z     vdW  Elec       q    Type
REMARK                         _______ _______ _______ _____ _____    ______ ____
ROOT
ATOM      1  C   UNL     1       3.510   2.452   1.049  0.00  0.00    +0.014 C 
ATOM      2  C   UNL     1       2.632   1.653   0.084  0.00  0.00    +0.042 C 
ATOM      3  C   UNL     1       1.271   2.322  -0.036  0.00  0.00    +0.055 A 
ATOM      4  C   UNL     1       0.141   1.567  -0.066  0.00  0.00    +0.014 A 
ATOM      5  S   UNL     1      -1.135   2.789  -0.209  0.00  0.00    -0.075 S 
ATOM      6  C   UNL     1      -0.093   4.181  -0.227  0.00  0.00    +0.100 A 
ATOM      7  N   UNL     1       1.095   3.636  -0.120  0.00  0.00    -0.247 NA
ATOM      8  C   UNL     1       0.034   0.086   0.012  0.00  0.00    +0.051 C 
ATOM      9  C   UNL     1       1.426  -0.532  -0.226  0.00  0.00    -0.022 C 
ATOM     10  C   UNL     1       2.455   0.225   0.618  0.00  0.00    +0.033 C 
ATOM     11  C   UNL     1       3.819  -0.469   0.532  0.00  0.00    +0.123 C 
ATOM     12  C   UNL     1       3.710  -1.917   1.004  0.00  0.00    +0.029 C 
ATOM     13  C   UNL     1       2.724  -2.658   0.095  0.00  0.00    +0.007 C 
ATOM     14  C   UNL     1       1.352  -1.996   0.216  0.00  0.00    +0.008 C 
ATOM     15  C   UNL     1       1.788  -0.451  -1.710  0.00  0.00    +0.012 C 
ENDROOT
BRANCH  12  16
ATOM     16  C   UNL     1       5.083  -2.588   0.925  0.00  0.00    +0.078 C 
ATOM     17  C   UNL     1       5.535  -2.653  -0.535  0.00  0.00    +0.017 C 
BRANCH  16  18
ATOM     18  C   UNL     1       4.993  -3.984   1.485  0.00  0.00    +0.219 C 
ATOM     19  O   UNL     1       4.830  -4.927   0.741  0.00  0.00    -0.275 OA
ATOM     20  N   UNL     1       5.095  -4.184   2.814  0.00  0.00    -0.297 N 
ATOM     21  C   UNL     1       5.408  -3.072   3.726  0.00  0.00    +0.136 C 
ATOM     22  C   UNL     1       4.372  -3.078   4.862  0.00  0.00    +0.179 C 
ATOM     23  O   UNL     1       4.323  -4.382   5.445  0.00  0.00    -0.377 OA
ATOM     24  C   UNL     1       3.897  -5.409   4.547  0.00  0.00    +0.179 C 
ATOM     25  C   UNL     1       4.903  -5.522   3.396  0.00  0.00    +0.136 C 
ENDBRANCH  16  18
ENDBRANCH  12  16
BRANCH  11  26
ATOM     26  O   UNL     1       4.756   0.227   1.357  0.00  0.00    -0.391 OA
ATOM     27  H   UNL     1       5.664  -0.095   1.278  0.00  0.00    +0.210 HD
ENDBRANCH  11  26
BRANCH   6  28
ATOM     28  C   UNL     1      -0.461   5.638  -0.332  0.00  0.00    +0.234 C 
BRANCH  28  29
ATOM     29  S   UNL     1      -0.498   6.129  -2.078  0.00  0.00    +0.003 S 
ATOM     30  O   UNL     1       0.814   6.097  -2.623  0.00  0.00    -0.169 OA
ATOM     31  O   UNL     1      -1.575   5.485  -2.744  0.00  0.00    -0.169 OA
BRANCH  29  32
ATOM     32  C   UNL     1      -0.935   7.835  -2.060  0.00  0.00    +0.089 A 
ATOM     33  C   UNL     1      -2.265   8.208  -2.117  0.00  0.00    +0.028 A 
ATOM     34  C   UNL     1      -2.610   9.547  -2.097  0.00  0.00    +0.022 A 
ATOM     35  C   UNL     1      -1.623  10.514  -2.031  0.00  0.00    +0.041 A 
ATOM     36  C   UNL     1      -0.291  10.140  -1.980  0.00  0.00    +0.022 A 
ATOM     37  C   UNL     1       0.051   8.801  -1.994  0.00  0.00    +0.028 A 
ATOM     38 CL   UNL     1      -2.054  12.195  -2.014  0.00  0.00    -0.084 Cl
ENDBRANCH  29  32
ENDBRANCH  28  29
ENDBRANCH   6  28
TORSDOF 6
