REMARK  Name = ZINC21365073
REMARK  6 active torsions:
REMARK  status: ('A' for Active; 'I' for Inactive)
REMARK    1  A    between atoms: C_6  and  C_7
REMARK    2  A    between atoms: C_7  and  N_8
REMARK    3  A    between atoms: N_8  and  C_21
REMARK    4  A    between atoms: C_9  and  C_11
REMARK    5  A    between atoms: C_11  and  N_12
REMARK    6  A    between atoms: C_15  and  C_18
REMARK                            x       y       z     vdW  Elec       q    Type
REMARK                         _______ _______ _______ _____ _____    ______ ____
ROOT
ATOM      1  N   UNL     1      -1.696   5.130   0.096  0.00  0.00    -0.293 N 
ATOM      2  C   UNL     1      -1.088   5.837   1.069  0.00  0.00    +0.200 C 
ATOM      3  O   UNL     1      -1.034   7.046   0.995  0.00  0.00    -0.278 OA
ENDROOT
BRANCH   1   4
ATOM      4  C   UNL     1      -1.883   3.684   0.249  0.00  0.00    +0.038 C 
ATOM      5  C   UNL     1      -2.891   3.416   1.368  0.00  0.00    +0.029 C 
ATOM      6  C   UNL     1      -3.086   1.907   1.528  0.00  0.00    -0.008 C 
ATOM      7  C   UNL     1      -3.611   1.319   0.216  0.00  0.00    +0.007 C 
ATOM      8  C   UNL     1      -2.603   1.587  -0.903  0.00  0.00    -0.008 C 
ATOM      9  C   UNL     1      -2.408   3.096  -1.062  0.00  0.00    +0.029 C 
ATOM     10  C   UNL     1      -1.265   0.934  -0.551  0.00  0.00    +0.007 C 
ATOM     11  C   UNL     1      -0.740   1.522   0.761  0.00  0.00    -0.008 C 
ATOM     12  C   UNL     1      -1.748   1.254   1.880  0.00  0.00    +0.007 C 
ATOM     13  C   UNL     1      -0.545   3.032   0.601  0.00  0.00    +0.029 C 
ENDBRANCH   1   4
BRANCH   1  14
ATOM     14  C   UNL     1      -2.169   5.805  -1.115  0.00  0.00    +0.143 C 
BRANCH  14  20
ATOM     15  C   UNL     1      -4.666   5.687  -1.236  0.00  0.00    +0.006 A 
ATOM     16  C   UNL     1      -5.920   6.219  -1.000  0.00  0.00    +0.020 A 
ATOM     17  C   UNL     1      -6.042   7.460  -0.400  0.00  0.00    +0.041 A 
ATOM     18  C   UNL     1      -4.910   8.165  -0.032  0.00  0.00    +0.020 A 
ATOM     19  C   UNL     1      -3.657   7.629  -0.264  0.00  0.00    +0.006 A 
ATOM     20  C   UNL     1      -3.535   6.389  -0.863  0.00  0.00    -0.030 A 
ATOM     21 CL   UNL     1      -7.616   8.132  -0.110  0.00  0.00    -0.084 Cl
ENDBRANCH  14  20
ENDBRANCH   1  14
BRANCH   2  22
ATOM     22  C   UNL     1      -0.477   5.126   2.248  0.00  0.00    +0.019 C 
BRANCH  22  23
ATOM     23  N   UNL     1      -0.230   6.091   3.328  0.00  0.00    +0.385 N 
ATOM     24  C   UNL     1      -1.449   6.843   3.650  0.00  0.00    -0.077 C 
ATOM     25  C   UNL     1      -1.122   7.935   4.672  0.00  0.00    -0.006 C 
ATOM     26  C   UNL     1      -0.549   7.288   5.936  0.00  0.00    +0.071 C 
ATOM     27  C   UNL     1       0.691   6.471   5.566  0.00  0.00    -0.006 C 
ATOM     28  C   UNL     1       0.311   5.422   4.518  0.00  0.00    -0.077 C 
ATOM     29  H   UNL     1       0.524   6.810   2.975  0.00  0.00    -0.081 HD
BRANCH  26  30
ATOM     30  C   UNL     1      -0.169   8.362   6.923  0.00  0.00    +0.213 C 
ATOM     31  O   UNL     1       0.981   8.464   7.294  0.00  0.00    -0.276 OA
ATOM     32  N   UNL     1      -1.107   9.208   7.393  0.00  0.00    -0.329 N 
ATOM     33  H   UNL     1      -0.829   9.992   8.114  0.00  0.00    +0.145 HD
ATOM     34  H   UNL     1      -2.150   9.115   7.057  0.00  0.00    +0.145 HD
ENDBRANCH  26  30
ENDBRANCH  22  23
ENDBRANCH   2  22
TORSDOF 6
