REMARK  Name = ZINC36062500
REMARK  6 active torsions:
REMARK  status: ('A' for Active; 'I' for Inactive)
REMARK    1  A    between atoms: C_7  and  N_27
REMARK    2  A    between atoms: C_10  and  N_11
REMARK    3  A    between atoms: N_14  and  C_17
REMARK    4  A    between atoms: C_17  and  N_19
REMARK    5  A    between atoms: N_19  and  C_20
REMARK    6  A    between atoms: N_27  and  C_28
REMARK                            x       y       z     vdW  Elec       q    Type
REMARK                         _______ _______ _______ _____ _____    ______ ____
ROOT
ATOM      1  C   UNL     1      -0.060   1.399  -0.365  0.00  0.00    +0.001 A 
ATOM      2  C   UNL     1       1.122   2.132  -0.298  0.00  0.00    +0.001 A 
ATOM      3  C   UNL     1       2.335   1.509  -0.278  0.00  0.00    +0.012 A 
ATOM      4  C   UNL     1       2.391   0.112  -0.326  0.00  0.00    +0.025 A 
ATOM      5  C   UNL     1       1.187  -0.634  -0.394  0.00  0.00    +0.027 A 
ATOM      6  C   UNL     1      -0.041   0.036  -0.413  0.00  0.00    +0.012 A 
ATOM      7  C   UNL     1       1.290  -2.044  -0.440  0.00  0.00    +0.151 A 
ATOM      8  N   UNL     1       2.487  -2.598  -0.418  0.00  0.00    -0.157 NA
ATOM      9  N   UNL     1       3.574  -1.923  -0.357  0.00  0.00    -0.262 N 
ATOM     10  C   UNL     1       3.609  -0.606  -0.309  0.00  0.00    +0.123 A 
ATOM     11  H   UNL     1       4.415  -2.407  -0.344  0.00  0.00    +0.190 HD
ENDROOT
BRANCH  10  12
ATOM     12  N   UNL     1       4.824   0.066  -0.243  0.00  0.00    -0.312 N 
ATOM     13  C   UNL     1       5.490   0.282   1.049  0.00  0.00    +0.125 C 
ATOM     14  C   UNL     1       6.911  -0.289   0.969  0.00  0.00    +0.125 C 
ATOM     15  N   UNL     1       7.553   0.218  -0.252  0.00  0.00    -0.309 N 
ATOM     16  C   UNL     1       6.886   0.002  -1.544  0.00  0.00    +0.125 C 
ATOM     17  C   UNL     1       5.468   0.568  -1.465  0.00  0.00    +0.125 C 
BRANCH  15  18
ATOM     18  C   UNL     1       8.731   0.870  -0.188  0.00  0.00    +0.137 C 
ATOM     19  S   UNL     1       9.555   1.004   1.306  0.00  0.00    -0.018 S 
BRANCH  18  20
ATOM     20  N   UNL     1       9.260   1.416  -1.301  0.00  0.00    -0.297 N 
ATOM     21  H   UNL     1       9.174   2.369  -1.461  0.00  0.00    +0.154 HD
BRANCH  20  22
ATOM     22  C   UNL     1       9.933   0.608  -2.225  0.00  0.00    +0.033 A 
ATOM     23  C   UNL     1       9.964  -0.769  -2.052  0.00  0.00    +0.026 A 
ATOM     24  C   UNL     1      10.629  -1.564  -2.965  0.00  0.00    +0.040 A 
ATOM     25  C   UNL     1      11.265  -0.988  -4.052  0.00  0.00    +0.124 A 
ATOM     26  C   UNL     1      11.237   0.385  -4.226  0.00  0.00    +0.040 A 
ATOM     27  C   UNL     1      10.567   1.183  -3.319  0.00  0.00    +0.026 A 
ATOM     28  F   UNL     1      11.916  -1.768  -4.943  0.00  0.00    -0.205 F 
ENDBRANCH  20  22
ENDBRANCH  18  20
ENDBRANCH  15  18
ENDBRANCH  10  12
BRANCH   7  29
ATOM     29  N   UNL     1       0.148  -2.833  -0.507  0.00  0.00    -0.297 N 
ATOM     30  H   UNL     1      -0.730  -2.423  -0.454  0.00  0.00    +0.154 HD
BRANCH  29  31
ATOM     31  C   UNL     1       0.263  -4.220  -0.653  0.00  0.00    +0.036 A 
ATOM     32  C   UNL     1       1.308  -4.898  -0.038  0.00  0.00    +0.027 A 
ATOM     33  C   UNL     1       1.424  -6.268  -0.182  0.00  0.00    +0.051 A 
ATOM     34  C   UNL     1       0.498  -6.968  -0.938  0.00  0.00    +0.166 A 
ATOM     35  C   UNL     1      -0.551  -6.292  -1.555  0.00  0.00    +0.168 A 
ATOM     36  C   UNL     1      -0.670  -4.920  -1.407  0.00  0.00    +0.072 A 
ATOM     37  O   UNL     1      -1.315  -7.197  -2.233  0.00  0.00    -0.453 OA
ATOM     38  C   UNL     1      -0.495  -8.372  -2.364  0.00  0.00    +0.466 C 
ATOM     39  O   UNL     1       0.391  -8.299  -1.231  0.00  0.00    -0.453 OA
ENDBRANCH  29  31
ENDBRANCH   7  29
TORSDOF 6
