REMARK  Name = ZINC67229618
REMARK  8 active torsions:
REMARK  status: ('A' for Active; 'I' for Inactive)
REMARK    1  A    between atoms: C_1  and  C_2
REMARK    2  A    between atoms: C_8  and  N_10
REMARK    3  A    between atoms: C_14  and  C_16
REMARK    4  A    between atoms: C_16  and  N_17
REMARK    5  A    between atoms: C_24  and  C_26
REMARK    6  A    between atoms: C_26  and  C_27
REMARK    7  A    between atoms: C_26  and  C_28
REMARK    8  A    between atoms: C_26  and  C_29
REMARK                            x       y       z     vdW  Elec       q    Type
REMARK                         _______ _______ _______ _____ _____    ______ ____
ROOT
ATOM      1  N   UNL     1       1.609   3.715   3.999  0.00  0.00    -0.296 N 
ATOM      2  C   UNL     1       2.527   3.387   4.929  0.00  0.00    +0.306 C 
ATOM      3  O   UNL     1       2.171   3.007   6.027  0.00  0.00    -0.252 OA
ATOM      4  N   UNL     1       3.841   3.481   4.642  0.00  0.00    -0.242 N 
ATOM      5  C   UNL     1       4.759   3.154   5.573  0.00  0.00    +0.204 C 
ATOM      6  O   UNL     1       4.404   2.775   6.668  0.00  0.00    -0.277 OA
ATOM      7  H   UNL     1       1.893   4.018   3.123  0.00  0.00    +0.151 HD
ATOM      8  H   UNL     1       4.125   3.785   3.766  0.00  0.00    +0.159 HD
ENDROOT
BRANCH   1  15
ATOM      9  C   UNL     1      -0.132   6.005   3.665  0.00  0.00    +0.009 C 
ATOM     10  C   UNL     1      -0.607   4.572   3.417  0.00  0.00    +0.006 C 
ATOM     11  C   UNL     1      -2.098   4.465   3.743  0.00  0.00    +0.005 C 
ATOM     12  C   UNL     1      -2.572   3.032   3.495  0.00  0.00    +0.000 C 
ATOM     13  C   UNL     1      -1.785   2.072   4.390  0.00  0.00    +0.002 C 
ATOM     14  C   UNL     1      -0.294   2.179   4.064  0.00  0.00    +0.022 C 
ATOM     15  C   UNL     1       0.181   3.612   4.311  0.00  0.00    +0.077 C 
ENDBRANCH   1  15
BRANCH   5  16
ATOM     16  C   UNL     1       6.228   3.259   5.252  0.00  0.00    +0.019 C 
BRANCH  16  17
ATOM     17  N   UNL     1       7.015   2.849   6.422  0.00  0.00    +0.386 N 
ATOM     18  C   UNL     1       8.415   3.191   6.178  0.00  0.00    -0.077 C 
ATOM     19  C   UNL     1       9.097   3.472   7.499  0.00  0.00    +0.000 C 
ATOM     20  C   UNL     1       9.765   2.185   8.015  0.00  0.00    +0.106 C 
ATOM     21  N   UNL     1       8.909   1.007   7.767  0.00  0.00    -0.303 N 
ATOM     22  C   UNL     1       7.475   1.034   7.968  0.00  0.00    +0.089 C 
ATOM     23  C   UNL     1       6.771   1.479   6.665  0.00  0.00    -0.059 C 
ATOM     24  C   UNL     1       9.484  -0.134   7.338  0.00  0.00    +0.221 C 
ATOM     25  O   UNL     1       8.818  -1.141   7.219  0.00  0.00    -0.275 OA
ATOM     26  H   UNL     1       6.695   3.376   7.220  0.00  0.00    -0.081 HD
BRANCH  24  27
ATOM     27  C   UNL     1      10.954  -0.159   7.004  0.00  0.00    +0.039 C 
ATOM     28  C   UNL     1      11.360  -1.577   6.597  0.00  0.00    +0.020 C 
ATOM     29  C   UNL     1      11.230   0.803   5.848  0.00  0.00    +0.020 C 
ATOM     30  C   UNL     1      11.762   0.271   8.230  0.00  0.00    +0.020 C 
ENDBRANCH  24  27
ENDBRANCH  16  17
ENDBRANCH   5  16
TORSDOF 4
