REMARK  Name = ZINC39943414
REMARK  5 active torsions:
REMARK  status: ('A' for Active; 'I' for Inactive)
REMARK    1  A    between atoms: C_4  and  C_7
REMARK    2  A    between atoms: C_9  and  C_18
REMARK    3  A    between atoms: N_10  and  C_12
REMARK    4  A    between atoms: N_20  and  N_21
REMARK    5  A    between atoms: C_22  and  C_24
REMARK                            x       y       z     vdW  Elec       q    Type
REMARK                         _______ _______ _______ _____ _____    ______ ____
ROOT
ATOM      1  C   UNL     1       6.086  -3.373   0.128  0.00  0.00    +0.279 C 
ATOM      2  O   UNL     1       7.301  -3.309   0.101  0.00  0.00    -0.267 OA
ATOM      3  N   UNL     1       5.476  -4.573   0.191  0.00  0.00    -0.229 N 
ATOM      4  H   UNL     1       4.509  -4.628   0.142  0.00  0.00    +0.173 HD
ENDROOT
BRANCH   1   7
ATOM      5  C   UNL     1       3.626  -0.668   0.125  0.00  0.00    +0.094 A 
ATOM      6  C   UNL     1       3.912  -2.041   0.230  0.00  0.00    +0.063 A 
ATOM      7  C   UNL     1       5.284  -2.140   0.092  0.00  0.00    +0.131 A 
ATOM      8  N   UNL     1       5.748  -0.864  -0.085  0.00  0.00    -0.227 N 
ATOM      9  N   UNL     1       4.766  -0.037  -0.067  0.00  0.00    -0.166 NA
BRANCH   5  13
ATOM     10  C   UNL     1      -0.225   1.121   0.360  0.00  0.00    +0.000 A 
ATOM     11  C   UNL     1       0.891   1.912   0.157  0.00  0.00    +0.001 A 
ATOM     12  C   UNL     1       2.143   1.337   0.079  0.00  0.00    +0.010 A 
ATOM     13  C   UNL     1       2.282  -0.043   0.207  0.00  0.00    +0.002 A 
ATOM     14  C   UNL     1       1.155  -0.836   0.413  0.00  0.00    +0.010 A 
ATOM     15  C   UNL     1      -0.093  -0.250   0.488  0.00  0.00    +0.001 A 
ENDBRANCH   5  13
BRANCH   8  16
ATOM     16  C   UNL     1       7.091  -0.515  -0.265  0.00  0.00    +0.066 A 
ATOM     17  C   UNL     1       7.637   0.541   0.454  0.00  0.00    +0.028 A 
ATOM     18  C   UNL     1       8.963   0.883   0.275  0.00  0.00    +0.002 A 
ATOM     19  C   UNL     1       9.747   0.176  -0.618  0.00  0.00    +0.000 A 
ATOM     20  C   UNL     1       9.207  -0.876  -1.335  0.00  0.00    +0.002 A 
ATOM     21  C   UNL     1       7.883  -1.227  -1.157  0.00  0.00    +0.028 A 
ENDBRANCH   8  16
ENDBRANCH   1   7
BRANCH   3  22
ATOM     22  N   UNL     1       6.239  -5.740   0.328  0.00  0.00    -0.230 N 
ATOM     23  C   UNL     1       5.628  -6.940   0.391  0.00  0.00    +0.257 C 
ATOM     24  O   UNL     1       4.417  -7.009   0.330  0.00  0.00    -0.269 OA
ATOM     25  H   UNL     1       7.206  -5.685   0.377  0.00  0.00    +0.173 HD
BRANCH  23  26
ATOM     26  C   UNL     1       6.432  -8.171   0.535  0.00  0.00    +0.033 C 
ATOM     27  C   UNL     1       5.840  -9.395   0.763  0.00  0.00    +0.005 A 
ATOM     28  C   UNL     1       4.386  -9.521   0.873  0.00  0.00    +0.010 A 
ATOM     29  C   UNL     1       3.851 -10.746   1.097  0.00  0.00    +0.001 A 
ATOM     30  C   UNL     1       4.657 -11.884   1.226  0.00  0.00    +0.002 A 
ATOM     31  C   UNL     1       6.009 -11.838   1.136  0.00  0.00    +0.024 A 
ATOM     32  C   UNL     1       6.669 -10.612   0.903  0.00  0.00    +0.041 A 
ATOM     33  N   UNL     1       7.990 -10.574   0.816  0.00  0.00    -0.285 N 
ATOM     34  C   UNL     1       8.676  -9.458   0.599  0.00  0.00    +0.222 C 
ATOM     35  O   UNL     1       9.889  -9.493   0.530  0.00  0.00    -0.275 OA
ATOM     36  C   UNL     1       7.945  -8.145   0.431  0.00  0.00    +0.137 C 
ATOM     37  H   UNL     1       8.482 -11.405   0.916  0.00  0.00    +0.155 HD
ENDBRANCH  23  26
ENDBRANCH   3  22
TORSDOF 5
