REMARK  Name = ZINC39860113
REMARK  6 active torsions:
REMARK  status: ('A' for Active; 'I' for Inactive)
REMARK    1  A    between atoms: C_1  and  C_2
REMARK    2  A    between atoms: C_5  and  C_24
REMARK    3  A    between atoms: C_6  and  N_8
REMARK    4  A    between atoms: C_12  and  C_13
REMARK    5  A    between atoms: C_16  and  O_20
REMARK    6  A    between atoms: C_17  and  O_19
REMARK                            x       y       z     vdW  Elec       q    Type
REMARK                         _______ _______ _______ _____ _____    ______ ____
ROOT
ATOM      1  N   UNL     1       0.178  -3.760   1.956  0.00  0.00    -0.196 N 
ATOM      2  C   UNL     1       1.299  -3.752   2.658  0.00  0.00    +0.265 C 
ATOM      3  O   UNL     1       2.355  -3.391   2.172  0.00  0.00    -0.269 OA
ATOM      4  C   UNL     1       1.204  -4.201   4.061  0.00  0.00    +0.080 C 
ATOM      5  C   UNL     1       2.174  -4.298   5.006  0.00  0.00    +0.028 C 
ATOM      6  S   UNL     1      -0.538  -4.584   4.173  0.00  0.00    -0.025 S 
ATOM      7  C   UNL     1      -0.991  -4.154   2.499  0.00  0.00    +0.290 C 
ATOM      8  O   UNL     1      -2.088  -4.206   1.977  0.00  0.00    -0.262 OA
ENDROOT
BRANCH   1  14
ATOM      9  C   UNL     1      -0.200  -0.151  -1.364  0.00  0.00    +0.044 C 
ATOM     10  C   UNL     1       0.025  -1.600  -1.019  0.00  0.00    -0.049 A 
ATOM     11  C   UNL     1       0.258  -2.521  -2.024  0.00  0.00    +0.004 A 
ATOM     12  C   UNL     1       0.465  -3.852  -1.711  0.00  0.00    +0.005 A 
ATOM     13  C   UNL     1       0.439  -4.266  -0.393  0.00  0.00    -0.029 A 
ATOM     14  C   UNL     1       0.205  -3.343   0.618  0.00  0.00    +0.048 A 
ATOM     15  C   UNL     1       0.004  -2.006   0.301  0.00  0.00    +0.027 A 
ATOM     16  C   UNL     1       0.664  -5.716  -0.053  0.00  0.00    +0.045 C 
ENDBRANCH   1  14
BRANCH   5  17
ATOM     17  C   UNL     1       1.880  -4.932   6.297  0.00  0.00    -0.020 A 
ATOM     18  C   UNL     1       0.740  -5.733   6.443  0.00  0.00    +0.012 A 
ATOM     19  C   UNL     1       0.468  -6.327   7.655  0.00  0.00    +0.050 A 
ATOM     20  C   UNL     1       1.320  -6.134   8.735  0.00  0.00    +0.158 A 
ATOM     21  C   UNL     1       2.456  -5.338   8.598  0.00  0.00    +0.159 A 
ATOM     22  C   UNL     1       2.741  -4.743   7.385  0.00  0.00    +0.057 A 
BRANCH  21  23
ATOM     23  O   UNL     1       3.287  -5.151   9.658  0.00  0.00    -0.503 OA
ATOM     24  H   UNL     1       3.995  -5.807   9.723  0.00  0.00    +0.292 HD
ENDBRANCH  21  23
BRANCH  20  25
ATOM     25  O   UNL     1       1.045  -6.723   9.928  0.00  0.00    -0.503 OA
ATOM     26  H   UNL     1       1.433  -7.602  10.031  0.00  0.00    +0.292 HD
ENDBRANCH  20  25
ENDBRANCH   5  17
TORSDOF 4
