REMARK  Name = ZINC39325344
REMARK  10 active torsions:
REMARK  status: ('A' for Active; 'I' for Inactive)
REMARK    1  A    between atoms: C_1  and  C_2
REMARK    2  A    between atoms: C_2  and  C_3
REMARK    3  A    between atoms: C_10  and  C_15
REMARK    4  A    between atoms: C_15  and  N_16
REMARK    5  A    between atoms: N_16  and  C_17
REMARK    6  A    between atoms: N_16  and  S_26
REMARK    7  A    between atoms: C_17  and  C_18
REMARK    8  A    between atoms: C_21  and  O_24
REMARK    9  A    between atoms: O_24  and  C_25
REMARK   10  A    between atoms: S_26  and  C_29
REMARK                            x       y       z     vdW  Elec       q    Type
REMARK                         _______ _______ _______ _____ _____    ______ ____
ROOT
ATOM      1  N   UNL     1       1.010  -3.728   7.607  0.00  0.00    -0.171 NA
ENDROOT
BRANCH   1   2
ATOM      2  S   UNL     1       2.408  -4.610   7.507  0.00  0.00    +0.061 S 
ATOM      3  O   UNL     1       2.404  -5.504   8.612  0.00  0.00    -0.153 OA
ATOM      4  O   UNL     1       2.510  -5.060   6.163  0.00  0.00    -0.153 OA
BRANCH   2   5
ATOM      5  C   UNL     1       3.748  -3.495   7.767  0.00  0.00    +0.106 A 
ATOM      6  C   UNL     1       4.413  -2.950   6.685  0.00  0.00    +0.030 A 
ATOM      7  C   UNL     1       5.463  -2.075   6.888  0.00  0.00    +0.022 A 
ATOM      8  C   UNL     1       5.849  -1.745   8.175  0.00  0.00    +0.041 A 
ATOM      9  C   UNL     1       5.183  -2.291   9.258  0.00  0.00    +0.022 A 
ATOM     10  C   UNL     1       4.129  -3.161   9.053  0.00  0.00    +0.030 A 
ATOM     11 CL   UNL     1       7.169  -0.647   8.431  0.00  0.00    -0.084 Cl
ENDBRANCH   2   5
ENDBRANCH   1   2
BRANCH   1  12
ATOM     12  C   UNL     1       0.366  -3.236   6.386  0.00  0.00    +0.126 C 
BRANCH  12  20
ATOM     13  C   UNL     1      -0.009   0.940   2.328  0.00  0.00    -0.047 A 
ATOM     14  C   UNL     1       1.307   1.343   2.553  0.00  0.00    +0.005 A 
ATOM     15  C   UNL     1       2.030   0.922   3.623  0.00  0.00    +0.024 A 
ATOM     16  C   UNL     1       1.465   0.044   4.566  0.00  0.00    +0.040 A 
ATOM     17  N   UNL     1       2.184  -0.362   5.613  0.00  0.00    -0.284 N 
ATOM     18  C   UNL     1       1.715  -1.185   6.535  0.00  0.00    +0.225 C 
ATOM     19  O   UNL     1       2.418  -1.521   7.469  0.00  0.00    -0.275 OA
ATOM     20  C   UNL     1       0.300  -1.708   6.424  0.00  0.00    +0.114 C 
ATOM     21  C   UNL     1      -0.522  -1.249   5.236  0.00  0.00    -0.003 C 
ATOM     22  C   UNL     1       0.076  -0.398   4.354  0.00  0.00    -0.007 A 
ATOM     23  C   UNL     1      -0.647   0.098   3.182  0.00  0.00    +0.013 A 
ATOM     24  H   UNL     1       3.094  -0.038   5.702  0.00  0.00    +0.155 HD
BRANCH  13  26
ATOM     25  C   UNL     1      -1.460   2.758   1.468  0.00  0.00    +0.009 C 
ATOM     26  C   UNL     1      -0.742   1.454   1.115  0.00  0.00    +0.032 C 
ENDBRANCH  13  26
ENDBRANCH  12  20
ENDBRANCH   1  12
BRANCH   1  27
ATOM     27  C   UNL     1       0.418  -3.439   8.915  0.00  0.00    +0.144 C 
BRANCH  27  28
ATOM     28  C   UNL     1      -0.635  -4.470   9.229  0.00  0.00    -0.031 A 
ATOM     29  C   UNL     1      -1.945  -4.259   8.841  0.00  0.00    +0.008 A 
ATOM     30  C   UNL     1      -2.912  -5.203   9.127  0.00  0.00    +0.046 A 
ATOM     31  C   UNL     1      -2.568  -6.364   9.805  0.00  0.00    +0.120 A 
ATOM     32  C   UNL     1      -1.253  -6.574  10.192  0.00  0.00    +0.046 A 
ATOM     33  C   UNL     1      -0.288  -5.629   9.899  0.00  0.00    +0.008 A 
BRANCH  31  34
ATOM     34  O   UNL     1      -3.518  -7.293  10.088  0.00  0.00    -0.495 OA
ATOM     35  C   UNL     1      -3.092  -8.464  10.788  0.00  0.00    +0.277 C 
ENDBRANCH  31  34
ENDBRANCH  27  28
ENDBRANCH   1  27
TORSDOF 8
