REMARK  Name = ZINC09119597
REMARK  11 active torsions:
REMARK  status: ('A' for Active; 'I' for Inactive)
REMARK    1  A    between atoms: C_1  and  C_2
REMARK    2  A    between atoms: C_2  and  C_4
REMARK    3  A    between atoms: C_2  and  N_62
REMARK    4  A    between atoms: N_6  and  C_7
REMARK    5  A    between atoms: C_10  and  S_13
REMARK    6  A    between atoms: S_13  and  N_16
REMARK    7  A    between atoms: C_17  and  N_62
REMARK    8  A    between atoms: C_18  and  C_19
REMARK    9  A    between atoms: C_18  and  N_62
REMARK   10  A    between atoms: N_21  and  C_22
REMARK   11  A    between atoms: C_25  and  N_28
REMARK                            x       y       z     vdW  Elec       q    Type
REMARK                         _______ _______ _______ _____ _____    ______ ____
ROOT
ATOM      1  C   UNL     1       0.380   3.984   1.278  0.00  0.00    -0.094 C 
ATOM      2  N   UNL     1       0.948   3.525  -0.007  0.00  0.00    +0.391 N 
ATOM      3  H   UNL     1       0.298   3.767  -0.764  0.00  0.00    -0.080 HD
ENDROOT
BRANCH   2   5
ATOM      4  C   UNL     1       1.930   1.638   1.252  0.00  0.00    -0.004 C 
ATOM      5  C   UNL     1       1.131   2.058   0.017  0.00  0.00    +0.017 C 
BRANCH   5   6
ATOM      6  C   UNL     1      -0.224   1.400   0.048  0.00  0.00    +0.203 C 
ATOM      7  O   UNL     1      -1.229   2.079   0.061  0.00  0.00    -0.277 OA
ATOM      8  N   UNL     1      -0.320   0.055   0.056  0.00  0.00    -0.287 N 
ATOM      9  H   UNL     1       0.479  -0.488  -0.026  0.00  0.00    +0.155 HD
BRANCH   8  10
ATOM     10  C   UNL     1      -1.573  -0.556   0.181  0.00  0.00    +0.033 A 
ATOM     11  C   UNL     1      -1.698  -1.749   0.881  0.00  0.00    +0.025 A 
ATOM     12  C   UNL     1      -2.936  -2.347   1.008  0.00  0.00    +0.030 A 
ATOM     13  C   UNL     1      -4.049  -1.765   0.429  0.00  0.00    +0.105 A 
ATOM     14  C   UNL     1      -3.927  -0.581  -0.274  0.00  0.00    +0.030 A 
ATOM     15  C   UNL     1      -2.692   0.025  -0.399  0.00  0.00    +0.025 A 
BRANCH  13  16
ATOM     16  S   UNL     1      -5.626  -2.535   0.588  0.00  0.00    +0.056 S 
ATOM     17  O   UNL     1      -5.567  -3.346   1.753  0.00  0.00    -0.153 OA
ATOM     18  O   UNL     1      -6.596  -1.510   0.421  0.00  0.00    -0.153 OA
BRANCH  16  19
ATOM     19  N   UNL     1      -5.800  -3.565  -0.698  0.00  0.00    -0.204 NA
ATOM     20  H   UNL     1      -5.091  -3.644  -1.355  0.00  0.00    +0.144 HD
ATOM     21  H   UNL     1      -6.611  -4.089  -0.793  0.00  0.00    +0.144 HD
ENDBRANCH  16  19
ENDBRANCH  13  16
ENDBRANCH   8  10
ENDBRANCH   5   6
ENDBRANCH   2   5
BRANCH   2  22
ATOM     22  C   UNL     1       2.244   4.192  -0.253  0.00  0.00    +0.020 C 
BRANCH  22  23
ATOM     23  C   UNL     1       1.997   5.659  -0.492  0.00  0.00    +0.201 C 
ATOM     24  O   UNL     1       0.869   6.100  -0.444  0.00  0.00    -0.278 OA
ATOM     25  N   UNL     1       3.031   6.481  -0.759  0.00  0.00    -0.287 N 
ATOM     26  H   UNL     1       3.925   6.118  -0.865  0.00  0.00    +0.155 HD
BRANCH  25  27
ATOM     27  C   UNL     1       2.816   7.860  -0.883  0.00  0.00    +0.033 A 
ATOM     28  C   UNL     1       1.640   8.331  -1.452  0.00  0.00    +0.025 A 
ATOM     29  C   UNL     1       1.426   9.690  -1.570  0.00  0.00    +0.025 A 
ATOM     30  C   UNL     1       2.391  10.586  -1.128  0.00  0.00    +0.030 A 
ATOM     31  C   UNL     1       3.569  10.115  -0.564  0.00  0.00    +0.025 A 
ATOM     32  C   UNL     1       3.781   8.756  -0.442  0.00  0.00    +0.025 A 
BRANCH  30  33
ATOM     33  N   UNL     1       2.176  11.963  -1.253  0.00  0.00    -0.326 N 
ATOM     34  C   UNL     1       2.284  12.633   0.051  0.00  0.00    +0.133 C 
ATOM     35  C   UNL     1       2.102  14.141  -0.139  0.00  0.00    +0.178 C 
ATOM     36  O   UNL     1       0.843  14.388  -0.771  0.00  0.00    -0.377 OA
ATOM     37  C   UNL     1       0.704  13.751  -2.044  0.00  0.00    +0.178 C 
ATOM     38  C   UNL     1       0.872  12.238  -1.873  0.00  0.00    +0.133 C 
ENDBRANCH  30  33
ENDBRANCH  25  27
ENDBRANCH  22  23
ENDBRANCH   2  22
TORSDOF 9
