REMARK  Name = ZINC45324511
REMARK  19 active torsions:
REMARK  status: ('A' for Active; 'I' for Inactive)
REMARK    1  A    between atoms: C_1  and  C_2
REMARK    2  A    between atoms: C_2  and  C_3
REMARK    3  A    between atoms: C_3  and  C_4
REMARK    4  A    between atoms: C_4  and  C_5
REMARK    5  A    between atoms: C_5  and  C_7
REMARK    6  A    between atoms: C_5  and  C_9
REMARK    7  A    between atoms: C_7  and  C_8
REMARK    8  A    between atoms: C_9  and  O_10
REMARK    9  A    between atoms: O_10  and  C_11
REMARK   10  A    between atoms: C_11  and  C_12
REMARK   11  A    between atoms: C_12  and  C_13
REMARK   12  A    between atoms: C_13  and  C_14
REMARK   13  A    between atoms: C_14  and  C_15
REMARK   14  A    between atoms: C_15  and  C_16
REMARK   15  A    between atoms: C_15  and  C_17
REMARK   16  A    between atoms: C_15  and  N_19
REMARK   17  A    between atoms: N_19  and  C_20
REMARK   18  A    between atoms: C_20  and  C_21
REMARK   19  A    between atoms: C_21  and  C_22
REMARK                            x       y       z     vdW  Elec       q    Type
REMARK                         _______ _______ _______ _____ _____    ______ ____
ROOT
ATOM      1  C   UNL     1      -5.840  -6.292  -0.246  0.00  0.00    +0.028 C 
ENDROOT
BRANCH   1   2
ATOM      2  C   UNL     1      -4.363  -5.904  -0.148  0.00  0.00    +0.160 C 
BRANCH   2   3
ATOM      3  O   UNL     1      -4.244  -4.481  -0.130  0.00  0.00    -0.379 OA
BRANCH   3   4
ATOM      4  C   UNL     1      -2.898  -4.010  -0.040  0.00  0.00    +0.163 C 
BRANCH   4   5
ATOM      5  C   UNL     1      -2.892  -2.480  -0.029  0.00  0.00    +0.014 C 
BRANCH   5   6
ATOM      6  C   UNL     1      -3.582  -1.977   1.241  0.00  0.00    +0.002 C 
ATOM      7  C   UNL     1      -3.705  -0.453   1.184  0.00  0.00    +0.004 C 
ENDBRANCH   5   6
BRANCH   5   8
ATOM      8  C   UNL     1      -1.448  -1.976  -0.058  0.00  0.00    +0.006 C 
BRANCH   8   9
ATOM      9  C   UNL     1      -0.801  -2.360  -1.390  0.00  0.00    +0.000 C 
BRANCH   9  11
ATOM     10  C   UNL     1       1.244  -2.127  -2.807  0.00  0.00    +0.004 C 
ATOM     11  C   UNL     1       0.597  -1.744  -1.475  0.00  0.00    -0.003 C 
ENDBRANCH   9  11
ENDBRANCH   8   9
ENDBRANCH   5   8
ENDBRANCH   4   5
ENDBRANCH   3   4
ENDBRANCH   2   3
ENDBRANCH   1   2
BRANCH   1  12
ATOM     12  C   UNL     1      -5.966  -7.817  -0.265  0.00  0.00    +0.005 C 
BRANCH  12  13
ATOM     13  C   UNL     1      -7.443  -8.205  -0.363  0.00  0.00    +0.037 C 
BRANCH  13  14
ATOM     14  C   UNL     1      -7.570  -9.729  -0.382  0.00  0.00    +0.104 C 
ATOM     15  C   UNL     1      -6.815 -10.289  -1.589  0.00  0.00    +0.044 C 
BRANCH  14  16
ATOM     16  C   UNL     1      -6.997 -10.285   0.855  0.00  0.00    +0.084 C 
ATOM     17  N   UNL     1      -6.556 -10.714   1.810  0.00  0.00    -0.195 NA
ENDBRANCH  14  16
BRANCH  14  18
ATOM     18  N   UNL     1      -8.988 -10.102  -0.476  0.00  0.00    -0.299 NA
ATOM     19  H   UNL     1      -9.520  -9.690   0.276  0.00  0.00    +0.123 HD
BRANCH  18  20
ATOM     20  C   UNL     1      -9.148 -11.562  -0.497  0.00  0.00    +0.082 C 
BRANCH  20  21
ATOM     21  C   UNL     1     -10.635 -11.910  -0.595  0.00  0.00    +0.012 C 
ATOM     22  C   UNL     1     -10.802 -13.431  -0.616  0.00  0.00    +0.005 C 
ENDBRANCH  20  21
ENDBRANCH  18  20
ENDBRANCH  14  18
ENDBRANCH  13  14
ENDBRANCH  12  13
ENDBRANCH   1  12
TORSDOF 15
