REMARK  Name = ZINC35562850
REMARK  9 active torsions:
REMARK  status: ('A' for Active; 'I' for Inactive)
REMARK    1  A    between atoms: C_1  and  C_2
REMARK    2  A    between atoms: C_5  and  N_9
REMARK    3  A    between atoms: C_7  and  C_8
REMARK    4  A    between atoms: C_10  and  C_12
REMARK    5  A    between atoms: C_12  and  C_13
REMARK    6  A    between atoms: C_20  and  C_24
REMARK    7  A    between atoms: C_21  and  C_23
REMARK    8  A    between atoms: C_26  and  C_37
REMARK    9  A    between atoms: N_27  and  C_29
REMARK                            x       y       z     vdW  Elec       q    Type
REMARK                         _______ _______ _______ _____ _____    ______ ____
ROOT
ATOM      1  C   UNL     1      -0.213  -6.676  -2.625  0.00  0.00    +0.044 A 
ATOM      2  C   UNL     1       0.907  -6.961  -3.289  0.00  0.00    +0.071 A 
ATOM      3  S   UNL     1       0.289  -7.260  -4.937  0.00  0.00    -0.057 S 
ATOM      4  C   UNL     1      -1.434  -6.976  -4.595  0.00  0.00    +0.180 A 
ATOM      5  N   UNL     1      -1.433  -6.679  -3.258  0.00  0.00    -0.258 N 
ATOM      6  C   UNL     1      -2.646  -6.410  -2.689  0.00  0.00    +0.268 A 
ATOM      7  O   UNL     1      -2.719  -6.133  -1.503  0.00  0.00    -0.266 OA
ATOM      8  C   UNL     1      -3.811  -6.453  -3.476  0.00  0.00    +0.088 A 
ATOM      9  C   UNL     1      -3.713  -6.770  -4.827  0.00  0.00    +0.055 A 
ATOM     10  N   UNL     1      -2.513  -7.014  -5.339  0.00  0.00    -0.227 NA
ATOM     11  C   UNL     1      -4.944  -6.823  -5.694  0.00  0.00    +0.066 C 
ENDROOT
BRANCH   8  12
ATOM     12  C   UNL     1      -5.133  -6.164  -2.870  0.00  0.00    +0.100 A 
ATOM     13  C   UNL     1      -5.369  -5.826  -1.522  0.00  0.00    +0.053 A 
ATOM     14  C   UNL     1      -6.698  -5.639  -1.368  0.00  0.00    +0.043 A 
ATOM     15  N   UNL     1      -7.291  -5.850  -2.573  0.00  0.00    -0.234 N 
ATOM     16  N   UNL     1      -6.290  -6.171  -3.498  0.00  0.00    -0.166 NA
ATOM     17  C   UNL     1      -7.399  -5.266  -0.088  0.00  0.00    +0.066 C 
BRANCH  15  18
ATOM     18  C   UNL     1      -8.663  -5.756  -2.842  0.00  0.00    +0.103 A 
ATOM     19  C   UNL     1      -9.387  -4.660  -2.394  0.00  0.00    +0.069 A 
ATOM     20  C   UNL     1     -10.742  -4.571  -2.662  0.00  0.00    +0.126 A 
ATOM     21  C   UNL     1     -11.375  -5.575  -3.376  0.00  0.00    +0.041 A 
ATOM     22  C   UNL     1     -10.656  -6.668  -3.824  0.00  0.00    +0.043 A 
ATOM     23  C   UNL     1      -9.301  -6.759  -3.565  0.00  0.00    +0.149 A 
ATOM     24  F   UNL     1      -8.598  -7.825  -4.007  0.00  0.00    -0.203 F 
ATOM     25  F   UNL     1     -11.447  -3.505  -2.226  0.00  0.00    -0.205 F 
ENDBRANCH  15  18
ENDBRANCH   8  12
BRANCH   1  26
ATOM     26  C   UNL     1      -0.141  -6.352  -1.155  0.00  0.00    +0.150 C 
BRANCH  26  28
ATOM     27  N   UNL     1      -0.013  -4.332   0.267  0.00  0.00    -0.285 N 
ATOM     28  C   UNL     1      -0.082  -4.858  -0.972  0.00  0.00    +0.223 C 
ATOM     29  O   UNL     1      -0.096  -4.127  -1.941  0.00  0.00    -0.275 OA
ATOM     30  H   UNL     1       0.071  -4.916   1.037  0.00  0.00    +0.155 HD
BRANCH  27  35
ATOM     31  C   UNL     1      -0.210   1.293   0.977  0.00  0.00    +0.044 C 
ATOM     32  C   UNL     1      -0.158  -0.202   0.789  0.00  0.00    -0.047 A 
ATOM     33  C   UNL     1       0.479  -0.735  -0.317  0.00  0.00    +0.005 A 
ATOM     34  C   UNL     1       0.529  -2.104  -0.493  0.00  0.00    +0.023 A 
ATOM     35  C   UNL     1      -0.061  -2.945   0.442  0.00  0.00    +0.034 A 
ATOM     36  C   UNL     1      -0.699  -2.406   1.551  0.00  0.00    +0.027 A 
ATOM     37  C   UNL     1      -0.741  -1.036   1.724  0.00  0.00    -0.046 A 
ATOM     38  C   UNL     1      -1.429  -0.450   2.930  0.00  0.00    +0.044 C 
ENDBRANCH  27  35
ENDBRANCH  26  28
ENDBRANCH   1  26
TORSDOF 5
