REMARK  Name = ZINC22892211
REMARK  4 active torsions:
REMARK  status: ('A' for Active; 'I' for Inactive)
REMARK    1  A    between atoms: N_10  and  C_13
REMARK    2  A    between atoms: N_16  and  C_21
REMARK    3  A    between atoms: C_18  and  O_20
REMARK    4  A    between atoms: C_21  and  C_22
REMARK                            x       y       z     vdW  Elec       q    Type
REMARK                         _______ _______ _______ _____ _____    ______ ____
ROOT
ATOM      1  C   UNL     1       1.364  -0.383  -0.615  0.00  0.00    +0.067 C 
ATOM      2  C   UNL     1       2.051   0.963  -0.928  0.00  0.00    -0.057 C 
ATOM      3  N   UNL     1       1.413   1.933  -0.001  0.00  0.00    +0.385 N 
ATOM      4  C   UNL     1      -0.019   1.540   0.011  0.00  0.00    -0.045 C 
ATOM      5  C   UNL     1       0.002  -0.004   0.002  0.00  0.00    +0.113 C 
ATOM      6  H   UNL     1       1.865   1.924   1.002  0.00  0.00    -0.081 HD
ENDROOT
BRANCH   1  16
ATOM      7  C   UNL     1       0.270  -6.062  -5.832  0.00  0.00    +0.005 A 
ATOM      8  C   UNL     1       0.855  -5.584  -6.997  0.00  0.00    +0.018 A 
ATOM      9  C   UNL     1       1.591  -4.417  -6.954  0.00  0.00    +0.084 A 
ATOM     10  N   UNL     1       1.739  -3.751  -5.824  0.00  0.00    -0.350 N 
ATOM     11  C   UNL     1       1.201  -4.177  -4.692  0.00  0.00    +0.099 A 
ATOM     12  C   UNL     1       0.447  -5.345  -4.662  0.00  0.00    +0.042 A 
ATOM     13  N   UNL     1       1.387  -3.447  -3.524  0.00  0.00    -0.314 N 
ATOM     14  C   UNL     1       2.209  -2.255  -3.773  0.00  0.00    +0.122 C 
ATOM     15  C   UNL     1       2.457  -1.524  -2.451  0.00  0.00    +0.103 C 
ATOM     16  N   UNL     1       1.167  -1.154  -1.850  0.00  0.00    -0.296 NA
ATOM     17  C   UNL     1       0.345  -2.347  -1.601  0.00  0.00    +0.103 C 
ATOM     18  C   UNL     1       0.098  -3.078  -2.923  0.00  0.00    +0.122 C 
ATOM     19  H   UNL     1       2.321  -2.817  -5.808  0.00  0.00    +0.166 HD
ENDBRANCH   1  16
BRANCH   5  20
ATOM     20  O   UNL     1      -0.099  -0.509   1.335  0.00  0.00    -0.392 OA
ATOM     21  H   UNL     1      -1.010  -0.329   1.924  0.00  0.00    +0.210 HD
ENDBRANCH   5  20
BRANCH   3  22
ATOM     22  C   UNL     1       1.577   3.311  -0.486  0.00  0.00    -0.043 C 
BRANCH  22  23
ATOM     23  C   UNL     1       1.034   4.272   0.540  0.00  0.00    -0.059 A 
ATOM     24  C   UNL     1      -0.291   4.662   0.488  0.00  0.00    +0.040 A 
ATOM     25  C   UNL     1      -0.792   5.542   1.433  0.00  0.00    +0.126 A 
ATOM     26  C   UNL     1       0.038   6.039   2.423  0.00  0.00    +0.076 A 
ATOM     27  C   UNL     1       1.366   5.651   2.471  0.00  0.00    +0.126 A 
ATOM     28  C   UNL     1       1.863   4.767   1.529  0.00  0.00    +0.040 A 
ATOM     29  F   UNL     1       2.176   6.136   3.437  0.00  0.00    -0.205 F 
ATOM     30  F   UNL     1      -2.088   5.919   1.385  0.00  0.00    -0.205 F 
ENDBRANCH  22  23
ENDBRANCH   3  22
TORSDOF 4
