REMARK  Name = ZINC30854609
REMARK  9 active torsions:
REMARK  status: ('A' for Active; 'I' for Inactive)
REMARK    1  A    between atoms: C_1  and  C_2
REMARK    2  A    between atoms: N_6  and  C_7
REMARK    3  A    between atoms: C_10  and  C_13
REMARK    4  A    between atoms: C_13  and  N_14
REMARK    5  A    between atoms: C_15  and  C_17
REMARK    6  A    between atoms: C_20  and  N_23
REMARK    7  A    between atoms: N_23  and  C_24
REMARK    8  A    between atoms: N_23  and  S_25
REMARK    9  A    between atoms: S_25  and  C_28
REMARK                            x       y       z     vdW  Elec       q    Type
REMARK                         _______ _______ _______ _____ _____    ______ ____
ROOT
ATOM      1  N   UNL     1       3.087   5.676  -1.350  0.00  0.00    -0.307 N 
ATOM      2  C   UNL     1       4.255   6.216  -1.754  0.00  0.00    +0.244 C 
ATOM      3  O   UNL     1       4.990   6.749  -0.945  0.00  0.00    -0.270 OA
ATOM      4  H   UNL     1       2.422   5.194  -2.082  0.00  0.00    +0.149 HD
ENDROOT
BRANCH   2   5
ATOM      5  C   UNL     1       4.641   6.159  -3.176  0.00  0.00    +0.037 A 
ATOM      6  C   UNL     1       3.800   5.541  -4.106  0.00  0.00    +0.015 A 
ATOM      7  C   UNL     1       4.161   5.494  -5.433  0.00  0.00    +0.025 A 
ATOM      8  C   UNL     1       5.367   6.052  -5.848  0.00  0.00    +0.051 A 
ATOM      9  C   UNL     1       6.209   6.662  -4.924  0.00  0.00    +0.025 A 
ATOM     10  C   UNL     1       5.852   6.718  -3.596  0.00  0.00    +0.015 A 
BRANCH   8  11
ATOM     11  N   UNL     1       5.731   5.998  -7.189  0.00  0.00    -0.206 N 
ATOM     12  C   UNL     1       6.631   7.011  -7.745  0.00  0.00    +0.157 C 
BRANCH  11  13
ATOM     13  S   UNL     1       5.146   4.789  -8.158  0.00  0.00    +0.074 S 
ATOM     14  O   UNL     1       6.084   4.624  -9.213  0.00  0.00    -0.150 OA
ATOM     15  O   UNL     1       4.773   3.723  -7.297  0.00  0.00    -0.150 OA
BRANCH  13  16
ATOM     16  C   UNL     1       3.660   5.385  -8.895  0.00  0.00    +0.109 A 
ATOM     17  C   UNL     1       2.436   5.065  -8.337  0.00  0.00    +0.030 A 
ATOM     18  C   UNL     1       1.271   5.537  -8.912  0.00  0.00    +0.022 A 
ATOM     19  C   UNL     1       1.329   6.319 -10.051  0.00  0.00    +0.041 A 
ATOM     20  C   UNL     1       2.553   6.634 -10.612  0.00  0.00    +0.022 A 
ATOM     21  C   UNL     1       3.719   6.167 -10.033  0.00  0.00    +0.030 A 
ATOM     22 CL   UNL     1      -0.135   6.907 -10.776  0.00  0.00    -0.084 Cl
ENDBRANCH  13  16
ENDBRANCH  11  13
ENDBRANCH   8  11
ENDBRANCH   2   5
BRANCH   1  23
ATOM     23  C   UNL     1       2.704   5.733   0.063  0.00  0.00    +0.139 C 
BRANCH  23  27
ATOM     24  C   UNL     1      -1.090   3.836   0.580  0.00  0.00    +0.048 A 
ATOM     25  C   UNL     1       0.078   3.095   0.692  0.00  0.00    +0.026 A 
ATOM     26  C   UNL     1       1.303   3.711   0.523  0.00  0.00    +0.007 A 
ATOM     27  C   UNL     1       1.366   5.064   0.247  0.00  0.00    -0.030 A 
ATOM     28  C   UNL     1       0.204   5.806   0.140  0.00  0.00    +0.007 A 
ATOM     29  C   UNL     1      -1.024   5.196   0.309  0.00  0.00    +0.026 A 
BRANCH  24  35
ATOM     30  C   UNL     1      -3.324   4.854   2.430  0.00  0.00    +0.084 C 
ATOM     31  C   UNL     1      -3.347   3.629   1.551  0.00  0.00    +0.088 A 
ATOM     32  N   UNL     1      -4.343   2.794   1.434  0.00  0.00    -0.350 N 
ATOM     33  C   UNL     1      -4.009   1.823   0.571  0.00  0.00    +0.102 A 
ATOM     34  C   UNL     1      -2.760   2.064   0.129  0.00  0.00    +0.110 A 
ATOM     35  N   UNL     1      -2.336   3.213   0.746  0.00  0.00    -0.305 N 
ATOM     36  H   UNL     1      -5.269   2.960   2.004  0.00  0.00    +0.166 HD
ENDBRANCH  24  35
ENDBRANCH  23  27
ENDBRANCH   1  23
TORSDOF 7
