REMARK  Name = ZINC40220099
REMARK  15 active torsions:
REMARK  status: ('A' for Active; 'I' for Inactive)
REMARK    1  A    between atoms: C_1  and  C_2
REMARK    2  A    between atoms: C_2  and  C_3
REMARK    3  A    between atoms: C_2  and  C_4
REMARK    4  A    between atoms: C_9  and  O_10
REMARK    5  A    between atoms: O_10  and  C_11
REMARK    6  A    between atoms: C_11  and  C_12
REMARK    7  A    between atoms: C_12  and  N_13
REMARK    8  A    between atoms: C_21  and  C_22
REMARK    9  A    between atoms: C_22  and  C_23
REMARK   10  A    between atoms: C_23  and  C_24
REMARK   11  A    between atoms: C_24  and  C_25
REMARK   12  A    between atoms: C_25  and  C_26
REMARK   13  A    between atoms: C_26  and  N_27
REMARK   14  A    between atoms: C_28  and  C_30
REMARK   15  A    between atoms: C_31  and  C_32
REMARK                            x       y       z     vdW  Elec       q    Type
REMARK                         _______ _______ _______ _____ _____    ______ ____
ROOT
ATOM      1  N   UNL     1      -1.045  -3.550  -5.220  0.00  0.00    -0.324 N 
ATOM      2  C   UNL     1      -1.017  -4.930  -5.263  0.00  0.00    +0.069 A 
ATOM      3  C   UNL     1      -0.521  -5.914  -4.418  0.00  0.00    +0.028 A 
ATOM      4  C   UNL     1      -0.659  -7.242  -4.762  0.00  0.00    +0.002 A 
ATOM      5  C   UNL     1      -1.290  -7.601  -5.944  0.00  0.00    +0.002 A 
ATOM      6  C   UNL     1      -1.784  -6.646  -6.788  0.00  0.00    +0.030 A 
ATOM      7  C   UNL     1      -1.657  -5.294  -6.460  0.00  0.00    +0.089 A 
ATOM      8  N   UNL     1      -2.033  -4.142  -7.073  0.00  0.00    -0.232 NA
ATOM      9  C   UNL     1      -1.681  -3.123  -6.344  0.00  0.00    +0.111 A 
ENDROOT
BRANCH   1  10
ATOM     10  C   UNL     1      -0.497  -2.704  -4.157  0.00  0.00    +0.164 C 
BRANCH  10  11
ATOM     11  C   UNL     1      -1.570  -2.462  -3.094  0.00  0.00    +0.250 C 
BRANCH  11  12
ATOM     12  O   UNL     1      -1.035  -1.636  -2.057  0.00  0.00    -0.490 OA
BRANCH  12  18
ATOM     13  C   UNL     1      -1.412  -0.526   0.013  0.00  0.00    -0.003 A 
ATOM     14  C   UNL     1      -2.259  -0.205   1.056  0.00  0.00    +0.007 A 
ATOM     15  C   UNL     1      -3.556  -0.683   1.066  0.00  0.00    +0.001 A 
ATOM     16  C   UNL     1      -4.009  -1.484   0.034  0.00  0.00    +0.004 A 
ATOM     17  C   UNL     1      -3.166  -1.807  -1.012  0.00  0.00    +0.046 A 
ATOM     18  C   UNL     1      -1.865  -1.324  -1.027  0.00  0.00    +0.124 A 
BRANCH  13  20
ATOM     19  C   UNL     1      -0.019   1.526   0.010  0.00  0.00    +0.012 C 
ATOM     20  C   UNL     1       0.002  -0.004   0.002  0.00  0.00    +0.016 C 
ATOM     21  C   UNL     1       0.742  -0.511   1.242  0.00  0.00    +0.012 C 
ENDBRANCH  13  20
ENDBRANCH  12  18
ENDBRANCH  11  12
ENDBRANCH  10  11
ENDBRANCH   1  10
BRANCH   9  22
ATOM     22  C   UNL     1      -1.936  -1.681  -6.697  0.00  0.00    +0.074 C 
BRANCH  22  23
ATOM     23  C   UNL     1      -0.759  -1.138  -7.510  0.00  0.00    +0.008 C 
BRANCH  23  24
ATOM     24  C   UNL     1      -1.018   0.327  -7.867  0.00  0.00    +0.002 C 
BRANCH  24  25
ATOM     25  C   UNL     1       0.160   0.869  -8.680  0.00  0.00    +0.019 C 
BRANCH  25  26
ATOM     26  C   UNL     1      -0.100   2.334  -9.038  0.00  0.00    +0.104 C 
BRANCH  26  27
ATOM     27  N   UNL     1       1.028   2.853  -9.816  0.00  0.00    -0.312 N 
ATOM     28  C   UNL     1       1.019   4.131 -10.245  0.00  0.00    +0.237 C 
ATOM     29  O   UNL     1       0.075   4.854  -9.985  0.00  0.00    -0.271 OA
ATOM     30  H   UNL     1       1.780   2.277 -10.024  0.00  0.00    +0.149 HD
BRANCH  28  31
ATOM     31  C   UNL     1       2.146   4.650 -11.023  0.00  0.00    +0.068 C 
ATOM     32  C   UNL     1       2.137   5.928 -11.451  0.00  0.00    +0.013 C 
BRANCH  32  33
ATOM     33  C   UNL     1       3.270   6.450 -12.233  0.00  0.00    -0.025 A 
ATOM     34  C   UNL     1       4.354   5.621 -12.539  0.00  0.00    +0.008 A 
ATOM     35  C   UNL     1       5.411   6.117 -13.272  0.00  0.00    +0.001 A 
ATOM     36  C   UNL     1       5.401   7.432 -13.705  0.00  0.00    +0.000 A 
ATOM     37  C   UNL     1       4.332   8.258 -13.406  0.00  0.00    +0.001 A 
ATOM     38  C   UNL     1       3.264   7.775 -12.679  0.00  0.00    +0.008 A 
ENDBRANCH  32  33
ENDBRANCH  28  31
ENDBRANCH  26  27
ENDBRANCH  25  26
ENDBRANCH  24  25
ENDBRANCH  23  24
ENDBRANCH  22  23
ENDBRANCH   9  22
TORSDOF 13
