REMARK  Name = ZINC04087029
REMARK  16 active torsions:
REMARK  status: ('A' for Active; 'I' for Inactive)
REMARK    1  A    between atoms: CG1_1  and  CB_2
REMARK    2  A    between atoms: CB_2  and  CG2_4
REMARK    3  A    between atoms: CB_2  and  CA_5
REMARK    4  A    between atoms: CA_5  and  C_7
REMARK    5  A    between atoms: CA_5  and  N_9
REMARK    6  A    between atoms: C_10  and  C_12
REMARK    7  A    between atoms: C_16  and  C_20
REMARK    8  A    between atoms: C_20  and  N_21
REMARK    9  A    between atoms: C_22  and  C_24
REMARK   10  A    between atoms: C_24  and  C_26
REMARK   11  A    between atoms: C_24  and  N_27
REMARK   12  A    between atoms: C_28  and  O_30
REMARK   13  A    between atoms: O_30  and  C_31
REMARK   14  A    between atoms: C_31  and  C_32
REMARK   15  A    between atoms: C_31  and  C_33
REMARK   16  A    between atoms: C_31  and  C_34
REMARK                            x       y       z     vdW  Elec       q    Type
REMARK                         _______ _______ _______ _____ _____    ______ ____
ROOT
ATOM      1  C   UNK A   0       2.462   0.920  -0.017  0.00  0.00    +0.075 C 
ATOM      2  C   UNK A   0       2.543   0.048  -1.271  0.00  0.00    +0.013 C 
ATOM      3  C   UNK A   0       3.878  -0.699  -1.288  0.00  0.00    +0.006 C 
ATOM      4  C   UNK A   0       5.027   0.311  -1.294  0.00  0.00    +0.006 C 
ATOM      5  C   UNK A   0       4.946   1.183  -0.039  0.00  0.00    +0.006 C 
ATOM      6  C   UNK A   0       3.611   1.930  -0.022  0.00  0.00    +0.013 C 
ENDROOT
BRANCH   1   8
ATOM      7  N   VAL A   1      -0.011   0.966   0.007  0.00  0.00    -0.302 N 
ATOM      8  C   UNK A   0       1.147   1.655   0.000  0.00  0.00    +0.217 C 
ATOM      9  O   UNK A   0       1.130   2.868   0.007  0.00  0.00    -0.275 OA
ATOM     10  H   VAL A   1       0.002  -0.004   0.002  0.00  0.00    +0.150 HD
BRANCH   7  11
ATOM     11  CA  VAL A   1      -1.290   1.681   0.017  0.00  0.00    +0.189 C 
BRANCH  11  13
ATOM     12  CG1 VAL A   1      -3.015   2.794  -1.405  0.00  0.00    +0.009 C 
ATOM     13  CB  VAL A   1      -1.680   2.047  -1.416  0.00  0.00    +0.014 C 
ATOM     14  CG2 VAL A   1      -0.600   2.943  -2.026  0.00  0.00    +0.009 C 
ENDBRANCH  11  13
BRANCH  11  15
ATOM     15  C   VAL A   1      -2.354   0.799   0.618  0.00  0.00    +0.376 C 
ATOM     16  O   VAL A   1      -2.073  -0.313   0.999  0.00  0.00    -0.244 OA
ATOM     17  OXT VAL A   1      -3.614   1.249   0.730  0.00  0.00    -0.244 OA
ENDBRANCH  11  15
ENDBRANCH   7  11
ENDBRANCH   1   8
BRANCH   4  18
ATOM     18  C   UNK A   0       6.363  -0.436  -1.310  0.00  0.00    +0.107 C 
BRANCH  18  19
ATOM     19  N   UNK A   0       6.492  -1.177  -2.567  0.00  0.00    -0.314 N 
ATOM     20  C   UNK A   0       7.595  -1.913  -2.805  0.00  0.00    +0.233 C 
ATOM     21  O   UNK A   0       8.481  -1.962  -1.978  0.00  0.00    -0.274 OA
ATOM     22  H   UNK A   0       5.783  -1.137  -3.229  0.00  0.00    +0.149 HD
BRANCH  20  23
ATOM     23  C   UNK A   0       7.728  -2.676  -4.098  0.00  0.00    +0.159 C 
ATOM     24  C   UNK A   0       6.580  -3.680  -4.218  0.00  0.00    +0.038 C 
BRANCH  23  25
ATOM     25  N   UNK A   0       9.007  -3.391  -4.114  0.00  0.00    -0.270 N 
ATOM     26  C   UNK A   0       9.584  -3.713  -5.289  0.00  0.00    +0.401 C 
ATOM     27  O   UNK A   0       9.043  -3.411  -6.334  0.00  0.00    -0.226 OA
ATOM     28  H   UNK A   0       9.438  -3.632  -3.280  0.00  0.00    +0.153 HD
BRANCH  26  29
ATOM     29  O   UNK A   0      10.759  -4.371  -5.304  0.00  0.00    -0.445 OA
BRANCH  29  30
ATOM     30  C   UNK A   0      11.322  -4.686  -6.604  0.00  0.00    +0.107 C 
ATOM     31  C   UNK A   0      11.565  -3.390  -7.382  0.00  0.00    +0.055 C 
ATOM     32  C   UNK A   0      12.647  -5.427  -6.421  0.00  0.00    +0.055 C 
ATOM     33  C   UNK A   0      10.345  -5.571  -7.382  0.00  0.00    +0.055 C 
ENDBRANCH  29  30
ENDBRANCH  26  29
ENDBRANCH  23  25
ENDBRANCH  20  23
ENDBRANCH  18  19
ENDBRANCH   4  18
TORSDOF 10
