REMARK  Name = ZINC66699891
REMARK  8 active torsions:
REMARK  status: ('A' for Active; 'I' for Inactive)
REMARK    1  A    between atoms: C_1  and  C_2
REMARK    2  A    between atoms: C_2  and  C_3
REMARK    3  A    between atoms: C_3  and  N_4
REMARK    4  A    between atoms: N_4  and  C_5
REMARK    5  A    between atoms: C_5  and  C_6
REMARK    6  A    between atoms: C_11  and  O_12
REMARK    7  A    between atoms: N_15  and  C_16
REMARK    8  A    between atoms: C_16  and  C_17
REMARK                            x       y       z     vdW  Elec       q    Type
REMARK                         _______ _______ _______ _____ _____    ______ ____
ROOT
ATOM      1  N   UNL     1       0.738  -1.962  -1.265  0.00  0.00    -0.281 N 
ATOM      2  C   UNL     1       1.764  -2.626  -0.695  0.00  0.00    +0.303 C 
ATOM      3  O   UNL     1       1.780  -3.841  -0.701  0.00  0.00    -0.253 OA
ATOM      4  N   UNL     1       2.771  -1.941  -0.117  0.00  0.00    -0.295 N 
ATOM      5  H   UNL     1       2.757  -0.971  -0.112  0.00  0.00    +0.151 HD
ENDROOT
BRANCH   1   6
ATOM      6  C   UNL     1       0.718  -0.497  -1.257  0.00  0.00    +0.109 C 
BRANCH   6   8
ATOM      7  C   UNL     1      -0.019   1.526   0.010  0.00  0.00    +0.005 C 
ATOM      8  C   UNL     1       0.002  -0.004   0.002  0.00  0.00    +0.016 C 
ENDBRANCH   6   8
ENDBRANCH   1   6
BRANCH   1   9
ATOM      9  C   UNL     1      -0.357  -2.706  -1.893  0.00  0.00    +0.148 C 
BRANCH   9  10
ATOM     10  C   UNL     1      -0.033  -2.945  -3.345  0.00  0.00    +0.011 A 
ATOM     11  C   UNL     1      -0.588  -2.137  -4.319  0.00  0.00    +0.009 A 
ATOM     12  C   UNL     1      -0.292  -2.356  -5.652  0.00  0.00    +0.001 A 
ATOM     13  C   UNL     1       0.559  -3.383  -6.013  0.00  0.00    +0.004 A 
ATOM     14  C   UNL     1       1.116  -4.194  -5.044  0.00  0.00    +0.046 A 
ATOM     15  C   UNL     1       0.825  -3.973  -3.705  0.00  0.00    +0.122 A 
BRANCH  15  16
ATOM     16  O   UNL     1       1.377  -4.766  -2.749  0.00  0.00    -0.506 OA
ATOM     17  H   UNL     1       0.849  -5.548  -2.534  0.00  0.00    +0.292 HD
ENDBRANCH  15  16
ENDBRANCH   9  10
ENDBRANCH   1   9
BRANCH   4  18
ATOM     18  C   UNL     1       3.885  -2.662   0.503  0.00  0.00    +0.144 C 
BRANCH  18  19
ATOM     19  C   UNL     1       4.869  -1.672   1.072  0.00  0.00    +0.006 A 
ATOM     20  C   UNL     1       6.017  -1.357   0.369  0.00  0.00    +0.023 A 
ATOM     21  C   UNL     1       6.920  -0.449   0.891  0.00  0.00    +0.018 A 
ATOM     22  C   UNL     1       6.676   0.145   2.116  0.00  0.00    +0.018 A 
ATOM     23  C   UNL     1       5.529  -0.169   2.820  0.00  0.00    +0.040 A 
ATOM     24  C   UNL     1       4.621  -1.074   2.295  0.00  0.00    +0.128 A 
ATOM     25  F   UNL     1       3.496  -1.377   2.980  0.00  0.00    -0.205 F 
ATOM     26 BR   UNL     1       8.491  -0.019  -0.071  0.00  0.00    -0.050 Br
ENDBRANCH  18  19
ENDBRANCH   4  18
TORSDOF 7
