REMARK  Name = ZINC48545629
REMARK  6 active torsions:
REMARK  status: ('A' for Active; 'I' for Inactive)
REMARK    1  A    between atoms: C_5  and  C_6
REMARK    2  A    between atoms: N_8  and  C_9
REMARK    3  A    between atoms: C_9  and  C_10
REMARK    4  A    between atoms: N_12  and  C_13
REMARK    5  A    between atoms: C_13  and  C_14
REMARK    6  A    between atoms: C_13  and  C_17
REMARK                            x       y       z     vdW  Elec       q    Type
REMARK                         _______ _______ _______ _____ _____    ______ ____
ROOT
ATOM      1  C   UNL     1      -0.775  -5.106  -1.040  0.00  0.00    +0.231 C 
ATOM      2  O   UNL     1       0.316  -5.556  -0.759  0.00  0.00    -0.274 OA
ATOM      3  N   UNL     1      -1.891  -5.774  -0.687  0.00  0.00    -0.295 N 
ATOM      4  H   UNL     1      -2.763  -5.415  -0.912  0.00  0.00    +0.150 HD
ENDROOT
BRANCH   1   5
ATOM      5  C   UNL     1      -0.882  -3.801  -1.786  0.00  0.00    +0.200 C 
BRANCH   5   8
ATOM      6  C   UNL     1       0.612  -2.113  -2.712  0.00  0.00    +0.251 C 
ATOM      7  O   UNL     1      -0.367  -1.495  -3.087  0.00  0.00    -0.270 OA
ATOM      8  N   UNL     1       0.460  -3.279  -2.052  0.00  0.00    -0.302 N 
ATOM      9  H   UNL     1       1.240  -3.772  -1.753  0.00  0.00    +0.150 HD
BRANCH   6  14
ATOM     10  C   UNL     1       2.325  -0.426  -3.632  0.00  0.00    +0.022 A 
ATOM     11  C   UNL     1       3.676  -0.199  -3.728  0.00  0.00    +0.024 A 
ATOM     12  C   UNL     1       4.536  -1.103  -3.192  0.00  0.00    +0.056 A 
ATOM     13  S   UNL     1       3.537  -2.287  -2.542  0.00  0.00    -0.077 S 
ATOM     14  C   UNL     1       1.954  -1.591  -2.977  0.00  0.00    +0.075 A 
ATOM     15 BR   UNL     1       6.426  -1.043  -3.181  0.00  0.00    -0.043 Br
ENDBRANCH   6  14
ENDBRANCH   5   8
ENDBRANCH   1   5
BRANCH   3  16
ATOM     16  C   UNL     1      -1.787  -7.043   0.038  0.00  0.00    +0.245 C 
BRANCH  16  17
ATOM     17  C   UNL     1      -1.656  -6.769   1.514  0.00  0.00    +0.240 C 
ATOM     18  O   UNL     1      -2.102  -5.743   1.982  0.00  0.00    -0.273 OA
ATOM     19  N   UNL     1      -1.044  -7.664   2.314  0.00  0.00    -0.327 N 
ATOM     20  H   UNL     1      -0.624  -8.450   1.931  0.00  0.00    +0.145 HD
ATOM     21  H   UNL     1      -1.024  -7.523   3.274  0.00  0.00    +0.145 HD
ENDBRANCH  16  17
BRANCH  16  22
ATOM     22  C   UNL     1      -3.023  -7.868  -0.213  0.00  0.00    +0.240 C 
ATOM     23  O   UNL     1      -4.059  -7.325  -0.534  0.00  0.00    -0.273 OA
ATOM     24  N   UNL     1      -2.977  -9.208  -0.080  0.00  0.00    -0.327 N 
ATOM     25  H   UNL     1      -2.133  -9.649   0.107  0.00  0.00    +0.145 HD
ATOM     26  H   UNL     1      -3.787  -9.733  -0.172  0.00  0.00    +0.145 HD
ENDBRANCH  16  22
ENDBRANCH   3  16
TORSDOF 6
