REMARK  Name = ZINC04641954
REMARK  4 active torsions:
REMARK  status: ('A' for Active; 'I' for Inactive)
REMARK    1  A    between atoms: C_1  and  C_2
REMARK    2  A    between atoms: C_4  and  C_16
REMARK    3  A    between atoms: C_5  and  C_15
REMARK    4  A    between atoms: N_6  and  C_7
REMARK                            x       y       z     vdW  Elec       q    Type
REMARK                         _______ _______ _______ _____ _____    ______ ____
ROOT
ATOM      1  C   UNL     1      -0.266   1.423  -0.017  0.00  0.00    +0.064 C 
ATOM      2  C   UNL     1      -0.172  -0.081  -0.018  0.00  0.00    +0.022 A 
ATOM      3  C   UNL     1      -0.053  -0.853  -1.111  0.00  0.00    +0.031 A 
ATOM      4  C   UNL     1       0.004  -2.242  -0.635  0.00  0.00    -0.003 A 
ATOM      5  C   UNL     1      -0.089  -2.174   0.746  0.00  0.00    +0.028 A 
ATOM      6  N   UNL     1      -0.188  -0.876   1.095  0.00  0.00    -0.316 N 
ATOM      7  C   UNL     1      -0.077  -3.347   1.692  0.00  0.00    +0.064 C 
ENDROOT
BRANCH   4   8
ATOM      8  C   UNL     1       0.128  -3.413  -1.427  0.00  0.00    +0.026 C 
ATOM      9  C   UNL     1       0.587  -3.322  -2.725  0.00  0.00    +0.081 C 
ATOM     10  C   UNL     1       1.180  -2.066  -3.261  0.00  0.00    +0.152 C 
ATOM     11  N   UNL     1       1.872  -1.230  -2.532  0.00  0.00    -0.283 NA
ATOM     12  N   UNL     1       0.921  -1.865  -4.634  0.00  0.00    -0.152 N 
ATOM     13  C   UNL     1       0.635  -2.978  -5.396  0.00  0.00    +0.180 C 
ATOM     14  N   UNL     1       0.478  -4.210  -4.982  0.00  0.00    -0.152 NA
ATOM     15  C   UNL     1       0.523  -4.472  -3.658  0.00  0.00    +0.273 C 
ATOM     16  O   UNL     1       0.506  -5.619  -3.241  0.00  0.00    -0.268 OA
ATOM     17  S   UNL     1       0.521  -2.291  -7.027  0.00  0.00    -0.041 S 
ATOM     18  C   UNL     1       0.758  -0.578  -6.577  0.00  0.00    +0.179 C 
ATOM     19  N   UNL     1       0.940  -0.653  -5.290  0.00  0.00    -0.173 NA
ATOM     20  H   UNL     1       2.207  -0.408  -2.922  0.00  0.00    +0.188 HD
ENDBRANCH   4   8
BRANCH   6  21
ATOM     21  C   UNL     1      -0.294  -0.407   2.411  0.00  0.00    +0.066 A 
ATOM     22  C   UNL     1      -1.544  -0.255   2.997  0.00  0.00    +0.047 A 
ATOM     23  C   UNL     1      -1.645   0.207   4.295  0.00  0.00    +0.043 A 
ATOM     24  C   UNL     1      -0.503   0.518   5.012  0.00  0.00    +0.021 A 
ATOM     25  C   UNL     1       0.743   0.368   4.432  0.00  0.00    +0.023 A 
ATOM     26  C   UNL     1       0.851  -0.099   3.135  0.00  0.00    +0.065 A 
ATOM     27 CL   UNL     1       2.416  -0.294   2.410  0.00  0.00    -0.081 Cl
ATOM     28 CL   UNL     1      -3.208   0.397   5.028  0.00  0.00    -0.083 Cl
ENDBRANCH   6  21
TORSDOF 2
