REMARK  Name = ZINC05163246
REMARK  7 active torsions:
REMARK  status: ('A' for Active; 'I' for Inactive)
REMARK    1  A    between atoms: C_1  and  C_2
REMARK    2  A    between atoms: C_14  and  C_30
REMARK    3  A    between atoms: N_16  and  C_17
REMARK    4  A    between atoms: C_17  and  C_19
REMARK    5  A    between atoms: N_26  and  C_27
REMARK    6  A    between atoms: C_27  and  C_28
REMARK    7  A    between atoms: C_27  and  C_29
REMARK                            x       y       z     vdW  Elec       q    Type
REMARK                         _______ _______ _______ _____ _____    ______ ____
ROOT
ATOM      1  C   UNL     1     -10.667   3.113   0.001  0.00  0.00    +0.047 C 
ATOM      2  C   UNL     1     -10.713   1.611   0.107  0.00  0.00    -0.007 A 
ATOM      3  C   UNL     1     -11.911   0.967   0.192  0.00  0.00    +0.008 A 
ATOM      4  C   UNL     1     -11.940  -0.431   0.292  0.00  0.00    +0.019 A 
ATOM      5  C   UNL     1     -10.785  -1.133   0.304  0.00  0.00    +0.096 A 
ATOM      6  N   UNL     1      -9.582  -0.497   0.219  0.00  0.00    -0.267 N 
ATOM      7  C   UNL     1      -9.519   0.865   0.121  0.00  0.00    +0.145 A 
ATOM      8  N   UNL     1      -8.359   1.516   0.037  0.00  0.00    -0.211 NA
ATOM      9  C   UNL     1      -7.193   0.887   0.043  0.00  0.00    +0.150 A 
ATOM     10  C   UNL     1      -7.170  -0.525   0.142  0.00  0.00    +0.084 A 
ATOM     11  C   UNL     1      -8.447  -1.234   0.234  0.00  0.00    +0.268 A 
ATOM     12  O   UNL     1      -8.486  -2.448   0.321  0.00  0.00    -0.267 OA
ATOM     13  C   UNL     1      -5.952  -1.210   0.151  0.00  0.00    +0.039 A 
ATOM     14  C   UNL     1      -4.766  -0.484   0.053  0.00  0.00    +0.093 A 
ATOM     15  C   UNL     1      -4.816   0.928  -0.038  0.00  0.00    +0.146 A 
ATOM     16  N   UNL     1      -3.684   1.624  -0.124  0.00  0.00    -0.158 NA
ATOM     17  N   UNL     1      -6.016   1.585  -0.045  0.00  0.00    -0.308 N 
ENDROOT
BRANCH  17  18
ATOM     18  C   UNL     1      -6.043   3.046  -0.146  0.00  0.00    +0.084 C 
ATOM     19  C   UNL     1      -5.357   3.481  -1.442  0.00  0.00    +0.030 C 
ATOM     20  C   UNL     1      -7.495   3.530  -0.151  0.00  0.00    +0.030 C 
ENDBRANCH  17  18
BRANCH  16  21
ATOM     21  C   UNL     1      -2.511   1.020   0.092  0.00  0.00    +0.269 C 
ATOM     22  O   UNL     1      -2.272   0.526   1.180  0.00  0.00    -0.268 OA
BRANCH  21  23
ATOM     23  C   UNL     1      -1.502   0.952  -0.991  0.00  0.00    +0.041 A 
ATOM     24  C   UNL     1      -1.772   1.521  -2.236  0.00  0.00    +0.013 A 
ATOM     25  C   UNL     1      -0.832   1.449  -3.243  0.00  0.00    +0.004 A 
ATOM     26  C   UNL     1       0.380   0.820  -3.019  0.00  0.00    +0.038 A 
ATOM     27  C   UNL     1       0.656   0.257  -1.784  0.00  0.00    +0.124 A 
ATOM     28  C   UNL     1      -0.278   0.323  -0.768  0.00  0.00    +0.051 A 
ATOM     29  F   UNL     1       1.841  -0.357  -1.572  0.00  0.00    -0.205 F 
ENDBRANCH  21  23
ENDBRANCH  16  21
BRANCH  14  30
ATOM     30  C   UNL     1      -3.505  -1.162   0.053  0.00  0.00    +0.103 C 
ATOM     31  N   UNL     1      -2.504  -1.700   0.053  0.00  0.00    -0.191 NA
ENDBRANCH  14  30
TORSDOF 4
