REMARK  Name = ZINC43920871
REMARK  6 active torsions:
REMARK  status: ('A' for Active; 'I' for Inactive)
REMARK    1  A    between atoms: C_1  and  C_2
REMARK    2  A    between atoms: C_6  and  N_9
REMARK    3  A    between atoms: C_7  and  C_8
REMARK    4  A    between atoms: C_10  and  C_12
REMARK    5  A    between atoms: C_20  and  C_30
REMARK    6  A    between atoms: N_22  and  C_23
REMARK                            x       y       z     vdW  Elec       q    Type
REMARK                         _______ _______ _______ _____ _____    ______ ____
ROOT
ATOM      1  C   UNL     1      -0.125  -4.881   3.653  0.00  0.00    +0.100 A 
ATOM      2  C   UNL     1      -0.102  -6.260   3.669  0.00  0.00    +0.101 A 
ATOM      3  N   UNL     1      -0.185  -6.958   4.810  0.00  0.00    -0.345 N 
ATOM      4  H   UNL     1      -0.164  -7.927   4.764  0.00  0.00    +0.167 HD
ATOM      5  C   UNL     1      -0.299  -6.365   6.038  0.00  0.00    +0.146 A 
ATOM      6  C   UNL     1      -0.334  -4.976   6.153  0.00  0.00    +0.087 A 
ATOM      7  C   UNL     1      -0.240  -4.163   4.934  0.00  0.00    +0.205 A 
ATOM      8  O   UNL     1      -0.261  -2.945   4.980  0.00  0.00    -0.286 OA
ATOM      9  C   UNL     1      -0.455  -4.668   7.523  0.00  0.00    +0.073 A 
ATOM     10  N   UNL     1      -0.491  -5.787   8.191  0.00  0.00    -0.169 NA
ATOM     11  N   UNL     1      -0.397  -6.862   7.299  0.00  0.00    -0.216 N 
ATOM     12  C   UNL     1      -0.529  -3.283   8.114  0.00  0.00    +0.068 C 
ENDROOT
BRANCH  11  13
ATOM     13  C   UNL     1      -0.402  -8.220   7.648  0.00  0.00    +0.068 A 
ATOM     14  C   UNL     1      -1.003  -9.150   6.810  0.00  0.00    +0.030 A 
ATOM     15  C   UNL     1      -1.007 -10.488   7.155  0.00  0.00    +0.040 A 
ATOM     16  C   UNL     1      -0.414 -10.901   8.336  0.00  0.00    +0.124 A 
ATOM     17  C   UNL     1       0.185  -9.974   9.173  0.00  0.00    +0.040 A 
ATOM     18  C   UNL     1       0.197  -8.637   8.828  0.00  0.00    +0.030 A 
ATOM     19  F   UNL     1      -0.419 -12.209   8.672  0.00  0.00    -0.205 F 
ENDBRANCH  11  13
BRANCH   1  21
ATOM     20  N   UNL     1       0.064  -2.798   2.393  0.00  0.00    -0.281 N 
ATOM     21  C   UNL     1      -0.030  -4.143   2.385  0.00  0.00    +0.253 C 
ATOM     22  O   UNL     1      -0.038  -4.746   1.328  0.00  0.00    -0.270 OA
ATOM     23  H   UNL     1       0.138  -2.322   3.235  0.00  0.00    +0.155 HD
BRANCH  20  29
ATOM     24  C   UNL     1      -0.977   1.314  -0.091  0.00  0.00    +0.044 C 
ATOM     25  C   UNL     1      -0.443  -0.094  -0.046  0.00  0.00    -0.046 A 
ATOM     26  C   UNL     1       0.041  -0.687  -1.198  0.00  0.00    +0.004 A 
ATOM     27  C   UNL     1       0.533  -1.979  -1.161  0.00  0.00    +0.002 A 
ATOM     28  C   UNL     1       0.542  -2.682   0.028  0.00  0.00    +0.023 A 
ATOM     29  C   UNL     1       0.057  -2.090   1.187  0.00  0.00    +0.037 A 
ATOM     30  C   UNL     1      -0.431  -0.790   1.147  0.00  0.00    -0.026 A 
ATOM     31  C   UNL     1      -0.954  -0.141   2.403  0.00  0.00    +0.046 C 
ENDBRANCH  20  29
ENDBRANCH   1  21
TORSDOF 3
