REMARK  Name = ZINC18102470
REMARK  8 active torsions:
REMARK  status: ('A' for Active; 'I' for Inactive)
REMARK    1  A    between atoms: C_6  and  C_7
REMARK    2  A    between atoms: C_8  and  C_17
REMARK    3  A    between atoms: C_12  and  C_13
REMARK    4  A    between atoms: C_20  and  O_24
REMARK    5  A    between atoms: C_22  and  O_23
REMARK    6  A    between atoms: O_24  and  C_25
REMARK    7  A    between atoms: C_25  and  C_26
REMARK    8  A    between atoms: N_28  and  N_29
REMARK                            x       y       z     vdW  Elec       q    Type
REMARK                         _______ _______ _______ _____ _____    ______ ____
ROOT
ATOM      1  C   UNL     1      -1.138  -1.542  -0.230  0.00  0.00    +0.039 A 
ATOM      2  C   UNL     1      -1.756  -1.708   1.035  0.00  0.00    +0.104 A 
ATOM      3  N   UNL     1      -3.036  -1.442   0.895  0.00  0.00    -0.173 NA
ATOM      4  N   UNL     1      -3.274  -1.103  -0.443  0.00  0.00    -0.272 N 
ATOM      5  H   UNL     1      -4.133  -0.860  -0.822  0.00  0.00    +0.189 HD
ATOM      6  C   UNL     1      -2.105  -1.164  -1.112  0.00  0.00    +0.147 A 
ENDROOT
BRANCH   1  12
ATOM      7  C   UNL     1       1.098  -0.648  -0.878  0.00  0.00    +0.010 A 
ATOM      8  C   UNL     1       2.436  -0.836  -1.162  0.00  0.00    +0.016 A 
ATOM      9  C   UNL     1       2.985  -2.105  -1.107  0.00  0.00    +0.018 A 
ATOM     10  C   UNL     1       2.198  -3.192  -0.768  0.00  0.00    +0.016 A 
ATOM     11  C   UNL     1       0.859  -3.014  -0.483  0.00  0.00    +0.010 A 
ATOM     12  C   UNL     1       0.301  -1.739  -0.536  0.00  0.00    -0.014 A 
ATOM     13 BR   UNL     1       4.819  -2.355  -1.497  0.00  0.00    -0.050 Br
ENDBRANCH   1  12
BRANCH   2  14
ATOM     14  C   UNL     1      -1.080  -2.111   2.291  0.00  0.00    +0.044 A 
ATOM     15  C   UNL     1       0.107  -1.491   2.676  0.00  0.00    +0.017 A 
ATOM     16  C   UNL     1       0.734  -1.867   3.845  0.00  0.00    +0.046 A 
ATOM     17  C   UNL     1       0.185  -2.864   4.642  0.00  0.00    +0.125 A 
ATOM     18  C   UNL     1      -0.996  -3.487   4.266  0.00  0.00    +0.091 A 
ATOM     19  C   UNL     1      -1.635  -3.111   3.097  0.00  0.00    +0.130 A 
BRANCH  19  20
ATOM     20  O   UNL     1      -2.795  -3.715   2.730  0.00  0.00    -0.506 OA
ATOM     21  H   UNL     1      -2.673  -4.502   2.181  0.00  0.00    +0.292 HD
ENDBRANCH  19  20
BRANCH  17  22
ATOM     22  O   UNL     1       0.808  -3.231   5.793  0.00  0.00    -0.483 OA
BRANCH  22  23
ATOM     23  C   UNL     1       2.020  -2.549   6.120  0.00  0.00    +0.325 C 
BRANCH  23  24
ATOM     24  C   UNL     1       2.563  -3.085   7.420  0.00  0.00    +0.264 C 
ATOM     25  O   UNL     1       1.969  -3.964   8.008  0.00  0.00    -0.271 OA
ATOM     26  N   UNL     1       3.707  -2.587   7.929  0.00  0.00    -0.251 N 
ATOM     27  H   UNL     1       4.182  -1.885   7.458  0.00  0.00    +0.169 HD
BRANCH  26  28
ATOM     28  N   UNL     1       4.199  -3.073   9.107  0.00  0.00    -0.254 NA
ATOM     29  H   UNL     1       5.057  -2.607   9.360  0.00  0.00    +0.140 HD
ATOM     30  H   UNL     1       3.514  -2.996   9.844  0.00  0.00    +0.140 HD
ENDBRANCH  26  28
ENDBRANCH  23  24
ENDBRANCH  22  23
ENDBRANCH  17  22
ENDBRANCH   2  14
BRANCH   6  31
ATOM     31  C   UNL     1      -1.905  -0.868  -2.576  0.00  0.00    +0.434 C 
ATOM     32  F   UNL     1      -3.129  -0.512  -3.152  0.00  0.00    -0.164 F 
ATOM     33  F   UNL     1      -0.997   0.187  -2.719  0.00  0.00    -0.164 F 
ATOM     34  F   UNL     1      -1.402  -2.006  -3.217  0.00  0.00    -0.164 F 
ENDBRANCH   6  31
TORSDOF 8
