REMARK  Name = ZINC01745731
REMARK  4 active torsions:
REMARK  status: ('A' for Active; 'I' for Inactive)
REMARK    1  A    between atoms: C_6  and  C_7
REMARK    2  A    between atoms: C_7  and  C_9
REMARK    3  A    between atoms: C_9  and  S_10
REMARK    4  A    between atoms: S_10  and  C_11
REMARK                            x       y       z     vdW  Elec       q    Type
REMARK                         _______ _______ _______ _____ _____    ______ ____
ROOT
ATOM      1  C   UNL     1       3.776   6.730  -0.092  0.00  0.00    +0.115 A 
ATOM      2  C   UNL     1       4.013   8.098  -0.072  0.00  0.00    +0.072 A 
ATOM      3  C   UNL     1       5.319   8.600  -0.015  0.00  0.00    +0.092 A 
ATOM      4  C   UNL     1       5.444  10.069   0.000  0.00  0.00    +0.035 A 
ATOM      5  C   UNL     1       6.642  10.830   0.053  0.00  0.00    -0.029 A 
ATOM      6  C   UNL     1       6.570  12.185   0.055  0.00  0.00    -0.005 A 
ATOM      7  C   UNL     1       5.319  12.816   0.014  0.00  0.00    +0.103 A 
ATOM      8  C   UNL     1       4.239  10.789  -0.042  0.00  0.00    +0.089 A 
ATOM      9  S   UNL     1       2.981   9.537  -0.102  0.00  0.00    -0.066 S 
ATOM     10  N   UNL     1       5.248  14.202   0.023  0.00  0.00    -0.312 N 
ATOM     11  C   UNL     1       4.524  14.686   1.208  0.00  0.00    +0.134 C 
ATOM     12  C   UNL     1       4.522  16.216   1.208  0.00  0.00    +0.178 C 
ATOM     13  O   UNL     1       3.942  16.688  -0.010  0.00  0.00    -0.377 OA
ATOM     14  C   UNL     1       4.622  16.237  -1.185  0.00  0.00    +0.178 C 
ATOM     15  C   UNL     1       4.625  14.706  -1.210  0.00  0.00    +0.134 C 
ATOM     16  C   UNL     1       7.796  13.061   0.090  0.00  0.00    +0.039 C 
ATOM     17  C   UNL     1       9.009  12.266   0.568  0.00  0.00    +0.005 C 
ATOM     18  C   UNL     1       9.108  10.983  -0.267  0.00  0.00    +0.005 C 
ATOM     19  C   UNL     1       7.940  10.073   0.112  0.00  0.00    +0.036 C 
ATOM     20  N   UNL     1       6.309   7.679   0.021  0.00  0.00    -0.234 NA
ATOM     21  C   UNL     1       6.048   6.396   0.001  0.00  0.00    +0.223 A 
ATOM     22  N   UNL     1       4.823   5.905  -0.050  0.00  0.00    -0.228 NA
ATOM     23  N   UNL     1       4.138  12.140  -0.035  0.00  0.00    -0.337 N 
ATOM     24  H   UNL     1       3.232  12.622  -0.064  0.00  0.00    +0.168 HD
ENDROOT
BRANCH   1  25
ATOM     25  S   UNL     1       2.132   6.099  -0.164  0.00  0.00    -0.097 S 
BRANCH  25  26
ATOM     26  C   UNL     1       2.477   4.322  -0.163  0.00  0.00    +0.155 C 
BRANCH  26  27
ATOM     27  C   UNL     1       1.179   3.559  -0.222  0.00  0.00    +0.173 C 
ATOM     28  O   UNL     1       0.124   4.157  -0.260  0.00  0.00    -0.291 OA
BRANCH  27  34
ATOM     29  C   UNL     1      -0.013   1.376  -0.287  0.00  0.00    +0.013 A 
ATOM     30  C   UNL     1       0.006  -0.002  -0.297  0.00  0.00    +0.020 A 
ATOM     31  C   UNL     1       1.212  -0.682  -0.254  0.00  0.00    +0.041 A 
ATOM     32  C   UNL     1       2.408   0.017  -0.200  0.00  0.00    +0.020 A 
ATOM     33  C   UNL     1       2.405   1.395  -0.188  0.00  0.00    +0.013 A 
ATOM     34  C   UNL     1       1.190   2.088  -0.233  0.00  0.00    +0.018 A 
ATOM     35 CL   UNL     1       1.226  -2.418  -0.266  0.00  0.00    -0.084 Cl
ENDBRANCH  27  34
ENDBRANCH  26  27
ENDBRANCH  25  26
ENDBRANCH   1  25
TORSDOF 4
