REMARK  Name = ZINC63228869
REMARK  6 active torsions:
REMARK  status: ('A' for Active; 'I' for Inactive)
REMARK    1  A    between atoms: C_1  and  C_2
REMARK    2  A    between atoms: C_11  and  C_18
REMARK    3  A    between atoms: C_18  and  N_19
REMARK    4  A    between atoms: N_25  and  C_26
REMARK    5  A    between atoms: C_26  and  C_27
REMARK    6  A    between atoms: C_27  and  C_28
REMARK                            x       y       z     vdW  Elec       q    Type
REMARK                         _______ _______ _______ _____ _____    ______ ____
ROOT
ATOM      1  C   UNL     1      -0.019   1.526   0.010  0.00  0.00    +0.007 C 
ATOM      2  C   UNL     1       0.002  -0.004   0.002  0.00  0.00    -0.013 C 
ATOM      3  C   UNL     1       0.712  -0.494  -1.260  0.00  0.00    +0.004 C 
ATOM      4  C   UNL     1       0.665  -2.021  -1.263  0.00  0.00    +0.010 C 
ATOM      5  C   UNL     1       1.509  -2.579  -0.116  0.00  0.00    +0.038 C 
ATOM      6  C   UNL     1       1.258  -4.064  -0.055  0.00  0.00    +0.028 A 
ATOM      7  C   UNL     1       1.867  -5.040  -0.860  0.00  0.00    +0.127 A 
ATOM      8  N   UNL     1       1.475  -6.301  -0.657  0.00  0.00    -0.216 NA
ATOM      9  C   UNL     1       0.571  -6.645   0.233  0.00  0.00    +0.146 A 
ATOM     10  N   UNL     1      -0.029  -5.766   1.030  0.00  0.00    -0.224 NA
ATOM     11  C   UNL     1       0.322  -4.499   0.895  0.00  0.00    +0.106 A 
ATOM     12  S   UNL     1      -0.172  -3.061   1.801  0.00  0.00    -0.101 S 
ATOM     13  C   UNL     1       1.145  -1.938   1.225  0.00  0.00    +0.061 C 
ATOM     14  C   UNL     1       0.729  -0.503   1.233  0.00  0.00    +0.018 C 
ATOM     15  N   UNL     1       2.822  -4.713  -1.811  0.00  0.00    -0.328 N 
ATOM     16  H   UNL     1       3.086  -3.788  -1.935  0.00  0.00    +0.147 HD
ENDROOT
BRANCH   9  17
ATOM     17  C   UNL     1       0.198  -8.100   0.356  0.00  0.00    +0.160 C 
BRANCH  17  18
ATOM     18  N   UNL     1       1.074  -8.748   1.341  0.00  0.00    -0.291 NA
ATOM     19  C   UNL     1       2.464  -8.789   0.864  0.00  0.00    +0.113 C 
ATOM     20  C   UNL     1       3.350  -9.417   1.943  0.00  0.00    +0.175 C 
ATOM     21  O   UNL     1       2.849 -10.717   2.267  0.00  0.00    -0.377 OA
ATOM     22  C   UNL     1       1.498 -10.714   2.736  0.00  0.00    +0.175 C 
ATOM     23  C   UNL     1       0.594 -10.099   1.665  0.00  0.00    +0.113 C 
ENDBRANCH  17  18
ENDBRANCH   9  17
BRANCH  15  24
ATOM     24  C   UNL     1       3.431  -5.766  -2.628  0.00  0.00    +0.107 C 
BRANCH  24  25
ATOM     25  C   UNL     1       4.444  -5.142  -3.591  0.00  0.00    +0.052 C 
BRANCH  25  26
ATOM     26  C   UNL     1       5.070  -6.224  -4.432  0.00  0.00    -0.040 C 
ATOM     27  C   UNL     1       4.688  -6.616  -5.669  0.00  0.00    -0.001 A 
ATOM     28  C   UNL     1       3.616  -6.171  -6.566  0.00  0.00    +0.010 A 
ATOM     29  C   UNL     1       3.478  -6.769  -7.771  0.00  0.00    +0.001 A 
ATOM     30  C   UNL     1       4.331  -7.802  -8.183  0.00  0.00    +0.002 A 
ATOM     31  C   UNL     1       5.339  -8.266  -7.414  0.00  0.00    +0.026 A 
ATOM     32  C   UNL     1       5.576  -7.708  -6.127  0.00  0.00    +0.043 A 
ATOM     33  N   UNL     1       6.472  -7.980  -5.210  0.00  0.00    -0.380 N 
ATOM     34  C   UNL     1       6.258  -7.086  -4.066  0.00  0.00    +0.144 C 
ATOM     35  H   UNL     1       7.164  -8.657  -5.277  0.00  0.00    +0.160 HD
ENDBRANCH  25  26
ENDBRANCH  24  25
ENDBRANCH  15  24
TORSDOF 5
