REMARK  Name = ZINC20280028
REMARK  6 active torsions:
REMARK  status: ('A' for Active; 'I' for Inactive)
REMARK    1  A    between atoms: C_1  and  C_2
REMARK    2  A    between atoms: C_4  and  N_19
REMARK    3  A    between atoms: C_8  and  C_12
REMARK    4  A    between atoms: C_9  and  C_11
REMARK    5  A    between atoms: C_22  and  C_25
REMARK    6  A    between atoms: N_30  and  C_33
REMARK                            x       y       z     vdW  Elec       q    Type
REMARK                         _______ _______ _______ _____ _____    ______ ____
ROOT
ATOM      1  C   UNL     1       0.520   0.069   0.083  0.00  0.00    +0.066 C 
ATOM      2  C   UNL     1      -0.056   1.061   1.061  0.00  0.00    +0.044 A 
ATOM      3  C   UNL     1       0.589   1.293   2.275  0.00  0.00    +0.066 A 
ATOM      4  C   UNL     1       0.051   2.204   3.160  0.00  0.00    +0.127 A 
ATOM      5  N   UNL     1      -1.104   2.855   2.816  0.00  0.00    -0.200 N 
ATOM      6  C   UNL     1      -1.698   2.592   1.610  0.00  0.00    +0.166 A 
ATOM      7  N   UNL     1      -1.161   1.709   0.761  0.00  0.00    -0.232 NA
ATOM      8  C   UNL     1      -2.843   3.395   1.540  0.00  0.00    +0.049 A 
ATOM      9  C   UNL     1      -2.905   4.133   2.728  0.00  0.00    +0.070 A 
ATOM     10  N   UNL     1      -1.879   3.813   3.479  0.00  0.00    -0.168 NA
ATOM     11  C   UNL     1      -3.976   5.130   3.086  0.00  0.00    +0.068 C 
ENDROOT
BRANCH   8  12
ATOM     12  C   UNL     1      -3.808   3.453   0.418  0.00  0.00    -0.012 A 
ATOM     13  C   UNL     1      -3.405   3.934  -0.828  0.00  0.00    +0.010 A 
ATOM     14  C   UNL     1      -4.307   3.982  -1.871  0.00  0.00    +0.020 A 
ATOM     15  C   UNL     1      -5.613   3.563  -1.679  0.00  0.00    +0.041 A 
ATOM     16  C   UNL     1      -6.020   3.089  -0.444  0.00  0.00    +0.020 A 
ATOM     17  C   UNL     1      -5.125   3.033   0.605  0.00  0.00    +0.010 A 
ATOM     18 CL   UNL     1      -6.745   3.631  -2.994  0.00  0.00    -0.084 Cl
ENDBRANCH   8  12
BRANCH   4  19
ATOM     19  N   UNL     1       0.665   2.455   4.368  0.00  0.00    -0.315 N 
ATOM     20  C   UNL     1      -0.262   2.232   5.485  0.00  0.00    +0.107 C 
ATOM     21  C   UNL     1       0.405   2.659   6.795  0.00  0.00    +0.032 C 
ATOM     22  C   UNL     1       1.685   1.843   6.999  0.00  0.00    +0.078 C 
ATOM     23  C   UNL     1       2.612   2.055   5.799  0.00  0.00    +0.032 C 
ATOM     24  C   UNL     1       1.881   1.646   4.518  0.00  0.00    +0.107 C 
BRANCH  22  25
ATOM     25  C   UNL     1       2.378   2.299   8.257  0.00  0.00    +0.219 C 
ATOM     26  O   UNL     1       3.291   3.095   8.193  0.00  0.00    -0.275 OA
ATOM     27  N   UNL     1       1.984   1.821   9.454  0.00  0.00    -0.299 N 
ATOM     28  C   UNL     1       0.943   0.787   9.549  0.00  0.00    +0.123 C 
ATOM     29  C   UNL     1       1.476  -0.354  10.431  0.00  0.00    +0.103 C 
ATOM     30  N   UNL     1       1.922   0.197  11.717  0.00  0.00    -0.302 NA
ATOM     31  C   UNL     1       3.043   1.129  11.538  0.00  0.00    +0.103 C 
ATOM     32  C   UNL     1       2.579   2.326  10.701  0.00  0.00    +0.123 C 
ATOM     33  C   UNL     1       2.275  -0.877  12.655  0.00  0.00    +0.105 C 
ENDBRANCH  22  25
ENDBRANCH   4  19
TORSDOF 3
