REMARK  Name = ZINC04976785
REMARK  10 active torsions:
REMARK  status: ('A' for Active; 'I' for Inactive)
REMARK    1  A    between atoms: C_3  and  C_6
REMARK    2  A    between atoms: N_8  and  C_9
REMARK    3  A    between atoms: C_9  and  C_18
REMARK    4  A    between atoms: C_10  and  C_11
REMARK    5  A    between atoms: N_20  and  C_21
REMARK    6  A    between atoms: C_21  and  C_22
REMARK    7  A    between atoms: C_22  and  C_23
REMARK    8  A    between atoms: C_23  and  C_24
REMARK    9  A    between atoms: C_24  and  C_25
REMARK   10  A    between atoms: C_25  and  C_26
REMARK                            x       y       z     vdW  Elec       q    Type
REMARK                         _______ _______ _______ _____ _____    ______ ____
ROOT
ATOM      1  C   UNL     1      -3.706   1.628   0.128  0.00  0.00    +0.097 C 
ATOM      2  C   UNL     1      -2.610   0.848  -0.019  0.00  0.00    +0.036 C 
ENDROOT
BRANCH   2   3
ATOM      3  C   UNL     1      -1.268   1.447   0.037  0.00  0.00    -0.023 A 
ATOM      4  C   UNL     1      -0.181   0.794  -0.555  0.00  0.00    +0.009 A 
ATOM      5  C   UNL     1       1.073   1.364  -0.502  0.00  0.00    +0.020 A 
ATOM      6  C   UNL     1       1.259   2.578   0.139  0.00  0.00    +0.041 A 
ATOM      7  C   UNL     1       0.189   3.227   0.733  0.00  0.00    +0.020 A 
ATOM      8  C   UNL     1      -1.070   2.669   0.689  0.00  0.00    +0.009 A 
ATOM      9 CL   UNL     1       2.842   3.289   0.199  0.00  0.00    -0.084 Cl
ENDBRANCH   2   3
BRANCH   1  12
ATOM     10  C   UNL     1      -4.032   3.707   1.236  0.00  0.00    +0.284 C 
ATOM     11  O   UNL     1      -4.482   3.111   2.197  0.00  0.00    -0.266 OA
ATOM     12  N   UNL     1      -3.573   3.019   0.172  0.00  0.00    -0.275 N 
ATOM     13  H   UNL     1      -3.149   3.489  -0.563  0.00  0.00    +0.155 HD
BRANCH  10  16
ATOM     14  C   UNL     1      -4.194   7.307   1.819  0.00  0.00    +0.042 A 
ATOM     15  C   UNL     1      -4.422   5.988   2.242  0.00  0.00    +0.054 A 
ATOM     16  C   UNL     1      -3.991   5.173   1.235  0.00  0.00    +0.189 A 
ATOM     17  O   UNL     1      -3.516   5.952   0.242  0.00  0.00    -0.458 OA
ATOM     18  C   UNL     1      -3.642   7.240   0.588  0.00  0.00    +0.196 A 
ENDBRANCH  10  16
ENDBRANCH   1  12
BRANCH   1  19
ATOM     19  C   UNL     1      -5.036   1.013   0.242  0.00  0.00    +0.258 C 
ATOM     20  O   UNL     1      -5.159  -0.193   0.144  0.00  0.00    -0.269 OA
ATOM     21  N   UNL     1      -6.120   1.786   0.455  0.00  0.00    -0.310 N 
ATOM     22  H   UNL     1      -6.033   2.752   0.460  0.00  0.00    +0.149 HD
BRANCH  21  23
ATOM     23  C   UNL     1      -7.428   1.167   0.680  0.00  0.00    +0.104 C 
BRANCH  23  24
ATOM     24  C   UNL     1      -8.479   2.258   0.894  0.00  0.00    +0.019 C 
BRANCH  24  25
ATOM     25  C   UNL     1      -9.845   1.611   1.129  0.00  0.00    +0.002 C 
BRANCH  25  26
ATOM     26  C   UNL     1     -10.896   2.702   1.343  0.00  0.00    +0.011 C 
BRANCH  26  27
ATOM     27  C   UNL     1     -12.263   2.055   1.577  0.00  0.00    +0.125 C 
BRANCH  27  28
ATOM     28  C   UNL     1     -13.298   3.130   1.788  0.00  0.00    +0.356 C 
ATOM     29  O   UNL     1     -12.976   4.294   1.754  0.00  0.00    -0.246 OA
ATOM     30  O   UNL     1     -14.578   2.795   2.014  0.00  0.00    -0.246 OA
ENDBRANCH  27  28
ENDBRANCH  26  27
ENDBRANCH  25  26
ENDBRANCH  24  25
ENDBRANCH  23  24
ENDBRANCH  21  23
ENDBRANCH   1  19
TORSDOF 10
