REMARK  Name = ZINC19691548
REMARK  8 active torsions:
REMARK  status: ('A' for Active; 'I' for Inactive)
REMARK    1  A    between atoms: C_1  and  C_2
REMARK    2  A    between atoms: C_2  and  C_3
REMARK    3  A    between atoms: C_3  and  N_4
REMARK    4  A    between atoms: C_6  and  C_18
REMARK    5  A    between atoms: N_9  and  S_10
REMARK    6  A    between atoms: S_10  and  C_13
REMARK    7  A    between atoms: C_22  and  O_30
REMARK    8  A    between atoms: C_23  and  O_29
REMARK                            x       y       z     vdW  Elec       q    Type
REMARK                         _______ _______ _______ _____ _____    ______ ____
ROOT
ATOM      1  N   UNL     1       7.371   1.101   2.056  0.00  0.00    -0.309 N 
ATOM      2  C   UNL     1       6.676   1.554   0.973  0.00  0.00    +0.120 A 
ATOM      3  C   UNL     1       5.943   2.665   1.063  0.00  0.00    +0.019 A 
ATOM      4  S   UNL     1       6.215   3.158   2.758  0.00  0.00    -0.053 S 
ATOM      5  C   UNL     1       7.295   1.816   3.232  0.00  0.00    +0.195 A 
ATOM      6  N   UNL     1       7.868   1.579   4.386  0.00  0.00    -0.103 NA
ATOM      7 CL   UNL     1       6.745   0.682  -0.526  0.00  0.00    -0.063 Cl
ENDROOT
BRANCH   3   8
ATOM      8  C   UNL     1       5.107   3.336   0.005  0.00  0.00    +0.000 C 
ATOM      9  C   UNL     1       5.912   4.431  -0.646  0.00  0.00    -0.050 A 
ATOM     10  C   UNL     1       7.243   4.177  -0.950  0.00  0.00    +0.051 A 
ATOM     11  C   UNL     1       8.019   5.148  -1.557  0.00  0.00    +0.158 A 
ATOM     12  C   UNL     1       7.464   6.389  -1.854  0.00  0.00    +0.158 A 
ATOM     13  C   UNL     1       6.138   6.638  -1.548  0.00  0.00    +0.053 A 
ATOM     14  C   UNL     1       5.363   5.660  -0.943  0.00  0.00    -0.044 A 
ATOM     15  C   UNL     1       3.926   5.982  -0.620  0.00  0.00    +0.016 C 
ATOM     16  C   UNL     1       3.148   4.693  -0.355  0.00  0.00    -0.077 C 
ATOM     17  N   UNL     1       3.897   3.888   0.622  0.00  0.00    +0.387 N 
ATOM     18  H   UNL     1       3.258   3.065   0.975  0.00  0.00    -0.085 HD
ATOM     19  H   UNL     1       4.177   4.525   1.474  0.00  0.00    -0.085 HD
BRANCH  12  20
ATOM     20  O   UNL     1       8.220   7.351  -2.447  0.00  0.00    -0.503 OA
ATOM     21  H   UNL     1       7.779   8.331  -2.681  0.00  0.00    +0.292 HD
ENDBRANCH  12  20
BRANCH  11  22
ATOM     22  O   UNL     1       9.321   4.892  -1.857  0.00  0.00    -0.503 OA
ATOM     23  H   UNL     1       9.936   5.665  -2.340  0.00  0.00    +0.292 HD
ENDBRANCH  11  22
ENDBRANCH   3   8
BRANCH   6  24
ATOM     24  S   UNL     1       7.615   2.604   5.662  0.00  0.00    +0.107 S 
ATOM     25  O   UNL     1       8.211   3.845   5.311  0.00  0.00    -0.146 OA
ATOM     26  O   UNL     1       6.241   2.489   6.009  0.00  0.00    -0.146 OA
BRANCH  24  27
ATOM     27  C   UNL     1       8.533   1.973   7.027  0.00  0.00    +0.150 A 
ATOM     28  C   UNL     1       9.812   2.236   7.391  0.00  0.00    +0.037 A 
ATOM     29  C   UNL     1      10.329   1.622   8.515  0.00  0.00    +0.010 A 
ATOM     30  C   UNL     1       9.546   0.766   9.216  0.00  0.00    +0.047 A 
ATOM     31  S   UNL     1       8.022   0.815   8.287  0.00  0.00    -0.076 S 
ENDBRANCH  24  27
ENDBRANCH   6  24
BRANCH   1  32
ATOM     32  C   UNL     1       8.180  -0.117   1.971  0.00  0.00    +0.125 C 
BRANCH  32  34
ATOM     33  C   UNL     1      10.206  -1.286   2.848  0.00  0.00    +0.005 C 
ATOM     34  C   UNL     1       9.362  -0.013   2.937  0.00  0.00    +0.018 C 
ENDBRANCH  32  34
ENDBRANCH   1  32
TORSDOF 7
