REMARK  Name = ZINC33560352
REMARK  8 active torsions:
REMARK  status: ('A' for Active; 'I' for Inactive)
REMARK    1  A    between atoms: C_1  and  C_2
REMARK    2  A    between atoms: C_2  and  N_3
REMARK    3  A    between atoms: N_3  and  C_4
REMARK    4  A    between atoms: C_4  and  C_5
REMARK    5  A    between atoms: C_6  and  C_8
REMARK    6  A    between atoms: C_8  and  N_9
REMARK    7  A    between atoms: N_11  and  C_31
REMARK    8  A    between atoms: N_22  and  C_23
REMARK                            x       y       z     vdW  Elec       q    Type
REMARK                         _______ _______ _______ _____ _____    ______ ____
ROOT
ATOM      1  N   UNL     1       3.284   4.612   1.680  0.00  0.00    -0.275 N 
ATOM      2  C   UNL     1       2.398   3.442   1.736  0.00  0.00    +0.217 C 
ATOM      3  N   UNL     1       1.584   3.482   0.498  0.00  0.00    -0.300 N 
ATOM      4  C   UNL     1       1.557   4.921   0.161  0.00  0.00    +0.115 C 
ATOM      5  C   UNL     1       2.811   5.495   0.775  0.00  0.00    +0.241 C 
ATOM      6  O   UNL     1       3.309   6.566   0.501  0.00  0.00    -0.273 OA
ATOM      7  C   UNL     1       0.320   5.576   0.767  0.00  0.00    +0.054 C 
ATOM      8  C   UNL     1       0.331   7.076   0.449  0.00  0.00    +0.112 C 
ATOM      9  N   UNL     1       0.471   7.250  -1.003  0.00  0.00    -0.285 N 
ATOM     10  C   UNL     1       1.596   6.598  -1.688  0.00  0.00    +0.112 C 
ATOM     11  C   UNL     1       1.576   5.102  -1.354  0.00  0.00    +0.054 C 
ATOM     12  C   UNL     1      -0.415   7.993  -1.694  0.00  0.00    +0.306 C 
ATOM     13  O   UNL     1      -0.377   8.011  -2.909  0.00  0.00    -0.252 OA
ATOM     14  N   UNL     1      -1.344   8.717  -1.038  0.00  0.00    -0.269 N 
ATOM     15  H   UNL     1      -1.297   8.809   0.057  0.00  0.00    +0.156 HD
ENDROOT
BRANCH  14  16
ATOM     16  C   UNL     1      -2.369   9.352  -1.751  0.00  0.00    +0.036 A 
ATOM     17  C   UNL     1      -2.185   9.681  -3.087  0.00  0.00    +0.026 A 
ATOM     18  C   UNL     1      -3.199  10.303  -3.790  0.00  0.00    +0.041 A 
ATOM     19  C   UNL     1      -4.394  10.607  -3.161  0.00  0.00    +0.142 A 
ATOM     20  C   UNL     1      -4.577  10.284  -1.826  0.00  0.00    +0.078 A 
ATOM     21  C   UNL     1      -3.567   9.658  -1.121  0.00  0.00    +0.046 A 
ATOM     22 CL   UNL     1      -6.077  10.667  -1.039  0.00  0.00    -0.081 Cl
ATOM     23  F   UNL     1      -5.382  11.220  -3.849  0.00  0.00    -0.204 F 
ENDBRANCH  14  16
BRANCH   3  24
ATOM     24  C   UNL     1       0.294   2.998   0.731  0.00  0.00    +0.032 A 
ATOM     25  C   UNL     1      -0.638   2.979  -0.298  0.00  0.00    +0.023 A 
ATOM     26  C   UNL     1      -1.913   2.501  -0.063  0.00  0.00    +0.002 A 
ATOM     27  C   UNL     1      -2.262   2.047   1.195  0.00  0.00    +0.000 A 
ATOM     28  C   UNL     1      -1.334   2.059   2.220  0.00  0.00    +0.002 A 
ATOM     29  C   UNL     1      -0.058   2.536   1.993  0.00  0.00    +0.023 A 
ENDBRANCH   3  24
BRANCH   1  30
ATOM     30  C   UNL     1       4.495   4.793   2.483  0.00  0.00    +0.205 C 
BRANCH  30  32
ATOM     31  N   UNL     1       5.107   5.759   4.676  0.00  0.00    -0.301 N 
ATOM     32  C   UNL     1       4.144   5.486   3.774  0.00  0.00    +0.233 C 
ATOM     33  O   UNL     1       2.994   5.798   4.001  0.00  0.00    -0.274 OA
BRANCH  31  35
ATOM     34  C   UNL     1       7.203   6.531   3.681  0.00  0.00    +0.024 C 
ATOM     35  C   UNL     1       6.495   5.382   4.402  0.00  0.00    +0.104 C 
ENDBRANCH  31  35
BRANCH  31  36
ATOM     36  C   UNL     1       4.764   6.433   5.931  0.00  0.00    +0.104 C 
ATOM     37  C   UNL     1       4.421   5.388   6.995  0.00  0.00    +0.024 C 
ENDBRANCH  31  36
ENDBRANCH  30  32
ENDBRANCH   1  30
TORSDOF 6
