REMARK  Name = ZINC21276271
REMARK  10 active torsions:
REMARK  status: ('A' for Active; 'I' for Inactive)
REMARK    1  A    between atoms: C_1  and  C_2
REMARK    2  A    between atoms: C_2  and  C_3
REMARK    3  A    between atoms: C_4  and  C_30
REMARK    4  A    between atoms: N_10  and  C_23
REMARK    5  A    between atoms: C_11  and  S_13
REMARK    6  A    between atoms: S_13  and  C_14
REMARK    7  A    between atoms: C_14  and  C_15
REMARK    8  A    between atoms: N_17  and  C_18
REMARK    9  A    between atoms: C_18  and  C_19
REMARK   10  A    between atoms: C_23  and  C_24
REMARK                            x       y       z     vdW  Elec       q    Type
REMARK                         _______ _______ _______ _____ _____    ______ ____
ROOT
ATOM      1  C   UNL     1       2.262   0.838  -0.015  0.00  0.00    -0.023 A 
ATOM      2  C   UNL     1       1.735   2.071  -0.003  0.00  0.00    -0.007 A 
ATOM      3  S   UNL     1      -0.022   1.770   0.012  0.00  0.00    -0.073 S 
ATOM      4  C   UNL     1       0.002  -0.004   0.002  0.00  0.00    +0.117 A 
ATOM      5  C   UNL     1       1.375  -0.313  -0.013  0.00  0.00    +0.076 A 
ATOM      6  C   UNL     1       1.700  -1.706  -0.024  0.00  0.00    +0.263 A 
ATOM      7  O   UNL     1       2.864  -2.069  -0.037  0.00  0.00    -0.267 OA
ATOM      8  N   UNL     1       0.704  -2.611  -0.020  0.00  0.00    -0.285 N 
ATOM      9  C   UNL     1      -0.605  -2.224  -0.005  0.00  0.00    +0.173 A 
ATOM     10  N   UNL     1      -0.932  -0.947   0.005  0.00  0.00    -0.216 NA
ATOM     11  C   UNL     1       2.456   3.394  -0.004  0.00  0.00    +0.052 C 
ENDROOT
BRANCH   1  13
ATOM     12  C   UNL     1       4.249   0.592  -1.479  0.00  0.00    +0.009 C 
ATOM     13  C   UNL     1       3.757   0.648  -0.031  0.00  0.00    +0.033 C 
ENDBRANCH   1  13
BRANCH   9  14
ATOM     14  S   UNL     1      -1.873  -3.446   0.000  0.00  0.00    -0.078 S 
BRANCH  14  15
ATOM     15  C   UNL     1      -3.337  -2.381   0.020  0.00  0.00    +0.173 C 
BRANCH  15  16
ATOM     16  C   UNL     1      -4.579  -3.234   0.027  0.00  0.00    +0.224 C 
ATOM     17  O   UNL     1      -4.484  -4.443   0.019  0.00  0.00    -0.275 OA
ATOM     18  N   UNL     1      -5.795  -2.653   0.042  0.00  0.00    -0.306 N 
ATOM     19  H   UNL     1      -5.881  -1.557   0.049  0.00  0.00    +0.149 HD
BRANCH  18  20
ATOM     20  C   UNL     1      -7.003  -3.483   0.049  0.00  0.00    +0.217 C 
BRANCH  20  21
ATOM     21  C   UNL     1      -8.239  -2.582   0.065  0.00  0.00    +0.405 C 
ATOM     22  F   UNL     1      -8.239  -1.768  -1.072  0.00  0.00    -0.169 F 
ATOM     23  F   UNL     1      -9.393  -3.374   0.072  0.00  0.00    -0.169 F 
ATOM     24  F   UNL     1      -8.217  -1.781   1.212  0.00  0.00    -0.169 F 
ENDBRANCH  20  21
ENDBRANCH  18  20
ENDBRANCH  15  16
ENDBRANCH  14  15
ENDBRANCH   9  14
BRANCH   8  25
ATOM     25  C   UNL     1       1.030  -4.039  -0.032  0.00  0.00    +0.159 C 
BRANCH  25  26
ATOM     26  C   UNL     1       1.130  -4.527  -1.479  0.00  0.00    +0.138 C 
ATOM     27  C   UNL     1       1.405  -6.052  -1.514  0.00  0.00    +0.035 C 
ATOM     28  C   UNL     1       0.837  -6.421  -2.912  0.00  0.00    +0.031 C 
ATOM     29  C   UNL     1      -0.355  -5.450  -3.048  0.00  0.00    +0.160 C 
ATOM     30  O   UNL     1      -0.128  -4.357  -2.150  0.00  0.00    -0.375 OA
ENDBRANCH  25  26
ENDBRANCH   8  25
TORSDOF 8
