REMARK  Name = ZINC29066842
REMARK  7 active torsions:
REMARK  status: ('A' for Active; 'I' for Inactive)
REMARK    1  A    between atoms: C_1  and  O_2
REMARK    2  A    between atoms: O_2  and  C_3
REMARK    3  A    between atoms: C_6  and  C_10
REMARK    4  A    between atoms: C_10  and  N_11
REMARK    5  A    between atoms: N_14  and  C_17
REMARK    6  A    between atoms: C_17  and  C_18
REMARK    7  A    between atoms: N_20  and  C_21
REMARK                            x       y       z     vdW  Elec       q    Type
REMARK                         _______ _______ _______ _____ _____    ______ ____
ROOT
ATOM      1  N   UNL     1      -2.860   3.977  -1.442  0.00  0.00    -0.302 NA
ATOM      2  C   UNL     1      -2.110   5.123  -1.976  0.00  0.00    +0.066 C 
ATOM      3  C   UNL     1      -2.514   5.360  -3.433  0.00  0.00    -0.063 C 
ATOM      4  N   UNL     1      -3.962   5.602  -3.504  0.00  0.00    +0.387 N 
ATOM      5  C   UNL     1      -4.711   4.456  -2.971  0.00  0.00    -0.063 C 
ATOM      6  C   UNL     1      -4.307   4.219  -1.514  0.00  0.00    +0.066 C 
ATOM      7  H   UNL     1      -4.191   6.478  -2.879  0.00  0.00    -0.081 HD
ENDROOT
BRANCH   1   8
ATOM      8  C   UNL     1      -2.444   3.670  -0.067  0.00  0.00    +0.119 C 
BRANCH   8  12
ATOM      9  C   UNL     1       1.607   2.307  -0.073  0.00  0.00    +0.155 A 
ATOM     10  C   UNL     1       0.568   1.399  -0.209  0.00  0.00    +0.049 A 
ATOM     11  C   UNL     1      -0.740   1.843  -0.212  0.00  0.00    +0.008 A 
ATOM     12  C   UNL     1      -1.016   3.191  -0.069  0.00  0.00    -0.030 A 
ATOM     13  C   UNL     1       0.018   4.099   0.067  0.00  0.00    +0.047 A 
ATOM     14  C   UNL     1       1.330   3.661   0.066  0.00  0.00    +0.165 A 
ATOM     15  F   UNL     1       2.339   4.549   0.198  0.00  0.00    -0.202 F 
BRANCH   9  17
ATOM     16  C   UNL     1       3.107   0.467  -0.222  0.00  0.00    +0.277 C 
ATOM     17  O   UNL     1       2.896   1.873  -0.075  0.00  0.00    -0.492 OA
ENDBRANCH   9  17
ENDBRANCH   8  12
ENDBRANCH   1   8
BRANCH   4  18
ATOM     18  C   UNL     1      -4.377   5.909  -4.879  0.00  0.00    +0.019 C 
BRANCH  18  19
ATOM     19  C   UNL     1      -5.801   6.403  -4.875  0.00  0.00    +0.201 C 
ATOM     20  O   UNL     1      -6.372   6.600  -3.824  0.00  0.00    -0.278 OA
ATOM     21  N   UNL     1      -6.441   6.624  -6.041  0.00  0.00    -0.286 N 
ATOM     22  H   UNL     1      -5.949   6.378  -6.994  0.00  0.00    +0.155 HD
BRANCH  21  23
ATOM     23  C   UNL     1      -7.731   7.168  -6.039  0.00  0.00    +0.052 A 
ATOM     24  C   UNL     1      -8.613   6.862  -5.012  0.00  0.00    +0.026 A 
ATOM     25  C   UNL     1      -9.886   7.399  -5.013  0.00  0.00    +0.017 A 
ATOM     26  C   UNL     1     -10.282   8.243  -6.036  0.00  0.00    +0.019 A 
ATOM     27  C   UNL     1      -9.405   8.550  -7.061  0.00  0.00    +0.037 A 
ATOM     28  C   UNL     1      -8.129   8.019  -7.063  0.00  0.00    +0.063 A 
ATOM     29 CL   UNL     1      -7.027   8.411  -8.346  0.00  0.00    -0.082 Cl
ATOM     30 BR   UNL     1     -12.025   8.976  -6.033  0.00  0.00    -0.050 Br
ENDBRANCH  21  23
ENDBRANCH  18  19
ENDBRANCH   4  18
TORSDOF 6
