REMARK  Name = ZINC10013248
REMARK  3 active torsions:
REMARK  status: ('A' for Active; 'I' for Inactive)
REMARK    1  A    between atoms: C_1  and  C_2
REMARK    2  A    between atoms: C_10  and  C_11
REMARK    3  A    between atoms: N_16  and  C_19
REMARK                            x       y       z     vdW  Elec       q    Type
REMARK                         _______ _______ _______ _____ _____    ______ ____
ROOT
ATOM      1  C   UNL     1       2.204   1.576  -1.306  0.00  0.00    +0.046 C 
ATOM      2  C   UNL     1       1.558   0.340  -0.735  0.00  0.00    -0.019 A 
ATOM      3  C   UNL     1       0.809  -0.507  -1.563  0.00  0.00    +0.051 A 
ATOM      4  C   UNL     1       0.531  -0.392  -2.958  0.00  0.00    +0.133 A 
ATOM      5  N   UNL     1      -0.209  -1.317  -3.546  0.00  0.00    -0.220 NA
ATOM      6  C   UNL     1      -0.702  -2.350  -2.888  0.00  0.00    +0.224 A 
ATOM      7  N   UNL     1      -0.481  -2.514  -1.597  0.00  0.00    -0.228 NA
ATOM      8  C   UNL     1       0.245  -1.641  -0.929  0.00  0.00    +0.114 A 
ATOM      9  S   UNL     1       0.777  -1.474   0.755  0.00  0.00    -0.064 S 
ATOM     10  C   UNL     1       1.707   0.040   0.584  0.00  0.00    +0.080 A 
ATOM     11  N   UNL     1       1.026   0.672  -3.683  0.00  0.00    -0.312 N 
ATOM     12  C   UNL     1       2.460   0.764  -3.993  0.00  0.00    +0.125 C 
ATOM     13  C   UNL     1       2.627   0.899  -5.511  0.00  0.00    +0.125 C 
ATOM     14  N   UNL     1       1.730   1.961  -5.989  0.00  0.00    -0.314 N 
ATOM     15  C   UNL     1       0.296   1.869  -5.680  0.00  0.00    +0.125 C 
ATOM     16  C   UNL     1       0.129   1.731  -4.166  0.00  0.00    +0.125 C 
ATOM     17  C   UNL     1       2.229   3.032  -6.720  0.00  0.00    +0.099 A 
ATOM     18  C   UNL     1       3.557   3.025  -7.136  0.00  0.00    +0.042 A 
ATOM     19  C   UNL     1       4.041   4.097  -7.862  0.00  0.00    +0.005 A 
ATOM     20  C   UNL     1       3.177   5.146  -8.150  0.00  0.00    +0.018 A 
ATOM     21  C   UNL     1       1.871   5.088  -7.706  0.00  0.00    +0.084 A 
ATOM     22  N   UNL     1       1.436   4.049  -7.019  0.00  0.00    -0.350 N 
ATOM     23  H   UNL     1       0.512   4.032  -6.723  0.00  0.00    +0.166 HD
ENDROOT
BRANCH  10  24
ATOM     24  C   UNL     1       2.447   0.780   1.613  0.00  0.00    +0.254 C 
ATOM     25  O   UNL     1       2.446   1.997   1.606  0.00  0.00    -0.269 OA
ATOM     26  N   UNL     1       3.128   0.113   2.566  0.00  0.00    -0.294 N 
ATOM     27  C   UNL     1       3.050  -1.353   2.652  0.00  0.00    +0.127 C 
ATOM     28  C   UNL     1       4.473  -1.922   2.598  0.00  0.00    +0.124 C 
ATOM     29  N   UNL     1       5.306  -1.199   3.568  0.00  0.00    -0.327 N 
ATOM     30  C   UNL     1       5.383   0.267   3.482  0.00  0.00    +0.124 C 
ATOM     31  C   UNL     1       3.965   0.836   3.533  0.00  0.00    +0.127 C 
BRANCH  29  32
ATOM     32  C   UNL     1       6.012  -1.891   4.556  0.00  0.00    +0.030 A 
ATOM     33  C   UNL     1       6.671  -1.193   5.559  0.00  0.00    +0.026 A 
ATOM     34  C   UNL     1       7.368  -1.879   6.535  0.00  0.00    +0.040 A 
ATOM     35  C   UNL     1       7.409  -3.263   6.513  0.00  0.00    +0.124 A 
ATOM     36  C   UNL     1       6.753  -3.962   5.514  0.00  0.00    +0.040 A 
ATOM     37  C   UNL     1       6.051  -3.280   4.539  0.00  0.00    +0.026 A 
ATOM     38  F   UNL     1       8.092  -3.933   7.468  0.00  0.00    -0.205 F 
ENDBRANCH  29  32
ENDBRANCH  10  24
TORSDOF 2
