REMARK  Name = ZINC46706610
REMARK  7 active torsions:
REMARK  status: ('A' for Active; 'I' for Inactive)
REMARK    1  A    between atoms: C_4  and  C_7
REMARK    2  A    between atoms: C_7  and  C_9
REMARK    3  A    between atoms: C_7  and  N_27
REMARK    4  A    between atoms: C_9  and  C_10
REMARK    5  A    between atoms: N_12  and  C_13
REMARK    6  A    between atoms: C_16  and  C_19
REMARK    7  A    between atoms: C_28  and  C_30
REMARK                            x       y       z     vdW  Elec       q    Type
REMARK                         _______ _______ _______ _____ _____    ______ ____
ROOT
ATOM      1  C   UNL     1       5.418  -1.811   1.383  0.00  0.00    +0.219 C 
ATOM      2  O   UNL     1       6.057  -1.881   0.354  0.00  0.00    -0.275 OA
ATOM      3  N   UNL     1       5.930  -2.302   2.529  0.00  0.00    -0.285 N 
ATOM      4  H   UNL     1       5.449  -2.187   3.363  0.00  0.00    +0.155 HD
ENDROOT
BRANCH   3   5
ATOM      5  C   UNL     1       7.151  -2.974   2.515  0.00  0.00    +0.033 A 
ATOM      6  C   UNL     1       8.159  -2.566   1.647  0.00  0.00    +0.024 A 
ATOM      7  C   UNL     1       9.366  -3.228   1.631  0.00  0.00    +0.015 A 
ATOM      8  C   UNL     1       9.579  -4.311   2.488  0.00  0.00    +0.037 A 
ATOM      9  C   UNL     1       8.564  -4.718   3.360  0.00  0.00    +0.015 A 
ATOM     10  C   UNL     1       7.361  -4.049   3.374  0.00  0.00    +0.024 A 
BRANCH   8  11
ATOM     11  C   UNL     1      10.871  -5.024   2.474  0.00  0.00    +0.250 C 
ATOM     12  O   UNL     1      11.752  -4.668   1.715  0.00  0.00    -0.270 OA
ATOM     13  N   UNL     1      11.074  -6.068   3.301  0.00  0.00    -0.261 N 
ATOM     14  C   UNL     1      12.290  -6.738   3.287  0.00  0.00    +0.165 A 
ATOM     15  N   UNL     1      13.350  -6.494   2.546  0.00  0.00    -0.233 NA
ATOM     16  C   UNL     1      14.441  -7.230   2.652  0.00  0.00    +0.120 A 
ATOM     17  C   UNL     1      14.416  -8.242   3.555  0.00  0.00    +0.068 A 
ATOM     18  S   UNL     1      12.769  -8.055   4.219  0.00  0.00    -0.061 S 
ATOM     19  H   UNL     1      10.371  -6.351   3.906  0.00  0.00    +0.157 HD
ENDBRANCH   8  11
ENDBRANCH   3   5
BRANCH   1  20
ATOM     20  C   UNL     1       4.051  -1.176   1.379  0.00  0.00    +0.123 C 
BRANCH  20  21
ATOM     21  C   UNL     1       3.712  -0.706  -0.037  0.00  0.00    +0.112 C 
BRANCH  21  25
ATOM     22  C   UNL     1      -0.004   1.402   0.014  0.00  0.00    +0.000 A 
ATOM     23  C   UNL     1       1.188   2.102  -0.001  0.00  0.00    +0.000 A 
ATOM     24  C   UNL     1       2.390   1.420  -0.017  0.00  0.00    +0.005 A 
ATOM     25  C   UNL     1       2.401   0.038  -0.018  0.00  0.00    -0.027 A 
ATOM     26  C   UNL     1       1.209  -0.662  -0.002  0.00  0.00    +0.005 A 
ATOM     27  C   UNL     1       0.007   0.019   0.013  0.00  0.00    +0.000 A 
ENDBRANCH  21  25
BRANCH  21  28
ATOM     28  N   UNL     1       3.602  -1.866  -0.924  0.00  0.00    -0.304 N 
ATOM     29  C   UNL     1       3.811  -1.725  -2.248  0.00  0.00    +0.245 C 
ATOM     30  O   UNL     1       4.091  -0.634  -2.706  0.00  0.00    -0.270 OA
ATOM     31  H   UNL     1       3.379  -2.737  -0.558  0.00  0.00    +0.150 HD
BRANCH  29  32
ATOM     32  C   UNL     1       3.701  -2.896  -3.143  0.00  0.00    +0.037 A 
ATOM     33  C   UNL     1       3.374  -4.149  -2.621  0.00  0.00    +0.013 A 
ATOM     34  C   UNL     1       3.272  -5.238  -3.462  0.00  0.00    +0.001 A 
ATOM     35  C   UNL     1       3.493  -5.090  -4.820  0.00  0.00    +0.000 A 
ATOM     36  C   UNL     1       3.817  -3.851  -5.344  0.00  0.00    +0.001 A 
ATOM     37  C   UNL     1       3.917  -2.753  -4.515  0.00  0.00    +0.013 A 
ENDBRANCH  29  32
ENDBRANCH  21  28
ENDBRANCH  20  21
ENDBRANCH   1  20
TORSDOF 7
