REMARK  Name = ZINC13244748
REMARK  11 active torsions:
REMARK  status: ('A' for Active; 'I' for Inactive)
REMARK    1  A    between atoms: C_1  and  N_2
REMARK    2  A    between atoms: C_8  and  C_31
REMARK    3  A    between atoms: C_12  and  S_13
REMARK    4  A    between atoms: S_13  and  C_14
REMARK    5  A    between atoms: C_14  and  C_15
REMARK    6  A    between atoms: N_17  and  C_18
REMARK    7  A    between atoms: N_17  and  C_23
REMARK    8  A    between atoms: C_18  and  C_19
REMARK    9  A    between atoms: C_19  and  C_20
REMARK   10  A    between atoms: C_28  and  O_29
REMARK   11  A    between atoms: O_29  and  C_30
REMARK                            x       y       z     vdW  Elec       q    Type
REMARK                         _______ _______ _______ _____ _____    ______ ____
ROOT
ATOM      1  C   UNL     1      -1.176   5.468   0.043  0.00  0.00    +0.230 C 
ATOM      2  O   UNL     1      -0.294   6.301   0.039  0.00  0.00    -0.274 OA
ATOM      3  N   UNL     1      -2.467   5.854   0.057  0.00  0.00    -0.267 N 
ENDROOT
BRANCH   3   4
ATOM      4  C   UNL     1      -3.486   4.893   0.062  0.00  0.00    +0.078 A 
ATOM      5  C   UNL     1      -3.976   4.404   1.264  0.00  0.00    +0.027 A 
ATOM      6  C   UNL     1      -4.985   3.460   1.266  0.00  0.00    +0.002 A 
ATOM      7  C   UNL     1      -5.500   2.991   0.072  0.00  0.00    +0.004 A 
ATOM      8  C   UNL     1      -5.013   3.469  -1.131  0.00  0.00    +0.047 A 
ATOM      9  C   UNL     1      -4.005   4.420  -1.141  0.00  0.00    +0.141 A 
BRANCH   9  10
ATOM     10  O   UNL     1      -3.524   4.890  -2.323  0.00  0.00    -0.493 OA
ATOM     11  C   UNL     1      -4.104   4.360  -3.517  0.00  0.00    +0.277 C 
ENDBRANCH   9  10
ENDBRANCH   3   4
BRANCH   1  12
ATOM     12  C   UNL     1      -0.828   4.002   0.032  0.00  0.00    +0.173 C 
BRANCH  12  13
ATOM     13  S   UNL     1       0.972   3.809   0.013  0.00  0.00    -0.078 S 
BRANCH  13  25
ATOM     14  C   UNL     1       3.522   2.336  -0.019  0.00  0.00    +0.154 C 
ATOM     15  N   UNL     1       2.332   1.482  -0.012  0.00  0.00    -0.290 N 
ATOM     16  C   UNL     1       2.472   0.137  -0.021  0.00  0.00    +0.262 A 
ATOM     17  O   UNL     1       3.572  -0.383  -0.035  0.00  0.00    -0.267 OA
ATOM     18  C   UNL     1       1.245  -0.676  -0.013  0.00  0.00    +0.065 A 
ATOM     19  C   UNL     1       1.290  -2.070  -0.022  0.00  0.00    +0.016 A 
ATOM     20  C   UNL     1       0.129  -2.788  -0.015  0.00  0.00    +0.016 A 
ATOM     21  C   UNL     1      -1.112  -2.137   0.000  0.00  0.00    +0.065 A 
ATOM     22  C   UNL     1      -1.180  -0.750   0.009  0.00  0.00    +0.043 A 
ATOM     23  C   UNL     1       0.002  -0.004   0.002  0.00  0.00    +0.080 A 
ATOM     24  N   UNL     1      -0.016   1.350   0.009  0.00  0.00    -0.223 NA
ATOM     25  C   UNL     1       1.091   2.051   0.003  0.00  0.00    +0.172 A 
BRANCH  21  26
ATOM     26  C   UNL     1      -2.359  -2.934   0.007  0.00  0.00    +0.387 C 
ATOM     27  O   UNL     1      -3.437  -2.374   0.020  0.00  0.00    -0.241 OA
ATOM     28  O   UNL     1      -2.299  -4.279  -0.001  0.00  0.00    -0.241 OA
ENDBRANCH  21  26
ENDBRANCH  13  25
ENDBRANCH  12  13
ENDBRANCH   1  12
BRANCH   3  29
ATOM     29  C   UNL     1      -2.805   7.280   0.068  0.00  0.00    +0.123 C 
BRANCH  29  30
ATOM     30  C   UNL     1      -2.936   7.784  -1.371  0.00  0.00    +0.115 C 
BRANCH  30  31
ATOM     31  C   UNL     1      -3.284   9.250  -1.359  0.00  0.00    +0.212 C 
ATOM     32  O   UNL     1      -3.414   9.834  -0.305  0.00  0.00    -0.276 OA
ATOM     33  N   UNL     1      -3.451   9.912  -2.522  0.00  0.00    -0.329 N 
ATOM     34  H   UNL     1      -3.347   9.444  -3.365  0.00  0.00    +0.145 HD
ATOM     35  H   UNL     1      -3.675  10.856  -2.514  0.00  0.00    +0.145 HD
ENDBRANCH  30  31
ENDBRANCH  29  30
ENDBRANCH   3  29
TORSDOF 9
