REMARK  Name = ZINC25919370
REMARK  9 active torsions:
REMARK  status: ('A' for Active; 'I' for Inactive)
REMARK    1  A    between atoms: C_1  and  C_2
REMARK    2  A    between atoms: C_5  and  C_8
REMARK    3  A    between atoms: C_11  and  C_13
REMARK    4  A    between atoms: C_13  and  N_14
REMARK    5  A    between atoms: N_14  and  C_15
REMARK    6  A    between atoms: N_14  and  C_16
REMARK    7  A    between atoms: C_16  and  C_17
REMARK    8  A    between atoms: N_19  and  C_20
REMARK    9  A    between atoms: C_25  and  C_26
REMARK                            x       y       z     vdW  Elec       q    Type
REMARK                         _______ _______ _______ _____ _____    ______ ____
ROOT
ATOM      1  N   UNL     1      -0.004   0.009   0.009  0.00  0.00    +0.389 N 
ATOM      2  C   UNL     1      -0.025   1.478   0.006  0.00  0.00    -0.095 C 
ATOM      3  H   UNL     1       0.549  -0.323  -0.882  0.00  0.00    -0.081 HD
ENDROOT
BRANCH   1   4
ATOM      4  C   UNL     1       0.696  -0.505   1.194  0.00  0.00    +0.021 C 
BRANCH   4   8
ATOM      5  C   UNL     1       4.269  -0.142   0.714  0.00  0.00    +0.248 A 
ATOM      6  N   UNL     1       3.954   0.959   1.353  0.00  0.00    -0.107 NA
ATOM      7  N   UNL     1       2.689   0.966   1.589  0.00  0.00    -0.114 NA
ATOM      8  C   UNL     1       2.153  -0.127   1.120  0.00  0.00    +0.202 A 
ATOM      9  O   UNL     1       3.133  -0.851   0.554  0.00  0.00    -0.422 OA
BRANCH   5  14
ATOM     10  C   UNL     1       9.522  -1.666  -1.075  0.00  0.00    +0.044 C 
ATOM     11  C   UNL     1       8.146  -1.267  -0.607  0.00  0.00    -0.050 A 
ATOM     12  C   UNL     1       7.966  -0.067   0.058  0.00  0.00    +0.004 A 
ATOM     13  C   UNL     1       6.710   0.304   0.490  0.00  0.00    +0.013 A 
ATOM     14  C   UNL     1       5.619  -0.534   0.254  0.00  0.00    +0.038 A 
ATOM     15  C   UNL     1       5.808  -1.745  -0.413  0.00  0.00    +0.013 A 
ATOM     16  C   UNL     1       7.069  -2.102  -0.845  0.00  0.00    +0.004 A 
ENDBRANCH   5  14
ENDBRANCH   4   8
ENDBRANCH   1   4
BRANCH   1  17
ATOM     17  C   UNL     1      -1.365  -0.536  -0.076  0.00  0.00    +0.019 C 
BRANCH  17  18
ATOM     18  C   UNL     1      -1.963  -0.188  -1.415  0.00  0.00    +0.201 C 
ATOM     19  O   UNL     1      -1.318   0.451  -2.219  0.00  0.00    -0.278 OA
ATOM     20  N   UNL     1      -3.214  -0.588  -1.719  0.00  0.00    -0.287 N 
ATOM     21  H   UNL     1      -3.765  -1.244  -1.029  0.00  0.00    +0.155 HD
BRANCH  20  22
ATOM     22  C   UNL     1      -3.812  -0.168  -2.913  0.00  0.00    +0.036 A 
ATOM     23  C   UNL     1      -3.396   1.008  -3.524  0.00  0.00    +0.024 A 
ATOM     24  C   UNL     1      -3.987   1.419  -4.702  0.00  0.00    +0.017 A 
ATOM     25  C   UNL     1      -4.993   0.661  -5.274  0.00  0.00    +0.018 A 
ATOM     26  C   UNL     1      -5.410  -0.511  -4.668  0.00  0.00    +0.020 A 
ATOM     27  C   UNL     1      -4.818  -0.930  -3.493  0.00  0.00    -0.028 A 
ATOM     28  C   UNL     1      -5.267  -2.210  -2.836  0.00  0.00    +0.046 C 
ATOM     29 BR   UNL     1      -5.801   1.228  -6.888  0.00  0.00    -0.050 Br
ENDBRANCH  20  22
ENDBRANCH  17  18
ENDBRANCH   1  17
TORSDOF 6
