REMARK  Name = ZINC01436513
REMARK  2 active torsions:
REMARK  status: ('A' for Active; 'I' for Inactive)
REMARK    1  A    between atoms: C_2  and  C_11
REMARK    2  A    between atoms: N_12  and  N_13
REMARK                            x       y       z     vdW  Elec       q    Type
REMARK                         _______ _______ _______ _____ _____    ______ ____
ROOT
ATOM      1  N   UNL     1       4.756   4.016   0.082  0.00  0.00    -0.127 N 
ATOM      2  C   UNL     1       4.795   5.348   0.186  0.00  0.00    +0.246 C 
ATOM      3  O   UNL     1       3.827   6.078   0.208  0.00  0.00    -0.273 OA
ATOM      4  C   UNL     1       6.233   5.805   0.276  0.00  0.00    +0.097 C 
ATOM      5  C   UNL     1       6.590   6.529  -1.067  0.00  0.00    +0.031 C 
ATOM      6  C   UNL     1       8.085   6.854  -0.902  0.00  0.00    -0.026 C 
ATOM      7  C   UNL     1       8.780   5.709  -0.967  0.00  0.00    -0.026 C 
ATOM      8  C   UNL     1       7.785   4.555  -1.180  0.00  0.00    +0.031 C 
ATOM      9  C   UNL     1       7.037   4.471   0.194  0.00  0.00    +0.097 C 
ATOM     10  C   UNL     1       5.955   3.423   0.073  0.00  0.00    +0.246 C 
ATOM     11  O   UNL     1       6.144   2.229  -0.017  0.00  0.00    -0.273 OA
ATOM     12  C   UNL     1       6.695   5.314  -2.017  0.00  0.00    -0.015 C 
ATOM     13  C   UNL     1       6.647   5.377  -3.512  0.00  0.00    +0.009 C 
ATOM     14  C   UNL     1       5.542   4.662  -2.716  0.00  0.00    +0.009 C 
ENDROOT
BRANCH   1  16
ATOM     15  C   UNL     1       3.573   2.001  -0.009  0.00  0.00    +0.140 C 
ATOM     16  N   UNL     1       3.556   3.299  -0.015  0.00  0.00    -0.178 NA
BRANCH  15  18
ATOM     17  C   UNL     1       2.323  -0.150   0.007  0.00  0.00    +0.060 A 
ATOM     18  C   UNL     1       2.307   1.247   0.001  0.00  0.00    +0.012 A 
ATOM     19  C   UNL     1       1.086   1.928   0.004  0.00  0.00    +0.030 A 
ATOM     20  C   UNL     1      -0.098   1.220   0.014  0.00  0.00    +0.065 A 
ATOM     21  C   UNL     1      -0.082  -0.167   0.026  0.00  0.00    +0.167 A 
ATOM     22  C   UNL     1       1.133  -0.853   0.017  0.00  0.00    +0.167 A 
ATOM     23  O   UNL     1       0.877  -2.194   0.024  0.00  0.00    -0.453 OA
ATOM     24  C   UNL     1      -0.499  -2.324  -0.381  0.00  0.00    +0.466 C 
ATOM     25  O   UNL     1      -1.096  -1.081   0.030  0.00  0.00    -0.453 OA
ATOM     26 BR   UNL     1       1.057   3.819  -0.006  0.00  0.00    -0.050 Br
ENDBRANCH  15  18
ENDBRANCH   1  16
TORSDOF 2
