REMARK  Name = ZINC09541638
REMARK  2 active torsions:
REMARK  status: ('A' for Active; 'I' for Inactive)
REMARK    1  A    between atoms: C_3  and  C_14
REMARK    2  A    between atoms: C_5  and  N_7
REMARK                            x       y       z     vdW  Elec       q    Type
REMARK                         _______ _______ _______ _____ _____    ______ ____
ROOT
ATOM      1  C   UNL     1      -1.494   0.994   0.989  0.00  0.00    +0.247 C 
ATOM      2  O   UNL     1      -2.323   0.142   0.735  0.00  0.00    -0.270 OA
ATOM      3  N   UNL     1      -1.838   2.073   1.720  0.00  0.00    -0.295 N 
ATOM      4  C   UNL     1      -0.886   3.173   1.937  0.00  0.00    +0.127 C 
ATOM      5  C   UNL     1      -1.581   4.492   1.564  0.00  0.00    +0.126 C 
ATOM      6  N   UNL     1      -2.841   4.605   2.312  0.00  0.00    -0.307 N 
ATOM      7  C   UNL     1      -3.777   3.534   1.944  0.00  0.00    +0.126 C 
ATOM      8  C   UNL     1      -3.174   2.179   2.327  0.00  0.00    +0.127 C 
ATOM      9  C   UNL     1      -3.414   5.847   2.132  0.00  0.00    +0.162 A 
ATOM     10  N   UNL     1      -2.895   7.034   2.350  0.00  0.00    -0.225 NA
ATOM     11  C   UNL     1      -3.579   8.177   2.126  0.00  0.00    +0.080 A 
ATOM     12  C   UNL     1      -3.141   9.508   2.318  0.00  0.00    +0.030 A 
ATOM     13  C   UNL     1      -3.968  10.565   2.039  0.00  0.00    +0.017 A 
ATOM     14  C   UNL     1      -5.257  10.371   1.562  0.00  0.00    +0.019 A 
ATOM     15  C   UNL     1      -5.718   9.081   1.362  0.00  0.00    +0.032 A 
ATOM     16  C   UNL     1      -4.896   8.018   1.639  0.00  0.00    +0.042 A 
ATOM     17  S   UNL     1      -5.049   6.251   1.534  0.00  0.00    -0.052 S 
ATOM     18 BR   UNL     1      -6.370  11.852   1.187  0.00  0.00    -0.050 Br
ENDROOT
BRANCH   1  21
ATOM     19  C   UNL     1       1.427   0.214  -1.243  0.00  0.00    +0.003 A 
ATOM     20  C   UNL     1       0.131   0.357  -0.788  0.00  0.00    +0.013 A 
ATOM     21  C   UNL     1      -0.107   0.847   0.497  0.00  0.00    +0.039 A 
ATOM     22  C   UNL     1       0.967   1.192   1.317  0.00  0.00    +0.037 A 
ATOM     23  C   UNL     1       2.264   1.045   0.851  0.00  0.00    +0.045 A 
ATOM     24  C   UNL     1       2.491   0.556  -0.430  0.00  0.00    +0.024 A 
BRANCH  23  25
ATOM     25  N   UNL     1       3.347   1.390   1.672  0.00  0.00    -0.210 N 
ATOM     26  C   UNL     1       3.884   2.617   1.685  0.00  0.00    +0.227 C 
ATOM     27  O   UNL     1       3.513   3.553   1.010  0.00  0.00    -0.275 OA
ATOM     28  C   UNL     1       5.025   2.650   2.678  0.00  0.00    +0.106 C 
ATOM     29  C   UNL     1       5.061   1.212   3.235  0.00  0.00    +0.106 C 
ATOM     30  C   UNL     1       3.933   0.519   2.502  0.00  0.00    +0.227 C 
ATOM     31  O   UNL     1       3.611  -0.641   2.645  0.00  0.00    -0.275 OA
ENDBRANCH  23  25
ENDBRANCH   1  21
TORSDOF 2
