REMARK  Name = ZINC12805464
REMARK  5 active torsions:
REMARK  status: ('A' for Active; 'I' for Inactive)
REMARK    1  A    between atoms: C_1  and  N_2
REMARK    2  A    between atoms: N_2  and  C_3
REMARK    3  A    between atoms: N_2  and  S_4
REMARK    4  A    between atoms: S_4  and  C_7
REMARK    5  A    between atoms: C_11  and  C_13
REMARK                            x       y       z     vdW  Elec       q    Type
REMARK                         _______ _______ _______ _____ _____    ______ ____
ROOT
ATOM      1  C   UNL     1       2.419   3.941  -0.000  0.00  0.00    +0.248 C 
ATOM      2  O   UNL     1       3.482   3.354   0.061  0.00  0.00    -0.270 OA
ATOM      3  N   UNL     1       2.396   5.285  -0.095  0.00  0.00    -0.292 N 
ATOM      4  C   UNL     1       1.128   6.028  -0.087  0.00  0.00    +0.143 C 
ATOM      5  C   UNL     1       1.215   7.086   0.993  0.00  0.00    -0.023 A 
ATOM      6  C   UNL     1       0.034   7.586   1.518  0.00  0.00    +0.055 A 
ATOM      7  C   UNL     1       0.060   8.560   2.502  0.00  0.00    +0.162 A 
ATOM      8  C   UNL     1       1.284   9.035   2.960  0.00  0.00    +0.162 A 
ATOM      9  C   UNL     1       2.458   8.529   2.432  0.00  0.00    +0.054 A 
ATOM     10  C   UNL     1       2.432   7.549   1.444  0.00  0.00    -0.031 A 
ATOM     11  C   UNL     1       3.750   7.053   0.928  0.00  0.00    +0.012 C 
ATOM     12  C   UNL     1       3.634   6.061  -0.215  0.00  0.00    +0.120 C 
ATOM     13  C   UNL     1       4.607   8.262   0.477  0.00  0.00    +0.013 C 
ATOM     14  C   UNL     1       6.053   7.722   0.606  0.00  0.00    +0.001 C 
ATOM     15  C   UNL     1       6.020   6.853   1.880  0.00  0.00    +0.001 C 
ATOM     16  C   UNL     1       4.556   6.428   2.084  0.00  0.00    +0.013 C 
ATOM     17  O   UNL     1       1.339   9.995   3.923  0.00  0.00    -0.485 OA
ATOM     18  C   UNL     1       0.150  10.204   4.693  0.00  0.00    +0.270 C 
ATOM     19  C   UNL     1      -1.042  10.272   3.728  0.00  0.00    +0.270 C 
ATOM     20  O   UNL     1      -1.109   9.035   3.010  0.00  0.00    -0.485 OA
ENDROOT
BRANCH   1  25
ATOM     21  C   UNL     1      -1.090   2.843  -0.763  0.00  0.00    +0.106 A 
ATOM     22  C   UNL     1      -1.219   1.749   0.076  0.00  0.00    +0.030 A 
ATOM     23  C   UNL     1      -0.172   1.372   0.896  0.00  0.00    +0.022 A 
ATOM     24  C   UNL     1       1.014   2.078   0.876  0.00  0.00    +0.053 A 
ATOM     25  C   UNL     1       1.153   3.180   0.028  0.00  0.00    +0.057 A 
ATOM     26  C   UNL     1       0.089   3.558  -0.794  0.00  0.00    +0.043 A 
ATOM     27 CL   UNL     1       2.330   1.599   1.902  0.00  0.00    -0.083 Cl
BRANCH  21  28
ATOM     28  S   UNL     1      -2.433   3.319  -1.799  0.00  0.00    +0.060 S 
ATOM     29  O   UNL     1      -3.615   2.821  -1.187  0.00  0.00    -0.153 OA
ATOM     30  O   UNL     1      -2.250   4.697  -2.094  0.00  0.00    -0.153 OA
BRANCH  28  32
ATOM     31  C   UNL     1      -2.880   1.185  -3.400  0.00  0.00    +0.131 C 
ATOM     32  N   UNL     1      -2.261   2.502  -3.230  0.00  0.00    -0.183 NA
ATOM     33  C   UNL     1      -1.490   3.097  -4.324  0.00  0.00    +0.131 C 
ENDBRANCH  28  32
ENDBRANCH  21  28
ENDBRANCH   1  25
TORSDOF 3
