REMARK  Name = ZINC63141537
REMARK  3 active torsions:
REMARK  status: ('A' for Active; 'I' for Inactive)
REMARK    1  A    between atoms: C_8  and  C_31
REMARK    2  A    between atoms: N_19  and  C_23
REMARK    3  A    between atoms: C_34  and  N_37
REMARK                            x       y       z     vdW  Elec       q    Type
REMARK                         _______ _______ _______ _____ _____    ______ ____
ROOT
ATOM      1  C   UNL     1       0.267   1.578  -0.074  0.00  0.00    +0.001 A 
ATOM      2  C   UNL     1       1.467   2.294  -0.033  0.00  0.00    +0.002 A 
ATOM      3  C   UNL     1       2.699   1.726  -0.014  0.00  0.00    +0.026 A 
ATOM      4  C   UNL     1       2.766   0.302  -0.037  0.00  0.00    +0.043 A 
ATOM      5  N   UNL     1       3.794  -0.493  -0.008  0.00  0.00    -0.375 N 
ATOM      6  C   UNL     1       3.315  -1.873  -0.123  0.00  0.00    +0.131 C 
ATOM      7  C   UNL     1       3.753  -2.726   1.071  0.00  0.00    +0.133 C 
ATOM      8  N   UNL     1       2.933  -3.958   1.071  0.00  0.00    -0.279 N 
ATOM      9  C   UNL     1       1.484  -3.853   1.200  0.00  0.00    +0.167 C 
ATOM     10  C   UNL     1       0.917  -3.004   0.048  0.00  0.00    +0.065 C 
ATOM     11  C   UNL     1       1.795  -1.781  -0.075  0.00  0.00    -0.034 C 
ATOM     12  C   UNL     1       1.497  -0.487  -0.074  0.00  0.00    -0.001 A 
ATOM     13  C   UNL     1       0.206   0.220  -0.096  0.00  0.00    +0.010 A 
ATOM     14  C   UNL     1       0.810  -5.186   1.206  0.00  0.00    +0.237 C 
ATOM     15  O   UNL     1      -0.396  -5.211   1.329  0.00  0.00    -0.274 OA
ATOM     16  N   UNL     1       1.449  -6.348   1.084  0.00  0.00    -0.288 N 
ATOM     17  C   UNL     1       2.889  -6.461   0.929  0.00  0.00    +0.204 C 
ATOM     18  C   UNL     1       3.566  -5.131   0.952  0.00  0.00    +0.234 C 
ATOM     19  O   UNL     1       4.772  -5.111   0.832  0.00  0.00    -0.274 OA
ATOM     20  H   UNL     1       4.721  -0.220   0.075  0.00  0.00    +0.160 HD
ENDROOT
BRANCH  16  21
ATOM     21  C   UNL     1       0.656  -7.580   1.107  0.00  0.00    +0.077 C 
ATOM     22  C   UNL     1       1.111  -8.457   2.276  0.00  0.00    +0.022 C 
ATOM     23  C   UNL     1       0.054  -9.529   2.549  0.00  0.00    +0.002 C 
ATOM     24  C   UNL     1      -1.338  -8.897   2.509  0.00  0.00    +0.000 C 
ATOM     25  C   UNL     1      -2.111  -9.441   1.306  0.00  0.00    +0.000 C 
ATOM     26  C   UNL     1      -1.596  -8.777   0.027  0.00  0.00    +0.000 C 
ATOM     27  C   UNL     1      -0.248  -9.390  -0.358  0.00  0.00    +0.002 C 
ATOM     28  C   UNL     1       0.853  -8.338  -0.207  0.00  0.00    +0.022 C 
ENDBRANCH  16  21
BRANCH   7  29
ATOM     29  C   UNL     1       3.532  -1.964   2.352  0.00  0.00    -0.025 A 
ATOM     30  C   UNL     1       2.263  -1.531   2.688  0.00  0.00    +0.008 A 
ATOM     31  C   UNL     1       2.061  -0.832   3.864  0.00  0.00    +0.033 A 
ATOM     32  C   UNL     1       3.127  -0.566   4.702  0.00  0.00    +0.126 A 
ATOM     33  C   UNL     1       4.395  -1.000   4.367  0.00  0.00    +0.033 A 
ATOM     34  C   UNL     1       4.597  -1.703   3.194  0.00  0.00    +0.008 A 
BRANCH  32  35
ATOM     35  N   UNL     1       2.909   0.183   5.960  0.00  0.00    +0.056 N 
ATOM     36  O   UNL     1       1.800   0.563   6.254  0.00  0.00    -0.126 OA
ATOM     37  O   UNL     1       3.842   0.416   6.694  0.00  0.00    -0.126 OA
ENDBRANCH  32  35
ENDBRANCH   7  29
TORSDOF 3
