REMARK  Name = ZINC19418252
REMARK  9 active torsions:
REMARK  status: ('A' for Active; 'I' for Inactive)
REMARK    1  A    between atoms: C_1  and  C_2
REMARK    2  A    between atoms: C_2  and  C_3
REMARK    3  A    between atoms: C_2  and  C_4
REMARK    4  A    between atoms: C_4  and  C_5
REMARK    5  A    between atoms: C_8  and  C_28
REMARK    6  A    between atoms: C_9  and  N_11
REMARK    7  A    between atoms: N_19  and  C_20
REMARK    8  A    between atoms: C_31  and  C_34
REMARK    9  A    between atoms: C_31  and  C_35
REMARK                            x       y       z     vdW  Elec       q    Type
REMARK                         _______ _______ _______ _____ _____    ______ ____
ROOT
ATOM      1  C   UNL     1       7.245  -0.732  -2.793  0.00  0.00    +0.049 A 
ATOM      2  C   UNL     1       7.439  -2.074  -3.081  0.00  0.00    +0.004 A 
ATOM      3  C   UNL     1       6.582  -3.009  -2.539  0.00  0.00    -0.017 A 
ATOM      4  C   UNL     1       5.539  -2.568  -1.716  0.00  0.00    +0.095 A 
ATOM      5  C   UNL     1       5.407  -1.190  -1.473  0.00  0.00    +0.139 A 
ATOM      6  N   UNL     1       6.255  -0.333  -2.020  0.00  0.00    -0.235 NA
ATOM      7  C   UNL     1       6.746  -4.480  -2.809  0.00  0.00    +0.071 C 
ATOM      8  C   UNL     1       7.655  -4.683  -4.024  0.00  0.00    +0.068 C 
ATOM      9  O   UNL     1       8.828  -3.879  -3.854  0.00  0.00    -0.369 OA
ATOM     10  C   UNL     1       8.576  -2.480  -3.979  0.00  0.00    +0.197 C 
ATOM     11  C   UNL     1       8.052  -6.157  -4.129  0.00  0.00    +0.041 C 
ATOM     12  C   UNL     1       6.916  -4.258  -5.295  0.00  0.00    +0.041 C 
ENDROOT
BRANCH   5  13
ATOM     13  N   UNL     1       4.384  -0.727  -0.665  0.00  0.00    -0.311 N 
ATOM     14  C   UNL     1       4.839   0.391   0.173  0.00  0.00    +0.125 C 
ATOM     15  C   UNL     1       3.739   0.754   1.176  0.00  0.00    +0.128 C 
ATOM     16  N   UNL     1       2.493   1.001   0.434  0.00  0.00    -0.282 N 
ATOM     17  C   UNL     1       2.041  -0.019  -0.524  0.00  0.00    +0.128 C 
ATOM     18  C   UNL     1       3.211  -0.349  -1.465  0.00  0.00    +0.125 C 
ATOM     19  C   UNL     1       1.782   2.128   0.631  0.00  0.00    +0.307 C 
ATOM     20  O   UNL     1       2.236   3.020   1.322  0.00  0.00    -0.252 OA
ATOM     21  N   UNL     1       0.568   2.267   0.063  0.00  0.00    -0.269 N 
ATOM     22  H   UNL     1       0.219   1.532  -0.676  0.00  0.00    +0.156 HD
BRANCH  21  23
ATOM     23  C   UNL     1      -0.250   3.348   0.415  0.00  0.00    +0.036 A 
ATOM     24  C   UNL     1       0.310   4.495   0.961  0.00  0.00    +0.025 A 
ATOM     25  C   UNL     1      -0.497   5.563   1.302  0.00  0.00    +0.023 A 
ATOM     26  C   UNL     1      -1.865   5.486   1.110  0.00  0.00    +0.059 A 
ATOM     27  C   UNL     1      -2.428   4.341   0.570  0.00  0.00    +0.061 A 
ATOM     28  C   UNL     1      -1.623   3.273   0.223  0.00  0.00    +0.044 A 
ATOM     29 CL   UNL     1      -4.144   4.249   0.330  0.00  0.00    -0.082 Cl
ATOM     30 CL   UNL     1      -2.878   6.827   1.545  0.00  0.00    -0.082 Cl
ENDBRANCH  21  23
ENDBRANCH   5  13
BRANCH   4  31
ATOM     31  C   UNL     1       4.625  -3.502  -1.132  0.00  0.00    +0.103 C 
ATOM     32  N   UNL     1       3.900  -4.244  -0.669  0.00  0.00    -0.191 NA
ENDBRANCH   4  31
BRANCH   1  33
ATOM     33  C   UNL     1       8.183   0.292  -3.380  0.00  0.00    +0.059 C 
BRANCH  33  35
ATOM     34  C   UNL     1       8.525   1.890  -5.270  0.00  0.00    +0.007 C 
ATOM     35  C   UNL     1       7.642   0.762  -4.732  0.00  0.00    -0.011 C 
ATOM     36  C   UNL     1       7.649  -0.407  -5.719  0.00  0.00    +0.007 C 
ENDBRANCH  33  35
ENDBRANCH   1  33
TORSDOF 5
