REMARK  Name = ZINC20366861
REMARK  7 active torsions:
REMARK  status: ('A' for Active; 'I' for Inactive)
REMARK    1  A    between atoms: C_1  and  C_2
REMARK    2  A    between atoms: C_5  and  C_8
REMARK    3  A    between atoms: N_13  and  C_30
REMARK    4  A    between atoms: C_14  and  C_16
REMARK    5  A    between atoms: C_20  and  C_29
REMARK    6  A    between atoms: C_25  and  C_27
REMARK    7  A    between atoms: C_25  and  C_28
REMARK                            x       y       z     vdW  Elec       q    Type
REMARK                         _______ _______ _______ _____ _____    ______ ____
ROOT
ATOM      1  C   UNL     1       0.520   0.720   1.530  0.00  0.00    +0.096 C 
ATOM      2  N   UNL     1      -0.124   1.140   0.475  0.00  0.00    -0.115 NA
ATOM      3  S   UNL     1       0.420   0.709  -1.034  0.00  0.00    +0.154 S 
ATOM      4  O   UNL     1      -0.191  -0.534  -1.354  0.00  0.00    -0.131 OA
ATOM      5  O   UNL     1       0.302   1.858  -1.861  0.00  0.00    -0.131 OA
ATOM      6  N   UNL     1       2.047   0.413  -0.844  0.00  0.00    -0.185 N 
ATOM      7  C   UNL     1       2.440  -0.250   0.315  0.00  0.00    +0.116 C 
ATOM      8  C   UNL     1       1.714  -0.115   1.445  0.00  0.00    +0.060 C 
ATOM      9  C   UNL     1       3.023   0.833  -1.853  0.00  0.00    +0.159 C 
ENDROOT
BRANCH   7  10
ATOM     10  C   UNL     1       3.650  -1.100   0.308  0.00  0.00    +0.263 C 
ATOM     11  O   UNL     1       4.740  -0.607   0.521  0.00  0.00    -0.269 OA
ATOM     12  N   UNL     1       3.543  -2.422   0.066  0.00  0.00    -0.293 N 
ATOM     13  C   UNL     1       2.311  -3.130  -0.315  0.00  0.00    +0.115 C 
ATOM     14  C   UNL     1       2.683  -4.629  -0.412  0.00  0.00    -0.014 C 
ATOM     15  C   UNL     1       4.185  -4.568  -0.796  0.00  0.00    +0.030 C 
ATOM     16  C   UNL     1       4.642  -3.406   0.122  0.00  0.00    +0.077 C 
ATOM     17  C   UNL     1       4.742  -3.972   1.538  0.00  0.00    +0.029 C 
ATOM     18  C   UNL     1       3.459  -4.614   2.034  0.00  0.00    -0.033 C 
ATOM     19  C   UNL     1       2.581  -5.253   0.976  0.00  0.00    +0.014 C 
ATOM     20  C   UNL     1       2.646  -3.588   2.839  0.00  0.00    +0.011 C 
ATOM     21  C   UNL     1       3.862  -5.729   3.031  0.00  0.00    +0.011 C 
ATOM     22  C   UNL     1       1.840  -5.370  -1.461  0.00  0.00    +0.013 C 
ENDBRANCH   7  10
BRANCH   1  27
ATOM     23  C   UNL     1      -1.433   2.222   6.734  0.00  0.00    +0.044 C 
ATOM     24  C   UNL     1      -0.922   1.829   5.372  0.00  0.00    -0.050 A 
ATOM     25  C   UNL     1      -1.585   2.260   4.237  0.00  0.00    +0.004 A 
ATOM     26  C   UNL     1      -1.121   1.903   2.987  0.00  0.00    +0.010 A 
ATOM     27  C   UNL     1       0.017   1.107   2.870  0.00  0.00    +0.002 A 
ATOM     28  C   UNL     1       0.678   0.671   4.018  0.00  0.00    +0.010 A 
ATOM     29  C   UNL     1       0.209   1.039   5.262  0.00  0.00    +0.004 A 
ENDBRANCH   1  27
TORSDOF 2
