REMARK  Name = ZINC09293269
REMARK  2 active torsions:
REMARK  status: ('A' for Active; 'I' for Inactive)
REMARK    1  A    between atoms: C_3  and  C_7
REMARK    2  A    between atoms: C_18  and  C_20
REMARK                            x       y       z     vdW  Elec       q    Type
REMARK                         _______ _______ _______ _____ _____    ______ ____
ROOT
ATOM      1  C   UNL     1       3.696   2.049  -0.023  0.00  0.00    +0.164 C 
ATOM      2  C   UNL     1       4.207   2.111   1.399  0.00  0.00    +0.028 C 
ATOM      3  C   UNL     1       5.403   1.546   1.668  0.00  0.00    +0.083 C 
ATOM      4  C   UNL     1       5.890   1.604   3.069  0.00  0.00    +0.044 A 
ATOM      5  C   UNL     1       7.216   1.347   3.387  0.00  0.00    +0.033 A 
ATOM      6  C   UNL     1       7.627   1.414   4.706  0.00  0.00    +0.042 A 
ATOM      7  C   UNL     1       6.721   1.737   5.702  0.00  0.00    +0.023 A 
ATOM      8  C   UNL     1       5.398   1.994   5.392  0.00  0.00    +0.048 A 
ATOM      9  C   UNL     1       4.973   1.928   4.077  0.00  0.00    +0.131 A 
ATOM     10  O   UNL     1       3.679   2.168   3.746  0.00  0.00    -0.479 OA
ATOM     11  C   UNL     1       3.421   2.786   2.484  0.00  0.00    +0.234 C 
ATOM     12 CL   UNL     1       9.284   1.094   5.113  0.00  0.00    -0.084 Cl
ATOM     13  N   UNL     1       6.133   0.946   0.695  0.00  0.00    -0.216 NA
ATOM     14  C   UNL     1       5.755   0.854  -0.560  0.00  0.00    +0.209 C 
ATOM     15  N   UNL     1       4.570   1.368  -0.990  0.00  0.00    -0.182 N 
ATOM     16  N   UNL     1       4.466   1.103  -2.356  0.00  0.00    -0.169 NA
ATOM     17  C   UNL     1       5.528   0.465  -2.731  0.00  0.00    +0.208 C 
ATOM     18  N   UNL     1       6.354   0.292  -1.658  0.00  0.00    -0.275 N 
ATOM     19  H   UNL     1       7.214  -0.155  -1.670  0.00  0.00    +0.156 HD
ENDROOT
BRANCH  11  20
ATOM     20  C   UNL     1       3.812   4.240   2.552  0.00  0.00    -0.000 A 
ATOM     21  C   UNL     1       4.975   4.613   3.200  0.00  0.00    +0.009 A 
ATOM     22  C   UNL     1       5.335   5.945   3.264  0.00  0.00    +0.023 A 
ATOM     23  C   UNL     1       4.533   6.908   2.678  0.00  0.00    +0.076 A 
ATOM     24  C   UNL     1       3.368   6.535   2.028  0.00  0.00    +0.142 A 
ATOM     25  C   UNL     1       3.011   5.199   1.961  0.00  0.00    +0.047 A 
ATOM     26  F   UNL     1       2.582   7.474   1.456  0.00  0.00    -0.204 F 
ATOM     27 CL   UNL     1       4.985   8.582   2.759  0.00  0.00    -0.081 Cl
ENDBRANCH  11  20
BRANCH   1  30
ATOM     28  C   UNL     1      -0.017   1.378   0.010  0.00  0.00    +0.020 A 
ATOM     29  C   UNL     1       1.185   2.070   0.002  0.00  0.00    +0.009 A 
ATOM     30  C   UNL     1       2.365   1.343  -0.013  0.00  0.00    -0.003 A 
ATOM     31  C   UNL     1       2.305  -0.038  -0.020  0.00  0.00    +0.116 A 
ATOM     32  N   UNL     1       1.144  -0.663  -0.013  0.00  0.00    -0.263 NA
ATOM     33  C   UNL     1       0.002  -0.004   0.002  0.00  0.00    +0.111 A 
ENDBRANCH   1  30
TORSDOF 2
