REMARK  Name = ZINC09834958
REMARK  5 active torsions:
REMARK  status: ('A' for Active; 'I' for Inactive)
REMARK    1  A    between atoms: C_1  and  C_2
REMARK    2  A    between atoms: C_2  and  C_28
REMARK    3  A    between atoms: N_5  and  C_9
REMARK    4  A    between atoms: C_9  and  C_10
REMARK    5  A    between atoms: C_16  and  C_18
REMARK                            x       y       z     vdW  Elec       q    Type
REMARK                         _______ _______ _______ _____ _____    ______ ____
ROOT
ATOM      1  C   UNL     1       4.476   4.587  -2.740  0.00  0.00    +0.213 C 
ENDROOT
BRANCH   1   6
ATOM      2  C   UNL     1       4.183   2.394   1.405  0.00  0.00    +0.047 C 
ATOM      3  C   UNL     1       3.671   2.187  -0.022  0.00  0.00    +0.135 C 
ATOM      4  C   UNL     1       3.491   3.519  -0.722  0.00  0.00    +0.251 C 
ATOM      5  O   UNL     1       2.751   4.423  -0.399  0.00  0.00    -0.272 OA
ATOM      6  N   UNL     1       4.327   3.491  -1.780  0.00  0.00    -0.215 N 
ATOM      7  C   UNL     1       5.002   2.338  -1.844  0.00  0.00    +0.310 C 
ATOM      8  O   UNL     1       5.815   2.078  -2.709  0.00  0.00    -0.252 OA
ATOM      9  N   UNL     1       4.682   1.498  -0.843  0.00  0.00    -0.281 N 
ATOM     10  H   UNL     1       5.046   0.612  -0.691  0.00  0.00    +0.152 HD
BRANCH   3  11
ATOM     11  C   UNL     1       2.378   1.414  -0.013  0.00  0.00    -0.013 A 
ATOM     12  C   UNL     1       1.171   2.087   0.002  0.00  0.00    +0.009 A 
ATOM     13  C   UNL     1      -0.017   1.380   0.010  0.00  0.00    +0.041 A 
ATOM     14  C   UNL     1       0.002  -0.004   0.002  0.00  0.00    +0.158 A 
ATOM     15  C   UNL     1       1.213  -0.679  -0.013  0.00  0.00    +0.159 A 
ATOM     16  C   UNL     1       2.400   0.032  -0.021  0.00  0.00    +0.047 A 
ATOM     17  F   UNL     1       1.234  -2.030  -0.020  0.00  0.00    -0.202 F 
ATOM     18  F   UNL     1      -1.158  -0.696   0.009  0.00  0.00    -0.202 F 
ENDBRANCH   3  11
ENDBRANCH   1   6
BRANCH   1  19
ATOM     19  C   UNL     1       5.558   5.524  -2.270  0.00  0.00    +0.234 C 
ATOM     20  O   UNL     1       6.147   5.298  -1.234  0.00  0.00    -0.274 OA
ATOM     21  N   UNL     1       5.872   6.612  -3.001  0.00  0.00    -0.293 N 
ATOM     22  C   UNL     1       5.239   7.005  -4.273  0.00  0.00    +0.108 C 
ATOM     23  C   UNL     1       6.296   7.881  -4.988  0.00  0.00    +0.021 C 
ATOM     24  C   UNL     1       6.922   8.650  -3.795  0.00  0.00    +0.029 C 
ATOM     25  C   UNL     1       6.898   7.607  -2.658  0.00  0.00    +0.106 C 
BRANCH  25  26
ATOM     26  C   UNL     1       6.548   8.276  -1.353  0.00  0.00    -0.023 A 
ATOM     27  C   UNL     1       5.234   8.607  -1.078  0.00  0.00    +0.009 A 
ATOM     28  C   UNL     1       4.909   9.220   0.117  0.00  0.00    +0.050 A 
ATOM     29  C   UNL     1       5.901   9.505   1.044  0.00  0.00    +0.162 A 
ATOM     30  C   UNL     1       7.221   9.170   0.768  0.00  0.00    +0.162 A 
ATOM     31  C   UNL     1       7.540   8.551  -0.431  0.00  0.00    +0.055 A 
ATOM     32  O   UNL     1       8.209   9.437   1.666  0.00  0.00    -0.485 OA
ATOM     33  C   UNL     1       7.906  10.388   2.692  0.00  0.00    +0.270 C 
ATOM     34  C   UNL     1       6.528  10.046   3.273  0.00  0.00    +0.270 C 
ATOM     35  O   UNL     1       5.566  10.113   2.215  0.00  0.00    -0.485 OA
ENDBRANCH  25  26
ENDBRANCH   1  19
TORSDOF 4
