REMARK  Name = ZINC08721905
REMARK  3 active torsions:
REMARK  status: ('A' for Active; 'I' for Inactive)
REMARK    1  A    between atoms: C_2  and  C_10
REMARK    2  A    between atoms: C_5  and  O_8
REMARK    3  A    between atoms: C_20  and  C_22
REMARK                            x       y       z     vdW  Elec       q    Type
REMARK                         _______ _______ _______ _____ _____    ______ ____
ROOT
ATOM      1  C   UNL     1       1.176   3.552   0.009  0.00  0.00    +0.024 C 
ATOM      2  C   UNL     1       2.359   4.251   0.106  0.00  0.00    +0.081 C 
ATOM      3  C   UNL     1       2.385   5.735   0.234  0.00  0.00    +0.152 C 
ATOM      4  N   UNL     1       1.465   6.418   0.860  0.00  0.00    -0.283 NA
ATOM      5  N   UNL     1       3.503   6.331  -0.389  0.00  0.00    -0.152 N 
ATOM      6  C   UNL     1       4.621   5.546  -0.576  0.00  0.00    +0.181 C 
ATOM      7  N   UNL     1       4.748   4.266  -0.329  0.00  0.00    -0.152 NA
ATOM      8  C   UNL     1       3.675   3.566   0.094  0.00  0.00    +0.273 C 
ATOM      9  O   UNL     1       3.782   2.404   0.453  0.00  0.00    -0.268 OA
ATOM     10  S   UNL     1       5.784   6.708  -1.240  0.00  0.00    -0.038 S 
ATOM     11  C   UNL     1       4.688   8.118  -1.319  0.00  0.00    +0.103 C 
ATOM     12  N   UNL     1       3.585   7.638  -0.820  0.00  0.00    -0.169 NA
ATOM     13  H   UNL     1       1.530   7.385   0.914  0.00  0.00    +0.188 HD
ENDROOT
BRANCH   1  15
ATOM     14  C   UNL     1       0.263   1.260   0.302  0.00  0.00    +0.031 A 
ATOM     15  C   UNL     1       1.195   2.120  -0.297  0.00  0.00    -0.021 A 
ATOM     16  C   UNL     1       2.144   1.603  -1.190  0.00  0.00    +0.031 A 
ATOM     17  C   UNL     1       2.157   0.256  -1.475  0.00  0.00    +0.084 A 
ATOM     18  C   UNL     1       1.230  -0.592  -0.877  0.00  0.00    +0.153 A 
ATOM     19  C   UNL     1       0.285  -0.085   0.010  0.00  0.00    +0.084 A 
ATOM     20 CL   UNL     1      -0.868  -1.151   0.751  0.00  0.00    -0.080 Cl
ATOM     21 CL   UNL     1       3.331  -0.385  -2.581  0.00  0.00    -0.080 Cl
BRANCH  18  22
ATOM     22  O   UNL     1       1.246  -1.919  -1.161  0.00  0.00    -0.504 OA
ATOM     23  H   UNL     1       1.809  -2.441  -0.572  0.00  0.00    +0.292 HD
ENDBRANCH  18  22
ENDBRANCH   1  15
BRANCH  11  24
ATOM     24  C   UNL     1       4.968   9.507  -1.831  0.00  0.00    +0.046 C 
ATOM     25  C   UNL     1       4.016  10.500  -1.162  0.00  0.00    +0.010 C 
ATOM     26  C   UNL     1       4.300  11.910  -1.682  0.00  0.00    +0.001 C 
ATOM     27  C   UNL     1       4.092  11.946  -3.197  0.00  0.00    +0.000 C 
ATOM     28  C   UNL     1       5.045  10.954  -3.867  0.00  0.00    +0.001 C 
ATOM     29  C   UNL     1       4.760   9.543  -3.347  0.00  0.00    +0.010 C 
ENDBRANCH  11  24
TORSDOF 3
