REMARK  Name = ZINC12850911
REMARK  6 active torsions:
REMARK  status: ('A' for Active; 'I' for Inactive)
REMARK    1  A    between atoms: C_1  and  N_2
REMARK    2  A    between atoms: C_8  and  C_10
REMARK    3  A    between atoms: C_14  and  C_25
REMARK    4  A    between atoms: C_17  and  C_21
REMARK    5  A    between atoms: C_28  and  O_31
REMARK    6  A    between atoms: O_31  and  C_32
REMARK                            x       y       z     vdW  Elec       q    Type
REMARK                         _______ _______ _______ _____ _____    ______ ____
ROOT
ATOM      1  C   UNL     1      -0.149  -4.287   2.650  0.00  0.00    +0.110 C 
ATOM      2  C   UNL     1       1.067  -3.883   3.092  0.00  0.00    +0.072 C 
ATOM      3  C   UNL     1       1.448  -4.774   4.187  0.00  0.00    +0.114 C 
ATOM      4  N   UNL     1       2.527  -4.788   4.916  0.00  0.00    -0.365 N 
ATOM      5  C   UNL     1       2.682  -5.826   5.941  0.00  0.00    +0.113 C 
ATOM      6  C   UNL     1       1.322  -6.218   6.520  0.00  0.00    +0.062 C 
ATOM      7  C   UNL     1       0.400  -6.706   5.391  0.00  0.00    +0.201 C 
ATOM      8  N   UNL     1       0.399  -5.670   4.353  0.00  0.00    -0.226 N 
ATOM      9  N   UNL     1      -0.568  -5.375   3.398  0.00  0.00    -0.258 N 
ATOM     10  H   UNL     1      -1.401  -5.856   3.275  0.00  0.00    +0.170 HD
ATOM     11  H   UNL     1       3.220  -4.121   4.783  0.00  0.00    +0.161 HD
ENDROOT
BRANCH   1  19
ATOM     12  C   UNL     1      -1.404  -6.612  -2.981  0.00  0.00    +0.105 C 
ATOM     13  N   UNL     1      -0.949  -5.566  -2.056  0.00  0.00    -0.302 NA
ATOM     14  C   UNL     1      -0.265  -6.152  -0.895  0.00  0.00    +0.103 C 
ATOM     15  C   UNL     1       0.350  -5.031  -0.050  0.00  0.00    +0.123 C 
ATOM     16  N   UNL     1      -0.704  -4.058   0.275  0.00  0.00    -0.294 N 
ATOM     17  C   UNL     1      -1.526  -3.529  -0.824  0.00  0.00    +0.123 C 
ATOM     18  C   UNL     1      -2.067  -4.709  -1.639  0.00  0.00    +0.103 C 
ATOM     19  C   UNL     1      -0.911  -3.662   1.546  0.00  0.00    +0.262 C 
ATOM     20  O   UNL     1      -1.724  -2.791   1.787  0.00  0.00    -0.269 OA
ENDBRANCH   1  19
BRANCH   5  21
ATOM     21  C   UNL     1       3.327  -7.041   5.325  0.00  0.00    -0.025 A 
ATOM     22  C   UNL     1       2.966  -7.444   4.053  0.00  0.00    +0.009 A 
ATOM     23  C   UNL     1       3.556  -8.557   3.486  0.00  0.00    +0.046 A 
ATOM     24  C   UNL     1       4.511  -9.271   4.195  0.00  0.00    +0.120 A 
ATOM     25  C   UNL     1       4.872  -8.865   5.471  0.00  0.00    +0.046 A 
ATOM     26  C   UNL     1       4.283  -7.748   6.032  0.00  0.00    +0.009 A 
BRANCH  24  27
ATOM     27  O   UNL     1       5.093 -10.367   3.639  0.00  0.00    -0.495 OA
ATOM     28  C   UNL     1       6.068 -11.053   4.427  0.00  0.00    +0.277 C 
ENDBRANCH  24  27
ENDBRANCH   5  21
BRANCH   7  29
ATOM     29  C   UNL     1      -1.019  -6.908   5.928  0.00  0.00    +0.410 C 
ATOM     30  F   UNL     1      -1.505  -5.696   6.429  0.00  0.00    -0.169 F 
ATOM     31  F   UNL     1      -1.850  -7.352   4.894  0.00  0.00    -0.169 F 
ATOM     32  F   UNL     1      -0.998  -7.861   6.952  0.00  0.00    -0.169 F 
ENDBRANCH   7  29
TORSDOF 4
