REMARK  Name = ZINC33467779
REMARK  4 active torsions:
REMARK  status: ('A' for Active; 'I' for Inactive)
REMARK    1  A    between atoms: C_1  and  C_2
REMARK    2  A    between atoms: C_2  and  N_3
REMARK    3  A    between atoms: N_26  and  C_27
REMARK    4  A    between atoms: C_27  and  C_28
REMARK                            x       y       z     vdW  Elec       q    Type
REMARK                         _______ _______ _______ _____ _____    ______ ____
ROOT
ATOM      1  N   UNL     1       1.899   5.151   0.738  0.00  0.00    -0.269 N 
ATOM      2  C   UNL     1       1.909   5.191  -0.657  0.00  0.00    +0.042 A 
ATOM      3  C   UNL     1       2.530   6.073  -1.538  0.00  0.00    +0.024 A 
ATOM      4  C   UNL     1       2.391   5.906  -2.901  0.00  0.00    +0.002 A 
ATOM      5  C   UNL     1       1.635   4.862  -3.402  0.00  0.00    +0.000 A 
ATOM      6  C   UNL     1       1.015   3.982  -2.534  0.00  0.00    +0.008 A 
ATOM      7  C   UNL     1       1.152   4.145  -1.174  0.00  0.00    +0.011 A 
ATOM      8  C   UNL     1       0.626   3.386   0.015  0.00  0.00    +0.174 C 
ATOM      9  C   UNL     1       1.168   4.125   1.212  0.00  0.00    +0.253 C 
ATOM     10  O   UNL     1       0.982   3.848   2.378  0.00  0.00    -0.272 OA
ATOM     11  C   UNL     1      -0.874   3.350   0.028  0.00  0.00    +0.084 A 
ATOM     12  C   UNL     1      -1.901   4.396   0.043  0.00  0.00    +0.199 A 
ATOM     13  O   UNL     1      -1.609   5.579   0.041  0.00  0.00    -0.287 OA
ATOM     14  C   UNL     1      -3.307   3.946   0.061  0.00  0.00    +0.064 A 
ATOM     15  C   UNL     1      -4.363   4.856   0.081  0.00  0.00    +0.015 A 
ATOM     16  C   UNL     1      -5.651   4.398   0.098  0.00  0.00    +0.001 A 
ATOM     17  C   UNL     1      -5.910   3.034   0.097  0.00  0.00    +0.004 A 
ATOM     18  C   UNL     1      -4.879   2.120   0.077  0.00  0.00    +0.047 A 
ATOM     19  C   UNL     1      -3.560   2.563   0.058  0.00  0.00    +0.139 A 
ATOM     20  O   UNL     1      -2.542   1.685   0.036  0.00  0.00    -0.450 OA
ATOM     21  C   UNL     1      -1.244   2.044   0.018  0.00  0.00    +0.200 A 
ATOM     22  C   UNL     1      -0.014   1.211   0.009  0.00  0.00    +0.284 C 
ATOM     23  O   UNL     1       0.002  -0.004   0.002  0.00  0.00    -0.267 OA
ATOM     24  N   UNL     1       1.079   1.996   0.003  0.00  0.00    -0.266 N 
ENDROOT
BRANCH   1  26
ATOM     25  C   UNL     1       4.018   5.611   1.869  0.00  0.00    +0.025 C 
ATOM     26  C   UNL     1       2.601   6.116   1.588  0.00  0.00    +0.110 C 
ENDBRANCH   1  26
BRANCH  24  27
ATOM     27  C   UNL     1       2.471   1.541  -0.014  0.00  0.00    +0.184 C 
BRANCH  27  28
ATOM     28  C   UNL     1       2.935   1.393  -1.440  0.00  0.00    +0.122 A 
ATOM     29  C   UNL     1       3.516   2.354  -2.182  0.00  0.00    +0.046 A 
ATOM     30  C   UNL     1       3.785   1.787  -3.449  0.00  0.00    +0.041 A 
ATOM     31  C   UNL     1       3.351   0.514  -3.406  0.00  0.00    +0.195 A 
ATOM     32  O   UNL     1       2.843   0.280  -2.185  0.00  0.00    -0.466 OA
ENDBRANCH  27  28
ENDBRANCH  24  27
TORSDOF 3
