REMARK  Name = ZINC38552836
REMARK  2 active torsions:
REMARK  status: ('A' for Active; 'I' for Inactive)
REMARK    1  A    between atoms: C_6  and  C_7
REMARK    2  A    between atoms: C_19  and  C_21
REMARK                            x       y       z     vdW  Elec       q    Type
REMARK                         _______ _______ _______ _____ _____    ______ ____
ROOT
ATOM      1  C   UNL     1      -1.407  -0.684   0.749  0.00  0.00    +0.079 C 
ATOM      2  N   UNL     1      -2.523  -0.075   0.539  0.00  0.00    -0.176 NA
ATOM      3  N   UNL     1      -3.696  -0.550   0.467  0.00  0.00    -0.258 N 
ATOM      4  C   UNL     1      -4.072  -1.720   0.943  0.00  0.00    +0.151 C 
ATOM      5  S   UNL     1      -2.857  -2.718   1.757  0.00  0.00    -0.085 S 
ATOM      6  C   UNL     1      -1.325  -2.184   0.917  0.00  0.00    +0.134 C 
ATOM      7  N   UNL     1      -5.368  -2.152   0.811  0.00  0.00    -0.307 N 
ATOM      8  C   UNL     1      -6.442  -1.206   0.476  0.00  0.00    +0.126 C 
ATOM      9  C   UNL     1      -7.165  -1.710  -0.779  0.00  0.00    +0.127 C 
ATOM     10  N   UNL     1      -7.503  -3.127  -0.589  0.00  0.00    -0.295 N 
ATOM     11  C   UNL     1      -6.429  -4.073  -0.254  0.00  0.00    +0.127 C 
ATOM     12  C   UNL     1      -5.705  -3.571   0.995  0.00  0.00    +0.126 C 
ATOM     13  C   UNL     1      -8.776  -3.552  -0.718  0.00  0.00    +0.247 C 
ATOM     14  O   UNL     1      -9.060  -4.706  -0.463  0.00  0.00    -0.270 OA
ATOM     15  H   UNL     1      -4.371  -0.008   0.028  0.00  0.00    +0.191 HD
ENDROOT
BRANCH   1  21
ATOM     16  C   UNL     1      -0.213   1.497   0.669  0.00  0.00    +0.011 A 
ATOM     17  C   UNL     1       0.951   2.232   0.738  0.00  0.00    +0.020 A 
ATOM     18  C   UNL     1       2.163   1.597   0.957  0.00  0.00    +0.041 A 
ATOM     19  C   UNL     1       2.215   0.221   1.108  0.00  0.00    +0.020 A 
ATOM     20  C   UNL     1       1.058  -0.527   1.042  0.00  0.00    +0.011 A 
ATOM     21  C   UNL     1      -0.169   0.107   0.821  0.00  0.00    -0.001 A 
ATOM     22 CL   UNL     1       3.624   2.531   1.042  0.00  0.00    -0.084 Cl
ENDBRANCH   1  21
BRANCH  13  23
ATOM     23  C   UNL     1      -9.826  -2.615  -1.170  0.00  0.00    +0.037 A 
ATOM     24  C   UNL     1      -9.565  -1.719  -2.208  0.00  0.00    +0.014 A 
ATOM     25  C   UNL     1     -10.549  -0.847  -2.626  0.00  0.00    +0.016 A 
ATOM     26  C   UNL     1     -11.792  -0.859  -2.017  0.00  0.00    +0.018 A 
ATOM     27  C   UNL     1     -12.057  -1.745  -0.987  0.00  0.00    +0.016 A 
ATOM     28  C   UNL     1     -11.083  -2.626  -0.565  0.00  0.00    +0.014 A 
ATOM     29 BR   UNL     1     -13.135   0.341  -2.595  0.00  0.00    -0.050 Br
ENDBRANCH  13  23
TORSDOF 2
