REMARK  Name = ZINC61807222
REMARK  9 active torsions:
REMARK  status: ('A' for Active; 'I' for Inactive)
REMARK    1  A    between atoms: C_1  and  C_2
REMARK    2  A    between atoms: C_2  and  C_3
REMARK    3  A    between atoms: C_6  and  S_10
REMARK    4  A    between atoms: C_8  and  N_9
REMARK    5  A    between atoms: S_10  and  N_13
REMARK    6  A    between atoms: N_13  and  C_14
REMARK    7  A    between atoms: N_13  and  C_18
REMARK    8  A    between atoms: C_14  and  C_15
REMARK    9  A    between atoms: C_18  and  C_19
REMARK                            x       y       z     vdW  Elec       q    Type
REMARK                         _______ _______ _______ _____ _____    ______ ____
ROOT
ATOM      1  S   UNL     1      -5.662  -2.096   0.053  0.00  0.00    +0.062 S 
ATOM      2  O   UNL     1      -5.905  -2.650  -1.233  0.00  0.00    -0.153 OA
ATOM      3  O   UNL     1      -5.801  -2.854   1.247  0.00  0.00    -0.153 OA
ENDROOT
BRANCH   1   7
ATOM      4  C   UNL     1      -1.412  -0.526   0.013  0.00  0.00    -0.027 A 
ATOM      5  C   UNL     1      -2.015  -0.864   1.208  0.00  0.00    +0.007 A 
ATOM      6  C   UNL     1      -3.312  -1.343   1.219  0.00  0.00    +0.029 A 
ATOM      7  C   UNL     1      -4.010  -1.485   0.034  0.00  0.00    +0.107 A 
ATOM      8  C   UNL     1      -3.413  -1.148  -1.165  0.00  0.00    +0.051 A 
ATOM      9  C   UNL     1      -2.112  -0.662  -1.179  0.00  0.00    +0.030 A 
BRANCH   9  10
ATOM     10  N   UNL     1      -1.507  -0.315  -2.390  0.00  0.00    -0.358 N 
ATOM     11  H   UNL     1      -0.597   0.021  -2.398  0.00  0.00    +0.142 HD
ATOM     12  H   UNL     1      -1.997  -0.410  -3.221  0.00  0.00    +0.142 HD
ENDBRANCH   9  10
BRANCH   4  14
ATOM     13  C   UNL     1      -0.019   1.526   0.010  0.00  0.00    +0.009 C 
ATOM     14  C   UNL     1       0.002  -0.004   0.002  0.00  0.00    +0.033 C 
ENDBRANCH   4  14
ENDBRANCH   1   7
BRANCH   1  15
ATOM     15  N   UNL     1      -6.667  -0.788   0.202  0.00  0.00    -0.159 NA
BRANCH  15  16
ATOM     16  C   UNL     1      -7.164  -0.106  -0.995  0.00  0.00    +0.205 C 
BRANCH  16  17
ATOM     17  C   UNL     1      -8.521  -0.653  -1.358  0.00  0.00    +0.226 C 
ATOM     18  O   UNL     1      -9.023  -1.527  -0.682  0.00  0.00    -0.275 OA
ATOM     19  N   UNL     1      -9.176  -0.171  -2.432  0.00  0.00    -0.328 N 
ATOM     20  H   UNL     1      -8.775   0.527  -2.972  0.00  0.00    +0.145 HD
ATOM     21  H   UNL     1     -10.050  -0.523  -2.666  0.00  0.00    +0.145 HD
ENDBRANCH  16  17
ENDBRANCH  15  16
BRANCH  15  22
ATOM     22  C   UNL     1      -7.058  -0.314   1.532  0.00  0.00    +0.205 C 
BRANCH  22  23
ATOM     23  C   UNL     1      -6.136   0.799   1.959  0.00  0.00    +0.226 C 
ATOM     24  O   UNL     1      -5.240   1.160   1.225  0.00  0.00    -0.275 OA
ATOM     25  N   UNL     1      -6.307   1.394   3.156  0.00  0.00    -0.328 N 
ATOM     26  H   UNL     1      -7.023   1.105   3.743  0.00  0.00    +0.145 HD
ATOM     27  H   UNL     1      -5.713   2.110   3.431  0.00  0.00    +0.145 HD
ENDBRANCH  22  23
ENDBRANCH  15  22
ENDBRANCH   1  15
TORSDOF 8
