REMARK  Name = ZINC39460010
REMARK  4 active torsions:
REMARK  status: ('A' for Active; 'I' for Inactive)
REMARK    1  A    between atoms: C_1  and  S_2
REMARK    2  A    between atoms: S_2  and  C_3
REMARK    3  A    between atoms: C_5  and  C_13
REMARK    4  A    between atoms: C_18  and  O_19
REMARK                            x       y       z     vdW  Elec       q    Type
REMARK                         _______ _______ _______ _____ _____    ______ ____
ROOT
ATOM      1  C   UNL     1       0.848  -0.411  -1.489  0.00  0.00    +0.013 A 
ATOM      2  C   UNL     1       1.055  -1.757  -1.842  0.00  0.00    +0.041 A 
ATOM      3  C   UNL     1       1.710  -2.068  -2.994  0.00  0.00    +0.061 A 
ATOM      4  N   UNL     1       2.175  -1.075  -3.823  0.00  0.00    -0.287 N 
ATOM      5  C   UNL     1       1.987   0.246  -3.505  0.00  0.00    +0.140 A 
ATOM      6  C   UNL     1       1.309   0.590  -2.322  0.00  0.00    +0.061 A 
ATOM      7  N   UNL     1       2.530   0.981  -4.467  0.00  0.00    -0.235 NA
ATOM      8  C   UNL     1       3.059   0.173  -5.391  0.00  0.00    +0.146 A 
ATOM      9  C   UNL     1       2.852  -1.107  -5.016  0.00  0.00    +0.105 A 
ATOM     10  I   UNL     1       3.454  -2.821  -6.059  0.00  0.00    -0.022 I 
ENDROOT
BRANCH   3  11
ATOM     11  C   UNL     1       1.923  -3.483  -3.357  0.00  0.00    +0.040 A 
ATOM     12  C   UNL     1       1.161  -4.071  -4.368  0.00  0.00    +0.013 A 
ATOM     13  C   UNL     1       1.365  -5.393  -4.702  0.00  0.00    +0.001 A 
ATOM     14  C   UNL     1       2.321  -6.142  -4.037  0.00  0.00    +0.004 A 
ATOM     15  C   UNL     1       3.082  -5.571  -3.034  0.00  0.00    +0.046 A 
ATOM     16  C   UNL     1       2.894  -4.242  -2.691  0.00  0.00    +0.126 A 
BRANCH  16  17
ATOM     17  O   UNL     1       3.645  -3.679  -1.710  0.00  0.00    -0.506 OA
ATOM     18  H   UNL     1       3.261  -3.759  -0.826  0.00  0.00    +0.292 HD
ENDBRANCH  16  17
ENDBRANCH   3  11
BRANCH   1  20
ATOM     19  C   UNL     1      -0.022   1.810   0.012  0.00  0.00    +0.090 C 
ATOM     20  S   UNL     1       0.002  -0.004   0.002  0.00  0.00    -0.128 S 
ENDBRANCH   1  20
TORSDOF 3
