REMARK  Name = ZINC66404115
REMARK  11 active torsions:
REMARK  status: ('A' for Active; 'I' for Inactive)
REMARK    1  A    between atoms: C_1  and  C_2
REMARK    2  A    between atoms: C_2  and  C_3
REMARK    3  A    between atoms: C_3  and  C_5
REMARK    4  A    between atoms: C_3  and  O_6
REMARK    5  A    between atoms: O_6  and  C_7
REMARK    6  A    between atoms: C_11  and  N_13
REMARK    7  A    between atoms: N_16  and  C_17
REMARK    8  A    between atoms: C_17  and  C_18
REMARK    9  A    between atoms: C_18  and  C_20
REMARK   10  A    between atoms: C_18  and  O_31
REMARK   11  A    between atoms: C_20  and  N_21
REMARK                            x       y       z     vdW  Elec       q    Type
REMARK                         _______ _______ _______ _____ _____    ______ ____
ROOT
ATOM      1  N   UNL     1      -0.083   1.671  -6.779  0.00  0.00    -0.269 N 
ATOM      2  C   UNL     1       0.535   1.768  -7.973  0.00  0.00    +0.304 C 
ATOM      3  O   UNL     1       1.712   1.480  -8.073  0.00  0.00    -0.253 OA
ATOM      4  N   UNL     1      -0.151   2.184  -9.055  0.00  0.00    -0.297 N 
ATOM      5  H   UNL     1      -1.000   1.973  -6.681  0.00  0.00    +0.156 HD
ATOM      6  H   UNL     1      -1.090   2.414  -8.975  0.00  0.00    +0.150 HD
ENDROOT
BRANCH   1  11
ATOM      7  C   UNL     1       0.591  -0.164  -3.660  0.00  0.00    +0.123 A 
ATOM      8  C   UNL     1       1.950   0.074  -3.507  0.00  0.00    +0.046 A 
ATOM      9  C   UNL     1       2.629   0.838  -4.437  0.00  0.00    +0.005 A 
ATOM     10  C   UNL     1       1.957   1.368  -5.522  0.00  0.00    +0.023 A 
ATOM     11  C   UNL     1       0.597   1.134  -5.680  0.00  0.00    +0.038 A 
ATOM     12  C   UNL     1      -0.085   0.362  -4.750  0.00  0.00    +0.069 A 
BRANCH   7  13
ATOM     13  O   UNL     1      -0.075  -0.915  -2.745  0.00  0.00    -0.489 OA
BRANCH  13  14
ATOM     14  C   UNL     1       0.653  -1.320  -1.584  0.00  0.00    +0.170 C 
ATOM     15  C   UNL     1       1.315  -2.675  -1.843  0.00  0.00    +0.052 C 
BRANCH  14  17
ATOM     16  C   UNL     1      -0.871  -0.059  -0.058  0.00  0.00    +0.007 C 
ATOM     17  C   UNL     1      -0.304  -1.439  -0.397  0.00  0.00    +0.041 C 
ENDBRANCH  14  17
ENDBRANCH  13  14
ENDBRANCH   7  13
ENDBRANCH   1  11
BRANCH   4  18
ATOM     18  C   UNL     1       0.521   2.290 -10.353  0.00  0.00    +0.135 C 
BRANCH  18  19
ATOM     19  C   UNL     1      -0.476   2.781 -11.405  0.00  0.00    +0.115 C 
BRANCH  19  20
ATOM     20  O   UNL     1      -0.890   4.111 -11.084  0.00  0.00    -0.392 OA
ATOM     21  H   UNL     1      -0.167   4.752 -11.055  0.00  0.00    +0.210 HD
ENDBRANCH  19  20
BRANCH  19  22
ATOM     22  C   UNL     1       0.191   2.772 -12.782  0.00  0.00    -0.045 C 
BRANCH  22  23
ATOM     23  N   UNL     1      -0.765   3.247 -13.791  0.00  0.00    +0.384 N 
ATOM     24  C   UNL     1      -1.861   2.275 -13.927  0.00  0.00    -0.074 C 
ATOM     25  C   UNL     1      -2.986   2.919 -14.739  0.00  0.00    +0.017 C 
ATOM     26  C   UNL     1      -2.426   3.502 -16.011  0.00  0.00    -0.048 A 
ATOM     27  C   UNL     1      -3.302   3.820 -17.038  0.00  0.00    +0.004 A 
ATOM     28  C   UNL     1      -2.827   4.359 -18.217  0.00  0.00    +0.000 A 
ATOM     29  C   UNL     1      -1.472   4.584 -18.373  0.00  0.00    +0.000 A 
ATOM     30  C   UNL     1      -0.599   4.266 -17.352  0.00  0.00    +0.002 A 
ATOM     31  C   UNL     1      -1.075   3.723 -16.168  0.00  0.00    -0.061 A 
ATOM     32  C   UNL     1      -0.086   3.384 -15.083  0.00  0.00    -0.043 C 
ATOM     33  H   UNL     1      -1.138   4.141 -13.509  0.00  0.00    -0.081 HD
ENDBRANCH  22  23
ENDBRANCH  19  22
ENDBRANCH  18  19
ENDBRANCH   4  18
TORSDOF 9
