REMARK  Name = ZINC62824268
REMARK  4 active torsions:
REMARK  status: ('A' for Active; 'I' for Inactive)
REMARK    1  A    between atoms: C_1  and  C_2
REMARK    2  A    between atoms: C_7  and  C_8
REMARK    3  A    between atoms: C_10  and  C_13
REMARK    4  A    between atoms: C_18  and  N_19
REMARK                            x       y       z     vdW  Elec       q    Type
REMARK                         _______ _______ _______ _____ _____    ______ ____
ROOT
ATOM      1  C   UNL     1       0.120   1.506   0.001  0.00  0.00    +0.044 C 
ATOM      2  C   UNL     1       0.106  -0.000  -0.005  0.00  0.00    -0.045 A 
ATOM      3  C   UNL     1       0.116  -0.680  -1.206  0.00  0.00    +0.031 A 
ATOM      4  C   UNL     1       0.102  -2.067  -1.214  0.00  0.00    +0.067 A 
ATOM      5  C   UNL     1       0.080  -2.776   0.001  0.00  0.00    +0.090 A 
ATOM      6  C   UNL     1       0.071  -2.071   1.208  0.00  0.00    +0.033 A 
ATOM      7  C   UNL     1       0.089  -0.694   1.196  0.00  0.00    -0.045 A 
ATOM      8  C   UNL     1       0.085   0.065   2.498  0.00  0.00    +0.044 C 
ATOM      9  N   UNL     1       0.071  -4.096  -0.306  0.00  0.00    -0.228 NA
ATOM     10  C   UNL     1       0.086  -4.246  -1.609  0.00  0.00    +0.141 A 
ATOM     11  N   UNL     1       0.106  -3.019  -2.216  0.00  0.00    -0.338 N 
ATOM     12  H   UNL     1       0.121  -2.850  -3.171  0.00  0.00    +0.167 HD
ENDROOT
BRANCH  10  13
ATOM     13  C   UNL     1       0.084  -5.543  -2.315  0.00  0.00    +0.039 A 
ATOM     14  C   UNL     1      -0.022  -5.585  -3.706  0.00  0.00    +0.027 A 
ATOM     15  C   UNL     1      -0.025  -6.800  -4.359  0.00  0.00    +0.014 A 
ATOM     16  C   UNL     1       0.078  -7.980  -3.641  0.00  0.00    +0.016 A 
ATOM     17  C   UNL     1       0.183  -7.954  -2.265  0.00  0.00    +0.024 A 
ATOM     18  C   UNL     1       0.193  -6.740  -1.592  0.00  0.00    +0.035 A 
ATOM     19  I   UNL     1      -0.184  -6.860  -6.447  0.00  0.00    -0.044 I 
BRANCH  18  20
ATOM     20  N   UNL     1       0.305  -6.711  -0.204  0.00  0.00    -0.357 N 
ATOM     21  H   UNL     1       0.224  -5.869   0.272  0.00  0.00    +0.142 HD
ATOM     22  H   UNL     1       0.465  -7.532   0.287  0.00  0.00    +0.142 HD
ENDBRANCH  18  20
ENDBRANCH  10  13
TORSDOF 2
