REMARK  Name = ZINC27223946
REMARK  11 active torsions:
REMARK  status: ('A' for Active; 'I' for Inactive)
REMARK    1  A    between atoms: C_1  and  C_2
REMARK    2  A    between atoms: C_2  and  C_3
REMARK    3  A    between atoms: C_3  and  O_4
REMARK    4  A    between atoms: O_4  and  C_5
REMARK    5  A    between atoms: C_6  and  O_26
REMARK    6  A    between atoms: C_8  and  C_12
REMARK    7  A    between atoms: N_14  and  C_15
REMARK    8  A    between atoms: C_18  and  C_21
REMARK    9  A    between atoms: N_23  and  C_24
REMARK   10  A    between atoms: N_23  and  C_25
REMARK   11  A    between atoms: O_26  and  C_27
REMARK                            x       y       z     vdW  Elec       q    Type
REMARK                         _______ _______ _______ _____ _____    ______ ____
ROOT
ATOM      1  C   UNL     1       3.171  -2.502  -0.628  0.00  0.00    +0.248 C 
ATOM      2  O   UNL     1       4.106  -1.797  -0.302  0.00  0.00    -0.270 OA
ATOM      3  N   UNL     1       1.931  -1.981  -0.709  0.00  0.00    -0.282 N 
ATOM      4  H   UNL     1       1.072  -2.636  -0.918  0.00  0.00    +0.155 HD
ENDROOT
BRANCH   1   8
ATOM      5  C   UNL     1       3.809  -6.610  -1.514  0.00  0.00    +0.176 A 
ATOM      6  C   UNL     1       4.884  -5.805  -1.141  0.00  0.00    +0.163 A 
ATOM      7  C   UNL     1       4.680  -4.470  -0.853  0.00  0.00    +0.062 A 
ATOM      8  C   UNL     1       3.394  -3.928  -0.936  0.00  0.00    +0.042 A 
ATOM      9  C   UNL     1       2.320  -4.741  -1.306  0.00  0.00    +0.032 A 
ATOM     10  C   UNL     1       2.531  -6.072  -1.597  0.00  0.00    +0.064 A 
ATOM     11 BR   UNL     1       1.077  -7.169  -2.105  0.00  0.00    -0.046 Br
BRANCH   6  12
ATOM     12  O   UNL     1       6.134  -6.335  -1.061  0.00  0.00    -0.491 OA
ATOM     13  C   UNL     1       7.189  -5.453  -0.672  0.00  0.00    +0.277 C 
ENDBRANCH   6  12
BRANCH   5  14
ATOM     14  O   UNL     1       4.011  -7.923  -1.798  0.00  0.00    -0.487 OA
BRANCH  14  15
ATOM     15  C   UNL     1       3.904  -8.845  -0.711  0.00  0.00    +0.229 C 
BRANCH  15  17
ATOM     16  C   UNL     1       4.048 -11.252  -0.057  0.00  0.00    +0.007 C 
ATOM     17  C   UNL     1       4.162 -10.264  -1.220  0.00  0.00    +0.038 C 
ENDBRANCH  15  17
ENDBRANCH  14  15
ENDBRANCH   5  14
ENDBRANCH   1   8
BRANCH   3  18
ATOM     18  C   UNL     1       1.736  -0.613  -0.529  0.00  0.00    +0.034 A 
ATOM     19  C   UNL     1       2.744   0.283  -0.874  0.00  0.00    +0.024 A 
ATOM     20  C   UNL     1       2.555   1.635  -0.696  0.00  0.00    +0.015 A 
ATOM     21  C   UNL     1       1.350   2.107  -0.169  0.00  0.00    +0.037 A 
ATOM     22  C   UNL     1       0.341   1.205   0.177  0.00  0.00    +0.015 A 
ATOM     23  C   UNL     1       0.536  -0.146  -0.003  0.00  0.00    +0.024 A 
BRANCH  21  24
ATOM     24  C   UNL     1       1.144   3.556   0.023  0.00  0.00    +0.246 C 
ATOM     25  O   UNL     1       1.399   4.331  -0.879  0.00  0.00    -0.270 OA
ATOM     26  N   UNL     1       0.674   4.020   1.198  0.00  0.00    -0.304 N 
ATOM     27  C   UNL     1       0.573   5.463   1.427  0.00  0.00    +0.132 C 
ATOM     28  C   UNL     1       0.264   3.081   2.245  0.00  0.00    +0.132 C 
ENDBRANCH  21  24
ENDBRANCH   3  18
TORSDOF 7
