REMARK  Name = ZINC23125905
REMARK  7 active torsions:
REMARK  status: ('A' for Active; 'I' for Inactive)
REMARK    1  A    between atoms: C_1  and  C_2
REMARK    2  A    between atoms: C_2  and  C_3
REMARK    3  A    between atoms: C_2  and  C_4
REMARK    4  A    between atoms: C_7  and  N_10
REMARK    5  A    between atoms: N_19  and  C_22
REMARK    6  A    between atoms: C_22  and  C_23
REMARK    7  A    between atoms: C_25  and  C_28
REMARK                            x       y       z     vdW  Elec       q    Type
REMARK                         _______ _______ _______ _____ _____    ______ ____
ROOT
ATOM      1  N   UNL     1      -5.323  -1.969   0.042  0.00  0.00    -0.207 N 
ATOM      2  C   UNL     1      -6.224  -1.695   1.031  0.00  0.00    +0.255 C 
ATOM      3  O   UNL     1      -5.984  -1.237   2.127  0.00  0.00    -0.272 OA
ATOM      4  C   UNL     1      -7.568  -2.073   0.491  0.00  0.00    +0.246 C 
ATOM      5  C   UNL     1      -7.081  -3.273  -0.413  0.00  0.00    +0.216 C 
ATOM      6  C   UNL     1      -5.848  -2.766  -0.943  0.00  0.00    +0.251 C 
ATOM      7  O   UNL     1      -5.368  -2.996  -2.032  0.00  0.00    -0.273 OA
ATOM      8  N   UNL     1      -8.311  -3.886  -0.664  0.00  0.00    -0.214 N 
ATOM      9  N   UNL     1      -8.953  -3.789   0.613  0.00  0.00    -0.082 NA
ATOM     10  N   UNL     1      -8.538  -2.797   1.292  0.00  0.00    -0.156 NA
ENDROOT
BRANCH   1  14
ATOM     11  C   UNL     1      -1.412  -0.526   0.013  0.00  0.00    -0.045 A 
ATOM     12  C   UNL     1      -2.258  -0.203   1.058  0.00  0.00    +0.006 A 
ATOM     13  C   UNL     1      -3.555  -0.680   1.070  0.00  0.00    +0.024 A 
ATOM     14  C   UNL     1      -4.008  -1.483   0.032  0.00  0.00    +0.044 A 
ATOM     15  C   UNL     1      -3.155  -1.805  -1.016  0.00  0.00    +0.024 A 
ATOM     16  C   UNL     1      -1.862  -1.321  -1.025  0.00  0.00    +0.006 A 
BRANCH  11  18
ATOM     17  C   UNL     1      -0.019   1.526   0.010  0.00  0.00    +0.012 C 
ATOM     18  C   UNL     1       0.002  -0.004   0.002  0.00  0.00    +0.013 C 
ATOM     19  C   UNL     1       0.742  -0.511   1.242  0.00  0.00    +0.012 C 
ENDBRANCH  11  18
ENDBRANCH   1  14
BRANCH   8  20
ATOM     20  C   UNL     1      -8.814  -4.474  -1.909  0.00  0.00    +0.227 C 
BRANCH  20  21
ATOM     21  C   UNL     1      -8.436  -5.932  -1.964  0.00  0.00    +0.247 A 
ATOM     22  N   UNL     1      -9.153  -6.921  -1.512  0.00  0.00    -0.190 NA
ATOM     23  C   UNL     1      -8.516  -8.086  -1.725  0.00  0.00    +0.202 A 
ATOM     24  N   UNL     1      -7.377  -7.837  -2.322  0.00  0.00    -0.056 NA
ATOM     25  O   UNL     1      -7.310  -6.429  -2.491  0.00  0.00    -0.336 OA
BRANCH  23  26
ATOM     26  C   UNL     1      -9.020  -9.430  -1.347  0.00  0.00    +0.023 A 
ATOM     27  C   UNL     1     -10.256  -9.562  -0.718  0.00  0.00    +0.012 A 
ATOM     28  C   UNL     1     -10.720 -10.814  -0.368  0.00  0.00    +0.002 A 
ATOM     29  C   UNL     1      -9.960 -11.937  -0.641  0.00  0.00    +0.015 A 
ATOM     30  C   UNL     1      -8.732 -11.813  -1.266  0.00  0.00    +0.019 A 
ATOM     31  C   UNL     1      -8.261 -10.565  -1.625  0.00  0.00    +0.027 A 
ATOM     32 BR   UNL     1      -7.699 -13.354  -1.634  0.00  0.00    -0.050 Br
ENDBRANCH  23  26
ENDBRANCH  20  21
ENDBRANCH   8  20
TORSDOF 5
