REMARK  Name = ZINC16626684
REMARK  9 active torsions:
REMARK  status: ('A' for Active; 'I' for Inactive)
REMARK    1  A    between atoms: C_1  and  C_2
REMARK    2  A    between atoms: C_2  and  C_3
REMARK    3  A    between atoms: N_5  and  C_6
REMARK    4  A    between atoms: C_8  and  C_13
REMARK    5  A    between atoms: C_11  and  C_12
REMARK    6  A    between atoms: N_18  and  C_20
REMARK    7  A    between atoms: C_20  and  C_22
REMARK    8  A    between atoms: C_20  and  C_23
REMARK    9  A    between atoms: N_25  and  C_26
REMARK                            x       y       z     vdW  Elec       q    Type
REMARK                         _______ _______ _______ _____ _____    ______ ____
ROOT
ATOM      1  C   UNL     1       5.883  -4.867   0.540  0.00  0.00    +0.092 A 
ATOM      2  C   UNL     1       6.377  -5.589  -0.572  0.00  0.00    +0.035 A 
ATOM      3  C   UNL     1       5.518  -5.870  -1.593  0.00  0.00    +0.074 A 
ATOM      4  C   UNL     1       4.183  -5.426  -1.474  0.00  0.00    +0.268 A 
ATOM      5  O   UNL     1       3.377  -5.658  -2.361  0.00  0.00    -0.266 OA
ATOM      6  N   UNL     1       3.806  -4.741  -0.378  0.00  0.00    -0.217 N 
ATOM      7  N   UNL     1       4.628  -4.485   0.574  0.00  0.00    -0.168 NA
ENDROOT
BRANCH   1  10
ATOM      8  C   UNL     1       8.957  -4.638   2.700  0.00  0.00    +0.037 A 
ATOM      9  C   UNL     1       8.117  -4.950   1.641  0.00  0.00    +0.033 A 
ATOM     10  C   UNL     1       6.786  -4.542   1.671  0.00  0.00    +0.004 A 
ATOM     11  C   UNL     1       6.303  -3.831   2.768  0.00  0.00    +0.010 A 
ATOM     12  C   UNL     1       7.144  -3.529   3.820  0.00  0.00    +0.006 A 
ATOM     13  C   UNL     1       8.467  -3.929   3.789  0.00  0.00    -0.029 A 
ATOM     14  C   UNL     1       9.380  -3.596   4.941  0.00  0.00    +0.045 C 
BRANCH   8  17
ATOM     15  C   UNL     1      10.967  -5.074   1.503  0.00  0.00    +0.217 C 
ATOM     16  O   UNL     1      10.387  -4.835   0.465  0.00  0.00    -0.275 OA
ATOM     17  N   UNL     1      10.296  -5.043   2.672  0.00  0.00    -0.285 N 
ATOM     18  H   UNL     1      10.742  -5.300   3.494  0.00  0.00    +0.155 HD
BRANCH  15  20
ATOM     19  C   UNL     1      12.950  -5.376   0.046  0.00  0.00    +0.013 C 
ATOM     20  C   UNL     1      12.436  -5.408   1.486  0.00  0.00    +0.093 C 
ENDBRANCH  15  20
ENDBRANCH   8  17
ENDBRANCH   1  10
BRANCH   6  21
ATOM     21  C   UNL     1       2.420  -4.281  -0.267  0.00  0.00    +0.194 C 
ATOM     22  C   UNL     1       1.774  -4.903   0.973  0.00  0.00    +0.043 C 
BRANCH  21  23
ATOM     23  C   UNL     1       2.397  -2.779  -0.144  0.00  0.00    +0.242 C 
ATOM     24  O   UNL     1       3.437  -2.154  -0.150  0.00  0.00    -0.273 OA
ATOM     25  N   UNL     1       1.222  -2.130  -0.029  0.00  0.00    -0.284 N 
ATOM     26  H   UNL     1       0.397  -2.632   0.061  0.00  0.00    +0.155 HD
BRANCH  25  27
ATOM     27  C   UNL     1       1.191  -0.730  -0.038  0.00  0.00    +0.034 A 
ATOM     28  C   UNL     1       2.196  -0.017  -0.677  0.00  0.00    +0.026 A 
ATOM     29  C   UNL     1       2.165   1.364  -0.685  0.00  0.00    +0.040 A 
ATOM     30  C   UNL     1       1.132   2.037  -0.055  0.00  0.00    +0.124 A 
ATOM     31  C   UNL     1       0.128   1.328   0.584  0.00  0.00    +0.040 A 
ATOM     32  C   UNL     1       0.156  -0.053   0.593  0.00  0.00    +0.026 A 
ATOM     33  F   UNL     1       1.102   3.388  -0.064  0.00  0.00    -0.205 F 
ENDBRANCH  25  27
ENDBRANCH  21  23
ENDBRANCH   6  21
TORSDOF 6
