REMARK  Name = ZINC32506520
REMARK  5 active torsions:
REMARK  status: ('A' for Active; 'I' for Inactive)
REMARK    1  A    between atoms: C_4  and  C_7
REMARK    2  A    between atoms: C_7  and  N_9
REMARK    3  A    between atoms: N_11  and  C_22
REMARK    4  A    between atoms: C_24  and  C_32
REMARK    5  A    between atoms: C_26  and  C_28
REMARK                            x       y       z     vdW  Elec       q    Type
REMARK                         _______ _______ _______ _____ _____    ______ ____
ROOT
ATOM      1  N   UNL     1       3.618  -1.977   0.249  0.00  0.00    -0.155 NA
ATOM      2  C   UNL     1       4.724  -2.706   0.197  0.00  0.00    +0.154 C 
ATOM      3  N   UNL     1       6.043  -2.256   0.210  0.00  0.00    -0.276 N 
ATOM      4  C   UNL     1       7.023  -3.277   0.391  0.00  0.00    +0.116 C 
ATOM      5  C   UNL     1       8.517  -3.098   0.153  0.00  0.00    +0.190 C 
ATOM      6  S   UNL     1       9.034  -4.852   0.477  0.00  0.00    -0.028 S 
ATOM      7  O   UNL     1       9.982  -5.244  -0.506  0.00  0.00    -0.174 OA
ATOM      8  O   UNL     1       9.353  -4.994   1.854  0.00  0.00    -0.174 OA
ATOM      9  C   UNL     1       7.425  -5.701   0.138  0.00  0.00    +0.182 C 
ATOM     10  C   UNL     1       6.607  -4.541  -0.453  0.00  0.00    +0.097 C 
ATOM     11  S   UNL     1       4.856  -4.498   0.101  0.00  0.00    -0.086 S 
ENDROOT
BRANCH   3  12
ATOM     12  C   UNL     1       6.381  -0.907   0.059  0.00  0.00    +0.037 A 
ATOM     13  C   UNL     1       6.888  -0.192   1.136  0.00  0.00    +0.036 A 
ATOM     14  C   UNL     1       7.220   1.140   0.984  0.00  0.00    +0.057 A 
ATOM     15  C   UNL     1       7.048   1.761  -0.240  0.00  0.00    +0.024 A 
ATOM     16  C   UNL     1       6.543   1.052  -1.314  0.00  0.00    +0.057 A 
ATOM     17  C   UNL     1       6.215  -0.282  -1.170  0.00  0.00    +0.036 A 
BRANCH  16  18
ATOM     18  C   UNL     1       6.357   1.733  -2.646  0.00  0.00    +0.417 C 
ATOM     19  F   UNL     1       6.857   3.038  -2.576  0.00  0.00    -0.166 F 
ATOM     20  F   UNL     1       7.046   1.022  -3.634  0.00  0.00    -0.166 F 
ATOM     21  F   UNL     1       4.995   1.771  -2.963  0.00  0.00    -0.166 F 
ENDBRANCH  16  18
BRANCH  14  22
ATOM     22  C   UNL     1       7.770   1.917   2.152  0.00  0.00    +0.417 C 
ATOM     23  F   UNL     1       9.165   1.813   2.166  0.00  0.00    -0.166 F 
ATOM     24  F   UNL     1       7.404   3.262   2.030  0.00  0.00    -0.166 F 
ATOM     25  F   UNL     1       7.251   1.398   3.343  0.00  0.00    -0.166 F 
ENDBRANCH  14  22
ENDBRANCH   3  12
BRANCH   1  26
ATOM     26  C   UNL     1       3.695  -0.660   0.477  0.00  0.00    +0.269 C 
ATOM     27  O   UNL     1       4.310  -0.244   1.443  0.00  0.00    -0.268 OA
BRANCH  26  31
ATOM     28  C   UNL     1       1.798   2.070  -2.171  0.00  0.00    +0.000 A 
ATOM     29  C   UNL     1       2.394   2.535  -1.012  0.00  0.00    +0.001 A 
ATOM     30  C   UNL     1       3.012   1.654  -0.149  0.00  0.00    +0.013 A 
ATOM     31  C   UNL     1       3.034   0.291  -0.446  0.00  0.00    +0.039 A 
ATOM     32  C   UNL     1       2.431  -0.172  -1.615  0.00  0.00    +0.013 A 
ATOM     33  C   UNL     1       1.817   0.720  -2.471  0.00  0.00    +0.001 A 
ENDBRANCH  26  31
ENDBRANCH   1  26
TORSDOF 5
