REMARK  Name = ZINC03237080
REMARK  7 active torsions:
REMARK  status: ('A' for Active; 'I' for Inactive)
REMARK    1  A    between atoms: C_4  and  C_7
REMARK    2  A    between atoms: C_10  and  N_18
REMARK    3  A    between atoms: N_18  and  N_19
REMARK    4  A    between atoms: C_20  and  C_22
REMARK    5  A    between atoms: C_22  and  N_23
REMARK    6  A    between atoms: N_23  and  C_24
REMARK    7  A    between atoms: C_28  and  C_30
REMARK                            x       y       z     vdW  Elec       q    Type
REMARK                         _______ _______ _______ _____ _____    ______ ____
ROOT
ATOM      1  N   UNL     1      -0.966   1.736  -3.578  0.00  0.00    -0.264 N 
ATOM      2  H   UNL     1      -1.761   2.283  -3.479  0.00  0.00    +0.170 HD
ENDROOT
BRANCH   1   5
ATOM      3  C   UNL     1       1.091   0.337  -6.400  0.00  0.00    +0.229 C 
ATOM      4  C   UNL     1       0.602   0.664  -5.013  0.00  0.00    +0.047 C 
ATOM      5  C   UNL     1      -0.497   1.413  -4.851  0.00  0.00    +0.055 C 
ATOM      6  C   UNL     1      -1.196   1.891  -6.068  0.00  0.00    +0.039 A 
ATOM      7  C   UNL     1      -2.118   2.929  -6.014  0.00  0.00    +0.013 A 
ATOM      8  C   UNL     1      -2.746   3.343  -7.173  0.00  0.00    +0.001 A 
ATOM      9  C   UNL     1      -2.460   2.729  -8.380  0.00  0.00    +0.004 A 
ATOM     10  C   UNL     1      -1.544   1.694  -8.442  0.00  0.00    +0.046 A 
ATOM     11  C   UNL     1      -0.907   1.270  -7.290  0.00  0.00    +0.131 A 
ATOM     12  O   UNL     1      -0.003   0.258  -7.314  0.00  0.00    -0.479 OA
BRANCH   3  16
ATOM     13  C   UNL     1       3.145  -3.407  -6.330  0.00  0.00    +0.000 A 
ATOM     14  C   UNL     1       3.853  -2.228  -6.190  0.00  0.00    +0.000 A 
ATOM     15  C   UNL     1       3.188  -1.016  -6.213  0.00  0.00    +0.007 A 
ATOM     16  C   UNL     1       1.815  -0.984  -6.375  0.00  0.00    -0.003 A 
ATOM     17  C   UNL     1       1.107  -2.163  -6.510  0.00  0.00    +0.007 A 
ATOM     18  C   UNL     1       1.772  -3.375  -6.492  0.00  0.00    +0.000 A 
ENDBRANCH   3  16
ENDBRANCH   1   5
BRANCH   1  19
ATOM     19  N   UNL     1      -0.288   1.272  -2.443  0.00  0.00    -0.235 N 
ATOM     20  C   UNL     1      -0.742   1.585  -1.213  0.00  0.00    +0.246 C 
ATOM     21  O   UNL     1      -1.736   2.268  -1.088  0.00  0.00    -0.273 OA
ATOM     22  H   UNL     1       0.507   0.726  -2.543  0.00  0.00    +0.173 HD
BRANCH  20  23
ATOM     23  C   UNL     1      -0.013   1.086   0.008  0.00  0.00    +0.199 C 
BRANCH  23  24
ATOM     24  N   UNL     1      -0.698   1.558   1.213  0.00  0.00    -0.335 N 
ATOM     25  H   UNL     1      -1.495   2.106   1.135  0.00  0.00    +0.147 HD
BRANCH  24  26
ATOM     26  C   UNL     1      -0.205   1.221   2.475  0.00  0.00    +0.028 A 
ATOM     27  C   UNL     1       0.937   0.437   2.590  0.00  0.00    +0.023 A 
ATOM     28  C   UNL     1       1.423   0.105   3.839  0.00  0.00    +0.002 A 
ATOM     29  C   UNL     1       0.774   0.553   4.976  0.00  0.00    +0.012 A 
ATOM     30  C   UNL     1      -0.362   1.333   4.866  0.00  0.00    +0.057 A 
ATOM     31  C   UNL     1      -0.850   1.672   3.619  0.00  0.00    +0.035 A 
BRANCH  30  32
ATOM     32  C   UNL     1      -1.064   1.819   6.107  0.00  0.00    +0.417 C 
ATOM     33  F   UNL     1      -0.386   1.354   7.239  0.00  0.00    -0.166 F 
ATOM     34  F   UNL     1      -1.083   3.217   6.116  0.00  0.00    -0.166 F 
ATOM     35  F   UNL     1      -2.377   1.334   6.120  0.00  0.00    -0.166 F 
ENDBRANCH  30  32
ENDBRANCH  24  26
ENDBRANCH  23  24
ENDBRANCH  20  23
ENDBRANCH   1  19
TORSDOF 7
