REMARK  Name = ZINC39722625
REMARK  7 active torsions:
REMARK  status: ('A' for Active; 'I' for Inactive)
REMARK    1  A    between atoms: C_1  and  C_2
REMARK    2  A    between atoms: C_3  and  C_37
REMARK    3  A    between atoms: N_11  and  C_32
REMARK    4  A    between atoms: C_12  and  S_15
REMARK    5  A    between atoms: S_15  and  C_16
REMARK    6  A    between atoms: C_16  and  C_17
REMARK    7  A    between atoms: C_25  and  C_29
REMARK                            x       y       z     vdW  Elec       q    Type
REMARK                         _______ _______ _______ _____ _____    ______ ____
ROOT
ATOM      1  C   UNL     1      -0.018   1.503   0.010  0.00  0.00    +0.041 C 
ATOM      2  C   UNL     1       0.002  -0.004   0.002  0.00  0.00    -0.049 C 
ATOM      3  C   UNL     1       0.006  -0.662  -1.142  0.00  0.00    -0.016 C 
ATOM      4  S   UNL     1       0.060  -2.393  -0.708  0.00  0.00    -0.110 S 
ATOM      5  C   UNL     1       0.515  -2.202   1.065  0.00  0.00    +0.134 C 
ATOM      6  C   UNL     1       0.025  -0.768   1.297  0.00  0.00    +0.129 C 
ATOM      7  C   UNL     1      -1.344  -0.736   1.905  0.00  0.00    +0.227 C 
ATOM      8  O   UNL     1      -1.841   0.347   2.132  0.00  0.00    -0.275 OA
ATOM      9  N   UNL     1      -2.049  -1.824   2.212  0.00  0.00    -0.273 N 
ATOM     10  C   UNL     1      -1.563  -3.170   1.946  0.00  0.00    +0.206 C 
ATOM     11  N   UNL     1      -0.106  -3.222   1.866  0.00  0.00    -0.277 NA
ATOM     12  C   UNL     1      -0.029  -0.074  -2.529  0.00  0.00    +0.051 C 
ATOM     13  H   UNL     1       0.233  -4.138   1.611  0.00  0.00    +0.126 HD
ENDROOT
BRANCH   9  14
ATOM     14  C   UNL     1      -3.361  -1.660   2.842  0.00  0.00    +0.078 C 
ATOM     15  C   UNL     1      -4.271  -0.791   1.949  0.00  0.00    +0.022 C 
ATOM     16  C   UNL     1      -5.083   0.064   2.953  0.00  0.00    +0.002 C 
ATOM     17  C   UNL     1      -4.040   0.384   4.052  0.00  0.00    +0.002 C 
ATOM     18  C   UNL     1      -3.215  -0.913   4.179  0.00  0.00    +0.022 C 
ENDBRANCH   9  14
BRANCH  10  19
ATOM     19  S   UNL     1      -2.115  -4.273   3.276  0.00  0.00    -0.115 S 
BRANCH  19  20
ATOM     20  C   UNL     1      -1.379  -3.559   4.772  0.00  0.00    +0.146 C 
BRANCH  20  21
ATOM     21  C   UNL     1      -1.764  -4.392   5.968  0.00  0.00    +0.120 A 
ATOM     22  N   UNL     1      -1.310  -4.012   7.190  0.00  0.00    -0.310 N 
ATOM     23  H   UNL     1      -0.754  -3.222   7.272  0.00  0.00    +0.170 HD
ATOM     24  C   UNL     1      -1.629  -4.725   8.296  0.00  0.00    +0.259 A 
ATOM     25  O   UNL     1      -1.230  -4.396   9.397  0.00  0.00    -0.267 OA
ATOM     26  C   UNL     1      -2.477  -5.915   8.113  0.00  0.00    +0.065 A 
ATOM     27  C   UNL     1      -2.861  -6.715   9.188  0.00  0.00    +0.016 A 
ATOM     28  C   UNL     1      -3.649  -7.810   8.975  0.00  0.00    +0.016 A 
ATOM     29  C   UNL     1      -4.077  -8.138   7.682  0.00  0.00    +0.065 A 
ATOM     30  C   UNL     1      -3.706  -7.353   6.596  0.00  0.00    +0.043 A 
ATOM     31  C   UNL     1      -2.900  -6.231   6.804  0.00  0.00    +0.079 A 
ATOM     32  N   UNL     1      -2.517  -5.432   5.777  0.00  0.00    -0.233 NA
BRANCH  29  33
ATOM     33  C   UNL     1      -4.930  -9.327   7.471  0.00  0.00    +0.387 C 
ATOM     34  O   UNL     1      -5.259 -10.020   8.422  0.00  0.00    -0.241 OA
ATOM     35  O   UNL     1      -5.306  -9.617   6.344  0.00  0.00    -0.241 OA
ENDBRANCH  29  33
ENDBRANCH  20  21
ENDBRANCH  19  20
ENDBRANCH  10  19
TORSDOF 5
