REMARK  Name = ZINC55169490
REMARK  6 active torsions:
REMARK  status: ('A' for Active; 'I' for Inactive)
REMARK    1  A    between atoms: C_3  and  S_19
REMARK    2  A    between atoms: C_6  and  C_7
REMARK    3  A    between atoms: C_7  and  C_8
REMARK    4  A    between atoms: C_8  and  N_9
REMARK    5  A    between atoms: C_10  and  C_12
REMARK    6  A    between atoms: S_19  and  N_22
REMARK                            x       y       z     vdW  Elec       q    Type
REMARK                         _______ _______ _______ _____ _____    ______ ____
ROOT
ATOM      1  C   UNL     1      -1.745  -1.028  -1.429  0.00  0.00    +0.109 C 
ENDROOT
BRANCH   1   2
ATOM      2  N   UNL     1      -3.004  -1.778  -1.420  0.00  0.00    -0.308 N 
ATOM      3  C   UNL     1      -3.594  -2.117  -2.584  0.00  0.00    +0.283 C 
ATOM      4  O   UNL     1      -3.082  -1.800  -3.640  0.00  0.00    -0.267 OA
ATOM      5  H   UNL     1      -3.412  -2.031  -0.578  0.00  0.00    +0.149 HD
BRANCH   3   6
ATOM      6  C   UNL     1      -4.864  -2.873  -2.575  0.00  0.00    +0.238 A 
ATOM      7  N   UNL     1      -5.544  -3.272  -3.663  0.00  0.00    -0.190 NA
ATOM      8  C   UNL     1      -6.625  -3.919  -3.296  0.00  0.00    +0.209 A 
ATOM      9  N   UNL     1      -6.660  -3.947  -1.944  0.00  0.00    -0.246 N 
ATOM     10  H   UNL     1      -7.342  -4.357  -1.389  0.00  0.00    +0.192 HD
ATOM     11  N   UNL     1      -5.511  -3.271  -1.501  0.00  0.00    -0.146 NA
ATOM     12  N   UNL     1      -7.566  -4.474  -4.144  0.00  0.00    -0.328 N 
ATOM     13  H   UNL     1      -7.455  -4.403  -5.105  0.00  0.00    +0.145 HD
ATOM     14  H   UNL     1      -8.337  -4.935  -3.777  0.00  0.00    +0.145 HD
ENDBRANCH   3   6
ENDBRANCH   1   2
BRANCH   1  15
ATOM     15  C   UNL     1      -1.293  -0.775   0.011  0.00  0.00    +0.054 C 
BRANCH  15  21
ATOM     16  C   UNL     1      -0.017   1.378   0.010  0.00  0.00    +0.005 A 
ATOM     17  C   UNL     1       1.171   2.086   0.002  0.00  0.00    +0.029 A 
ATOM     18  C   UNL     1       2.377   1.411  -0.013  0.00  0.00    +0.105 A 
ATOM     19  C   UNL     1       2.396   0.029  -0.020  0.00  0.00    +0.029 A 
ATOM     20  C   UNL     1       1.208  -0.679  -0.012  0.00  0.00    +0.005 A 
ATOM     21  C   UNL     1       0.002  -0.004   0.002  0.00  0.00    -0.046 A 
BRANCH  18  22
ATOM     22  S   UNL     1       3.891   2.312  -0.024  0.00  0.00    +0.056 S 
ATOM     23  O   UNL     1       4.872   1.453  -0.588  0.00  0.00    -0.153 OA
ATOM     24  O   UNL     1       3.597   3.593  -0.566  0.00  0.00    -0.153 OA
BRANCH  22  25
ATOM     25  N   UNL     1       4.327   2.556   1.555  0.00  0.00    -0.204 NA
ATOM     26  H   UNL     1       3.768   2.215   2.271  0.00  0.00    +0.144 HD
ATOM     27  H   UNL     1       5.142   3.039   1.764  0.00  0.00    +0.144 HD
ENDBRANCH  22  25
ENDBRANCH  18  22
ENDBRANCH  15  21
ENDBRANCH   1  15
TORSDOF 6
