REMARK  Name = ZINC10136014
REMARK  9 active torsions:
REMARK  status: ('A' for Active; 'I' for Inactive)
REMARK    1  A    between atoms: C_1  and  C_2
REMARK    2  A    between atoms: C_2  and  C_3
REMARK    3  A    between atoms: N_11  and  C_15
REMARK    4  A    between atoms: C_15  and  C_16
REMARK    5  A    between atoms: C_16  and  O_18
REMARK    6  A    between atoms: O_18  and  C_19
REMARK    7  A    between atoms: C_19  and  C_20
REMARK    8  A    between atoms: N_25  and  C_26
REMARK    9  A    between atoms: C_32  and  C_34
REMARK                            x       y       z     vdW  Elec       q    Type
REMARK                         _______ _______ _______ _____ _____    ______ ____
ROOT
ATOM      1  C   UNL     1       0.301   6.543   6.880  0.00  0.00    +0.326 C 
ATOM      2  O   UNL     1      -0.865   6.480   6.569  0.00  0.00    -0.249 OA
ENDROOT
BRANCH   1   3
ATOM      3  C   UNL     1       1.366   6.532   5.814  0.00  0.00    +0.238 C 
BRANCH   3  12
ATOM      4  C   UNL     1      -0.750   3.109   1.275  0.00  0.00    -0.011 C 
ATOM      5  C   UNL     1       0.682   3.638   1.389  0.00  0.00    +0.006 C 
ATOM      6  C   UNL     1       0.661   5.168   1.385  0.00  0.00    +0.035 C 
ATOM      7  C   UNL     1      -0.179   5.671   2.554  0.00  0.00    +0.113 C 
ATOM      8  C   UNL     1      -1.603   5.132   2.468  0.00  0.00    +0.035 C 
ATOM      9  C   UNL     1      -1.573   3.601   2.468  0.00  0.00    +0.006 C 
ATOM     10  C   UNL     1       0.455   5.278   3.868  0.00  0.00    +0.247 C 
ATOM     11  O   UNL     1       0.668   4.156   4.274  0.00  0.00    -0.273 OA
ATOM     12  N   UNL     1       0.736   6.440   4.495  0.00  0.00    -0.213 N 
ATOM     13  C   UNL     1       0.368   7.497   3.761  0.00  0.00    +0.310 C 
ATOM     14  O   UNL     1       0.518   8.650   4.114  0.00  0.00    -0.252 OA
ATOM     15  N   UNL     1      -0.187   7.139   2.587  0.00  0.00    -0.285 N 
ATOM     16  H   UNL     1      -0.526   7.734   1.899  0.00  0.00    +0.151 HD
BRANCH   4  18
ATOM     17  C   UNL     1      -0.013   1.086   0.008  0.00  0.00    +0.004 C 
ATOM     18  C   UNL     1      -0.729   1.579   1.267  0.00  0.00    -0.000 C 
ENDBRANCH   4  18
ENDBRANCH   3  12
ENDBRANCH   1   3
BRANCH   1  19
ATOM     19  O   UNL     1       0.647   6.623   8.174  0.00  0.00    -0.454 OA
BRANCH  19  20
ATOM     20  C   UNL     1      -0.431   6.629   9.146  0.00  0.00    +0.328 C 
BRANCH  20  21
ATOM     21  C   UNL     1       0.145   6.723  10.536  0.00  0.00    +0.258 C 
ATOM     22  O   UNL     1       1.346   6.779  10.691  0.00  0.00    -0.272 OA
ATOM     23  N   UNL     1      -0.675   6.744  11.605  0.00  0.00    -0.237 N 
ATOM     24  C   UNL     1      -0.159   6.828  12.848  0.00  0.00    +0.306 C 
ATOM     25  O   UNL     1       1.045   6.885  13.004  0.00  0.00    -0.252 OA
ATOM     26  N   UNL     1      -0.979   6.849  13.917  0.00  0.00    -0.296 N 
ATOM     27  H   UNL     1      -1.636   6.698  11.481  0.00  0.00    +0.159 HD
ATOM     28  H   UNL     1      -1.940   6.803  13.793  0.00  0.00    +0.151 HD
BRANCH  26  29
ATOM     29  C   UNL     1      -0.419   6.940  15.268  0.00  0.00    +0.077 C 
ATOM     30  C   UNL     1      -0.050   5.540  15.762  0.00  0.00    +0.022 C 
ATOM     31  C   UNL     1      -1.302   4.662  15.788  0.00  0.00    +0.002 C 
ATOM     32  C   UNL     1      -2.338   5.278  16.730  0.00  0.00    +0.000 C 
ATOM     33  C   UNL     1      -2.708   6.678  16.235  0.00  0.00    +0.005 C 
ATOM     34  C   UNL     1      -1.456   7.557  16.209  0.00  0.00    +0.006 C 
ATOM     35  C   UNL     1      -1.825   8.957  15.714  0.00  0.00    +0.009 C 
ENDBRANCH  26  29
ENDBRANCH  20  21
ENDBRANCH  19  20
ENDBRANCH   1  19
TORSDOF 7
