REMARK  Name = ZINC66210190
REMARK  8 active torsions:
REMARK  status: ('A' for Active; 'I' for Inactive)
REMARK    1  A    between atoms: C_1  and  C_2
REMARK    2  A    between atoms: C_2  and  C_3
REMARK    3  A    between atoms: C_3  and  C_4
REMARK    4  A    between atoms: N_6  and  C_7
REMARK    5  A    between atoms: C_11  and  N_13
REMARK    6  A    between atoms: C_14  and  C_16
REMARK    7  A    between atoms: C_16  and  N_17
REMARK    8  A    between atoms: N_17  and  C_18
REMARK                            x       y       z     vdW  Elec       q    Type
REMARK                         _______ _______ _______ _____ _____    ______ ____
ROOT
ATOM      1  N   UNL     1      -5.085  -6.834  -0.369  0.00  0.00    -0.283 N 
ATOM      2  C   UNL     1      -6.110  -6.269  -1.038  0.00  0.00    +0.234 C 
ATOM      3  O   UNL     1      -5.999  -5.145  -1.480  0.00  0.00    -0.274 OA
ATOM      4  H   UNL     1      -5.196  -7.706   0.042  0.00  0.00    +0.155 HD
ENDROOT
BRANCH   1   9
ATOM      5  C   UNL     1      -2.619  -4.118  -0.067  0.00  0.00    +0.035 A 
ATOM      6  C   UNL     1      -1.433  -4.842  -0.066  0.00  0.00    +0.025 A 
ATOM      7  C   UNL     1      -1.462  -6.219  -0.164  0.00  0.00    +0.023 A 
ATOM      8  C   UNL     1      -2.672  -6.882  -0.265  0.00  0.00    +0.062 A 
ATOM      9  C   UNL     1      -3.861  -6.163  -0.267  0.00  0.00    +0.054 A 
ATOM     10  C   UNL     1      -3.834  -4.780  -0.162  0.00  0.00    +0.048 A 
ATOM     11 CL   UNL     1      -2.704  -8.613  -0.389  0.00  0.00    -0.082 Cl
BRANCH   5  14
ATOM     12  C   UNL     1      -1.591  -2.027  -0.551  0.00  0.00    +0.217 C 
ATOM     13  O   UNL     1      -0.679  -2.614  -1.092  0.00  0.00    -0.275 OA
ATOM     14  N   UNL     1      -2.587  -2.722   0.033  0.00  0.00    -0.285 N 
ATOM     15  H   UNL     1      -3.282  -2.255   0.523  0.00  0.00    +0.155 HD
BRANCH  12  16
ATOM     16  C   UNL     1      -1.612  -0.520  -0.531  0.00  0.00    +0.096 C 
BRANCH  16  18
ATOM     17  C   UNL     1      -0.399   1.546  -1.238  0.00  0.00    +0.004 C 
ATOM     18  C   UNL     1      -0.377   0.017  -1.258  0.00  0.00    +0.006 C 
ENDBRANCH  16  18
ENDBRANCH  12  16
ENDBRANCH   5  14
ENDBRANCH   1   9
BRANCH   2  19
ATOM     19  C   UNL     1      -7.393  -7.034  -1.236  0.00  0.00    +0.198 C 
BRANCH  19  20
ATOM     20  N   UNL     1      -8.343  -6.208  -1.987  0.00  0.00    -0.335 N 
ATOM     21  H   UNL     1      -8.091  -5.315  -2.270  0.00  0.00    +0.147 HD
BRANCH  20  22
ATOM     22  C   UNL     1      -9.611  -6.706  -2.295  0.00  0.00    +0.030 A 
ATOM     23  C   UNL     1      -9.975  -7.982  -1.884  0.00  0.00    +0.043 A 
ATOM     24  C   UNL     1     -11.231  -8.473  -2.190  0.00  0.00    +0.044 A 
ATOM     25  C   UNL     1     -12.124  -7.694  -2.903  0.00  0.00    +0.040 A 
ATOM     26  C   UNL     1     -11.764  -6.423  -3.314  0.00  0.00    +0.044 A 
ATOM     27  C   UNL     1     -10.511  -5.925  -3.006  0.00  0.00    +0.043 A 
ATOM     28 CL   UNL     1     -12.888  -5.449  -4.210  0.00  0.00    -0.083 Cl
ATOM     29 CL   UNL     1     -11.687 -10.068  -1.678  0.00  0.00    -0.083 Cl
ENDBRANCH  20  22
ENDBRANCH  19  20
ENDBRANCH   2  19
TORSDOF 7
