REMARK  Name = ZINC40010651
REMARK  7 active torsions:
REMARK  status: ('A' for Active; 'I' for Inactive)
REMARK    1  A    between atoms: C_1  and  C_2
REMARK    2  A    between atoms: C_9  and  C_14
REMARK    3  A    between atoms: C_18  and  O_35
REMARK    4  A    between atoms: C_19  and  O_33
REMARK    5  A    between atoms: C_25  and  C_27
REMARK    6  A    between atoms: O_33  and  C_34
REMARK    7  A    between atoms: O_35  and  C_36
REMARK                            x       y       z     vdW  Elec       q    Type
REMARK                         _______ _______ _______ _____ _____    ______ ____
ROOT
ATOM      1  C   UNL     1      -1.003  -4.891   2.692  0.00  0.00    +0.123 C 
ATOM      2  C   UNL     1      -0.672  -4.291   4.036  0.00  0.00    -0.019 A 
ATOM      3  C   UNL     1      -0.955  -2.945   4.229  0.00  0.00    +0.055 A 
ATOM      4  C   UNL     1      -0.666  -2.333   5.435  0.00  0.00    +0.162 A 
ATOM      5  C   UNL     1      -0.086  -3.074   6.460  0.00  0.00    +0.162 A 
ATOM      6  C   UNL     1       0.189  -4.414   6.264  0.00  0.00    +0.053 A 
ATOM      7  C   UNL     1      -0.108  -5.028   5.053  0.00  0.00    -0.037 A 
ATOM      8  C   UNL     1       0.196  -6.498   4.924  0.00  0.00    +0.054 C 
ATOM      9  C   UNL     1       0.277  -6.911   3.455  0.00  0.00    +0.113 C 
ATOM     10  N   UNL     1      -0.895  -6.352   2.764  0.00  0.00    -0.289 N 
ATOM     11  C   UNL     1      -1.832  -7.152   2.217  0.00  0.00    +0.247 C 
ATOM     12  O   UNL     1      -2.827  -6.667   1.715  0.00  0.00    -0.270 OA
ENDROOT
BRANCH   1  21
ATOM     13  C   UNL     1      -0.757   1.460  -0.565  0.00  0.00    +0.044 C 
ATOM     14  C   UNL     1      -0.725  -0.047  -0.549  0.00  0.00    -0.050 A 
ATOM     15  C   UNL     1      -1.041  -0.749  -1.712  0.00  0.00    +0.005 A 
ATOM     16  C   UNL     1      -1.034  -2.106  -1.774  0.00  0.00    +0.024 A 
ATOM     17  C   UNL     1      -0.699  -2.871  -0.641  0.00  0.00    +0.040 A 
ATOM     18  N   UNL     1      -0.694  -4.202  -0.713  0.00  0.00    -0.284 N 
ATOM     19  C   UNL     1      -0.390  -4.979   0.312  0.00  0.00    +0.226 C 
ATOM     20  O   UNL     1      -0.403  -6.189   0.186  0.00  0.00    -0.275 OA
ATOM     21  C   UNL     1      -0.026  -4.359   1.642  0.00  0.00    +0.123 C 
ATOM     22  C   UNL     1      -0.029  -2.845   1.730  0.00  0.00    -0.003 C 
ATOM     23  C   UNL     1      -0.360  -2.155   0.602  0.00  0.00    -0.007 A 
ATOM     24  C   UNL     1      -0.384  -0.692   0.596  0.00  0.00    +0.012 A 
ATOM     25  H   UNL     1      -0.925  -4.619  -1.557  0.00  0.00    +0.155 HD
ENDBRANCH   1  21
BRANCH  11  26
ATOM     26  C   UNL     1      -1.650  -8.622   2.229  0.00  0.00    +0.040 A 
ATOM     27  C   UNL     1      -1.325  -9.296   3.411  0.00  0.00    +0.033 A 
ATOM     28  C   UNL     1      -1.165 -10.668   3.377  0.00  0.00    +0.111 A 
ATOM     29  N   UNL     1      -1.313 -11.339   2.252  0.00  0.00    -0.263 NA
ATOM     30  C   UNL     1      -1.618 -10.742   1.117  0.00  0.00    +0.111 A 
ATOM     31  C   UNL     1      -1.802  -9.374   1.061  0.00  0.00    +0.033 A 
ENDBRANCH  11  26
BRANCH   5  32
ATOM     32  O   UNL     1       0.209  -2.483   7.649  0.00  0.00    -0.491 OA
ATOM     33  C   UNL     1       0.802  -3.307   8.654  0.00  0.00    +0.277 C 
ENDBRANCH   5  32
BRANCH   4  34
ATOM     34  O   UNL     1      -0.946  -1.014   5.617  0.00  0.00    -0.491 OA
ATOM     35  C   UNL     1      -1.540  -0.319   4.519  0.00  0.00    +0.277 C 
ENDBRANCH   4  34
TORSDOF 4
