REMARK  Name = ZINC08764999
REMARK  6 active torsions:
REMARK  status: ('A' for Active; 'I' for Inactive)
REMARK    1  A    between atoms: C_1  and  C_2
REMARK    2  A    between atoms: C_6  and  C_34
REMARK    3  A    between atoms: C_7  and  C_11
REMARK    4  A    between atoms: C_11  and  C_12
REMARK    5  A    between atoms: C_35  and  O_37
REMARK    6  A    between atoms: O_37  and  C_38
REMARK                            x       y       z     vdW  Elec       q    Type
REMARK                         _______ _______ _______ _____ _____    ______ ____
ROOT
ATOM      1  C   UNL     1       2.981   0.616  -0.867  0.00  0.00    +0.221 C 
ATOM      2  O   UNL     1       2.368   0.828  -1.892  0.00  0.00    -0.275 OA
ATOM      3  N   UNL     1       4.117  -0.109  -0.899  0.00  0.00    -0.294 N 
ATOM      4  C   UNL     1       4.800  -0.516   0.340  0.00  0.00    +0.109 C 
ATOM      5  C   UNL     1       5.487  -1.865   0.125  0.00  0.00    +0.023 C 
ATOM      6  C   UNL     1       6.613  -1.733  -0.905  0.00  0.00    +0.034 C 
ATOM      7  C   UNL     1       6.201  -0.694  -1.933  0.00  0.00    -0.053 C 
ATOM      8  C   UNL     1       7.114  -0.002  -2.540  0.00  0.00    -0.024 C 
ATOM      9  C   UNL     1       6.798   1.073  -3.544  0.00  0.00    -0.002 C 
ATOM     10  C   UNL     1       5.404   1.636  -3.237  0.00  0.00    +0.010 C 
ATOM     11  C   UNL     1       4.419   0.465  -3.278  0.00  0.00    -0.002 C 
ATOM     12  C   UNL     1       4.719  -0.529  -2.172  0.00  0.00    +0.103 C 
ATOM     13  C   UNL     1       4.463  -0.200  -4.648  0.00  0.00    -0.073 C 
ATOM     14  C   UNL     1       6.785   0.443  -4.945  0.00  0.00    -0.062 C 
ATOM     15  C   UNL     1       8.194  -0.081  -5.238  0.00  0.00    -0.015 C 
ATOM     16  C   UNL     1       8.214  -0.788  -6.594  0.00  0.00    -0.003 C 
ATOM     17  C   UNL     1       7.192  -1.929  -6.568  0.00  0.00    -0.019 C 
ATOM     18  C   UNL     1       5.811  -1.347  -6.268  0.00  0.00    -0.078 C 
ATOM     19  N   UNL     1       5.821  -0.686  -4.951  0.00  0.00    +0.382 N 
ATOM     20  H   UNL     1       6.102  -1.367  -4.235  0.00  0.00    -0.081 HD
ENDROOT
BRANCH   1  21
ATOM     21  C   UNL     1       2.473   1.164   0.442  0.00  0.00    +0.138 C 
BRANCH  21  28
ATOM     22  C   UNL     1      -3.753   5.956  -0.936  0.00  0.00    +0.044 C 
ATOM     23  C   UNL     1      -2.440   5.253  -0.710  0.00  0.00    -0.043 A 
ATOM     24  C   UNL     1      -2.429   3.902  -0.425  0.00  0.00    +0.050 A 
ATOM     25  C   UNL     1      -1.226   3.244  -0.215  0.00  0.00    +0.143 A 
ATOM     26  C   UNL     1      -0.021   3.964  -0.295  0.00  0.00    +0.062 A 
ATOM     27  C   UNL     1       1.243   3.260  -0.072  0.00  0.00    -0.026 A 
ATOM     28  C   UNL     1       1.198   1.931   0.205  0.00  0.00    +0.049 A 
ATOM     29  C   UNL     1      -0.047   1.271   0.269  0.00  0.00    +0.341 A 
ATOM     30  O   UNL     1      -0.074   0.079   0.518  0.00  0.00    -0.245 OA
ATOM     31  O   UNL     1      -1.202   1.921   0.059  0.00  0.00    -0.422 OA
ATOM     32  C   UNL     1       2.559   3.990  -0.148  0.00  0.00    +0.045 C 
ATOM     33  C   UNL     1      -0.043   5.337  -0.585  0.00  0.00    +0.131 A 
ATOM     34  C   UNL     1      -1.257   5.969  -0.790  0.00  0.00    +0.049 A 
BRANCH  33  35
ATOM     35  O   UNL     1       1.115   6.038  -0.664  0.00  0.00    -0.494 OA
ATOM     36  C   UNL     1       1.011   7.432  -0.964  0.00  0.00    +0.277 C 
ENDBRANCH  33  35
ENDBRANCH  21  28
ENDBRANCH   1  21
TORSDOF 3
