REMARK  Name = ZINC52314691
REMARK  6 active torsions:
REMARK  status: ('A' for Active; 'I' for Inactive)
REMARK    1  A    between atoms: C_3  and  N_14
REMARK    2  A    between atoms: C_4  and  S_10
REMARK    3  A    between atoms: C_6  and  N_7
REMARK    4  A    between atoms: S_10  and  N_13
REMARK    5  A    between atoms: N_14  and  C_15
REMARK    6  A    between atoms: C_15  and  C_16
REMARK                            x       y       z     vdW  Elec       q    Type
REMARK                         _______ _______ _______ _____ _____    ______ ____
ROOT
ATOM      1  N   UNL     1       3.580   2.124  -0.051  0.00  0.00    -0.338 N 
ATOM      2  H   UNL     1       4.425   1.649  -0.078  0.00  0.00    +0.146 HD
ENDROOT
BRANCH   1   5
ATOM      3  C   UNL     1      -0.020   1.384  -0.009  0.00  0.00    +0.034 A 
ATOM      4  C   UNL     1       1.167   2.091  -0.011  0.00  0.00    +0.027 A 
ATOM      5  C   UNL     1       2.378   1.412  -0.049  0.00  0.00    +0.054 A 
ATOM      6  C   UNL     1       2.391   0.024  -0.085  0.00  0.00    +0.128 A 
ATOM      7  C   UNL     1       1.202  -0.677  -0.083  0.00  0.00    +0.063 A 
ATOM      8  C   UNL     1      -0.003   0.002  -0.045  0.00  0.00    +0.128 A 
BRANCH   8   9
ATOM      9  N   UNL     1      -1.276  -0.752  -0.042  0.00  0.00    +0.056 N 
ATOM     10  O   UNL     1      -2.329  -0.160  -0.009  0.00  0.00    -0.126 OA
ATOM     11  O   UNL     1      -1.263  -1.961  -0.074  0.00  0.00    -0.126 OA
ENDBRANCH   8   9
BRANCH   6  12
ATOM     12  S   UNL     1       3.925  -0.843  -0.134  0.00  0.00    +0.058 S 
ATOM     13  O   UNL     1       4.737  -0.289   0.892  0.00  0.00    -0.153 OA
ATOM     14  O   UNL     1       3.608  -2.227  -0.192  0.00  0.00    -0.153 OA
BRANCH  12  15
ATOM     15  N   UNL     1       4.655  -0.464  -1.572  0.00  0.00    -0.203 NA
ATOM     16  H   UNL     1       4.218   0.139  -2.194  0.00  0.00    +0.144 HD
ATOM     17  H   UNL     1       5.520  -0.845  -1.792  0.00  0.00    +0.144 HD
ENDBRANCH  12  15
ENDBRANCH   6  12
ENDBRANCH   1   5
BRANCH   1  18
ATOM     18  C   UNL     1       3.563   3.589  -0.014  0.00  0.00    +0.138 C 
BRANCH  18  19
ATOM     19  C   UNL     1       4.978   4.107  -0.025  0.00  0.00    -0.014 A 
ATOM     20  C   UNL     1       5.660   4.313   1.168  0.00  0.00    +0.010 A 
ATOM     21  C   UNL     1       6.957   4.790   1.113  0.00  0.00    +0.042 A 
ATOM     22  C   UNL     1       7.532   5.046  -0.127  0.00  0.00    +0.099 A 
ATOM     23  N   UNL     1       6.849   4.837  -1.242  0.00  0.00    -0.349 N 
ATOM     24  C   UNL     1       5.612   4.378  -1.221  0.00  0.00    +0.089 A 
ATOM     25  N   UNL     1       8.834   5.526  -0.197  0.00  0.00    -0.317 N 
ATOM     26  C   UNL     1       9.507   5.680  -1.494  0.00  0.00    +0.106 C 
ATOM     27  C   UNL     1      10.030   7.115  -1.610  0.00  0.00    +0.019 C 
ATOM     28  C   UNL     1      10.915   7.431  -0.402  0.00  0.00    +0.003 C 
ATOM     29  C   UNL     1      10.087   7.322   0.881  0.00  0.00    +0.019 C 
ATOM     30  C   UNL     1       9.562   5.895   1.025  0.00  0.00    +0.106 C 
ATOM     31  H   UNL     1       7.270   5.024  -2.096  0.00  0.00    +0.167 HD
ENDBRANCH  18  19
ENDBRANCH   1  18
TORSDOF 6
