REMARK  Name = ZINC64050586
REMARK  5 active torsions:
REMARK  status: ('A' for Active; 'I' for Inactive)
REMARK    1  A    between atoms: C_1  and  C_2
REMARK    2  A    between atoms: C_10  and  C_14
REMARK    3  A    between atoms: C_14  and  C_16
REMARK    4  A    between atoms: C_14  and  S_17
REMARK    5  A    between atoms: S_17  and  C_18
REMARK                            x       y       z     vdW  Elec       q    Type
REMARK                         _______ _______ _______ _____ _____    ______ ____
ROOT
ATOM      1  C   UNL     1      -1.840  -6.069   5.162  0.00  0.00    +0.116 C 
ATOM      2  C   UNL     1      -1.467  -7.499   4.769  0.00  0.00    +0.027 C 
ENDROOT
BRANCH   1  11
ATOM      3  C   UNL     1      -0.019   1.526   0.010  0.00  0.00    +0.007 C 
ATOM      4  C   UNL     1       0.002  -0.004   0.002  0.00  0.00    -0.012 C 
ATOM      5  C   UNL     1      -1.433  -0.525  -0.005  0.00  0.00    +0.008 C 
ATOM      6  C   UNL     1      -1.445  -2.057  -0.096  0.00  0.00    +0.033 C 
ATOM      7  C   UNL     1      -0.553  -2.568   1.033  0.00  0.00    -0.042 C 
ATOM      8  C   UNL     1      -0.928  -3.448   1.962  0.00  0.00    +0.071 C 
ATOM      9  C   UNL     1      -0.010  -3.701   3.104  0.00  0.00    +0.112 C 
ATOM     10  N   UNL     1      -0.317  -4.516   4.085  0.00  0.00    -0.226 NA
ATOM     11  C   UNL     1      -1.498  -5.132   4.032  0.00  0.00    +0.137 C 
ATOM     12  N   UNL     1      -2.385  -4.990   3.081  0.00  0.00    -0.160 NA
ATOM     13  C   UNL     1      -2.232  -4.190   2.010  0.00  0.00    +0.271 C 
ATOM     14  O   UNL     1      -3.086  -4.076   1.147  0.00  0.00    -0.268 OA
ATOM     15  S   UNL     1       1.412  -2.712   2.765  0.00  0.00    -0.097 S 
ATOM     16  C   UNL     1       0.874  -2.028   1.151  0.00  0.00    +0.080 C 
ATOM     17  C   UNL     1       0.760  -0.504   1.236  0.00  0.00    +0.022 C 
ENDBRANCH   1  11
BRANCH   1  18
ATOM     18  S   UNL     1      -0.914  -5.589   6.647  0.00  0.00    -0.078 S 
BRANCH  18  19
ATOM     19  C   UNL     1      -1.526  -6.669   7.898  0.00  0.00    +0.182 C 
ATOM     20  N   UNL     1      -2.452  -7.553   7.569  0.00  0.00    -0.151 NA
ATOM     21  C   UNL     1      -2.978  -8.406   8.447  0.00  0.00    +0.272 C 
ATOM     22  O   UNL     1      -3.830  -9.210   8.108  0.00  0.00    -0.268 OA
ATOM     23  C   UNL     1      -2.491  -8.348   9.863  0.00  0.00    +0.071 C 
ATOM     24  C   UNL     1      -2.925  -9.064  10.913  0.00  0.00    -0.042 C 
ATOM     25  C   UNL     1      -4.146  -9.979  10.871  0.00  0.00    +0.033 C 
ATOM     26  C   UNL     1      -5.078  -9.524  12.003  0.00  0.00    +0.004 C 
ATOM     27  C   UNL     1      -4.318  -9.476  13.327  0.00  0.00    +0.002 C 
ATOM     28  C   UNL     1      -3.195  -8.437  13.273  0.00  0.00    +0.019 C 
ATOM     29  C   UNL     1      -2.170  -8.879  12.225  0.00  0.00    +0.079 C 
ATOM     30  S   UNL     1      -1.044  -7.489  11.824  0.00  0.00    -0.097 S 
ATOM     31  C   UNL     1      -1.448  -7.326  10.103  0.00  0.00    +0.112 C 
ATOM     32  N   UNL     1      -1.028  -6.559   9.130  0.00  0.00    -0.217 NA
ENDBRANCH  18  19
ENDBRANCH   1  18
TORSDOF 3
