REMARK  Name = ZINC16047976
REMARK  9 active torsions:
REMARK  status: ('A' for Active; 'I' for Inactive)
REMARK    1  A    between atoms: C_1  and  C_2
REMARK    2  A    between atoms: C_2  and  O_3
REMARK    3  A    between atoms: O_3  and  C_4
REMARK    4  A    between atoms: C_4  and  C_6
REMARK    5  A    between atoms: C_10  and  N_11
REMARK    6  A    between atoms: C_12  and  C_14
REMARK    7  A    between atoms: C_14  and  C_15
REMARK    8  A    between atoms: C_15  and  S_16
REMARK    9  A    between atoms: S_16  and  C_19
REMARK                            x       y       z     vdW  Elec       q    Type
REMARK                         _______ _______ _______ _____ _____    ______ ____
ROOT
ATOM      1  N   UNL     1      -1.168   2.053  -5.028  0.00  0.00    -0.279 N 
ATOM      2  C   UNL     1      -1.479   2.224  -3.728  0.00  0.00    +0.219 C 
ATOM      3  O   UNL     1      -2.506   2.791  -3.420  0.00  0.00    -0.275 OA
ATOM      4  H   UNL     1      -0.347   1.599  -5.274  0.00  0.00    +0.155 HD
ENDROOT
BRANCH   1   9
ATOM      5  C   UNL     1      -1.874   2.449  -7.391  0.00  0.00    +0.091 A 
ATOM      6  C   UNL     1      -2.927   3.023  -8.212  0.00  0.00    -0.021 A 
ATOM      7  C   UNL     1      -3.946   3.586  -7.528  0.00  0.00    -0.004 A 
ATOM      8  S   UNL     1      -3.529   3.357  -5.823  0.00  0.00    -0.077 S 
ATOM      9  C   UNL     1      -2.022   2.524  -6.013  0.00  0.00    +0.086 A 
ATOM     10  C   UNL     1      -5.157   4.256  -8.101  0.00  0.00    +0.043 C 
ATOM     11  C   UNL     1      -4.894   4.543  -9.586  0.00  0.00    +0.005 C 
ATOM     12  C   UNL     1      -4.333   3.278 -10.241  0.00  0.00    +0.005 C 
ATOM     13  C   UNL     1      -2.914   3.015  -9.736  0.00  0.00    +0.037 C 
BRANCH   5  14
ATOM     14  C   UNL     1      -0.702   1.811  -7.996  0.00  0.00    +0.342 C 
ATOM     15  O   UNL     1      -0.721   0.622  -8.251  0.00  0.00    -0.245 OA
BRANCH  14  16
ATOM     16  O   UNL     1       0.398   2.542  -8.270  0.00  0.00    -0.461 OA
BRANCH  16  18
ATOM     17  C   UNL     1       2.667   2.830  -9.104  0.00  0.00    +0.048 C 
ATOM     18  C   UNL     1       1.521   1.844  -8.868  0.00  0.00    +0.229 C 
ENDBRANCH  16  18
ENDBRANCH  14  16
ENDBRANCH   5  14
ENDBRANCH   1   9
BRANCH   2  19
ATOM     19  C   UNL     1      -0.551   1.712  -2.657  0.00  0.00    +0.119 C 
BRANCH  19  20
ATOM     20  C   UNL     1      -1.135   2.034  -1.279  0.00  0.00    +0.181 C 
BRANCH  20  21
ATOM     21  S   UNL     1      -0.017   1.417   0.010  0.00  0.00    -0.003 S 
ATOM     22  O   UNL     1       0.002  -0.004   0.002  0.00  0.00    -0.169 OA
ATOM     23  O   UNL     1       1.195   2.158   0.002  0.00  0.00    -0.169 OA
BRANCH  21  24
ATOM     24  C   UNL     1      -0.798   1.847   1.530  0.00  0.00    +0.088 A 
ATOM     25  C   UNL     1      -0.521   3.062   2.128  0.00  0.00    +0.030 A 
ATOM     26  C   UNL     1      -1.136   3.403   3.318  0.00  0.00    +0.040 A 
ATOM     27  C   UNL     1      -2.022   2.523   3.915  0.00  0.00    +0.124 A 
ATOM     28  C   UNL     1      -2.295   1.304   3.317  0.00  0.00    +0.040 A 
ATOM     29  C   UNL     1      -1.683   0.968   2.125  0.00  0.00    +0.030 A 
ATOM     30  F   UNL     1      -2.621   2.853   5.081  0.00  0.00    -0.205 F 
ENDBRANCH  21  24
ENDBRANCH  20  21
ENDBRANCH  19  20
ENDBRANCH   2  19
TORSDOF 8
