REMARK  Name = ZINC50308434
REMARK  5 active torsions:
REMARK  status: ('A' for Active; 'I' for Inactive)
REMARK    1  A    between atoms: C_1  and  C_2
REMARK    2  A    between atoms: C_2  and  C_3
REMARK    3  A    between atoms: C_3  and  C_4
REMARK    4  A    between atoms: N_8  and  C_9
REMARK    5  A    between atoms: C_14  and  C_15
REMARK                            x       y       z     vdW  Elec       q    Type
REMARK                         _______ _______ _______ _____ _____    ______ ____
ROOT
ATOM      1  C   UNL     1      -0.891  -1.581   0.023  0.00  0.00    +0.157 A 
ATOM      2  N   UNL     1      -0.903  -2.214  -1.121  0.00  0.00    -0.113 NA
ATOM      3  N   UNL     1      -1.018  -3.480  -0.936  0.00  0.00    -0.023 NA
ATOM      4  N   UNL     1      -1.086  -3.741   0.325  0.00  0.00    -0.039 NA
ATOM      5  N   UNL     1      -1.000  -2.510   0.997  0.00  0.00    -0.197 N 
ENDROOT
BRANCH   5   6
ATOM      6  C   UNL     1      -1.024  -2.292   2.383  0.00  0.00    +0.072 A 
ATOM      7  C   UNL     1      -1.914  -1.375   2.927  0.00  0.00    +0.029 A 
ATOM      8  C   UNL     1      -1.936  -1.162   4.291  0.00  0.00    +0.017 A 
ATOM      9  C   UNL     1      -1.073  -1.862   5.116  0.00  0.00    +0.018 A 
ATOM     10  C   UNL     1      -0.185  -2.776   4.576  0.00  0.00    +0.020 A 
ATOM     11  C   UNL     1      -0.163  -2.996   3.213  0.00  0.00    -0.024 A 
ATOM     12  C   UNL     1       0.799  -3.997   2.626  0.00  0.00    +0.046 C 
ATOM     13 BR   UNL     1      -1.106  -1.568   6.984  0.00  0.00    -0.050 Br
ENDBRANCH   5   6
BRANCH   1  14
ATOM     14  C   UNL     1      -0.771  -0.091   0.218  0.00  0.00    +0.078 C 
BRANCH  14  16
ATOM     15  C   UNL     1       0.817   1.789   0.648  0.00  0.00    +0.004 C 
ATOM     16  C   UNL     1       0.696   0.277   0.450  0.00  0.00    +0.004 C 
ENDBRANCH  14  16
ENDBRANCH   1  14
TORSDOF 3
