REMARK  Name = ZINC40704630
REMARK  9 active torsions:
REMARK  status: ('A' for Active; 'I' for Inactive)
REMARK    1  A    between atoms: C_1  and  C_2
REMARK    2  A    between atoms: C_5  and  C_33
REMARK    3  A    between atoms: C_6  and  N_8
REMARK    4  A    between atoms: C_10  and  N_32
REMARK    5  A    between atoms: C_11  and  N_15
REMARK    6  A    between atoms: N_15  and  N_16
REMARK    7  A    between atoms: C_17  and  C_19
REMARK    8  A    between atoms: C_19  and  C_20
REMARK    9  A    between atoms: C_19  and  C_26
REMARK                            x       y       z     vdW  Elec       q    Type
REMARK                         _______ _______ _______ _____ _____    ______ ____
ROOT
ATOM      1  N   UNL     1       0.116  -2.720   2.376  0.00  0.00    -0.298 N 
ATOM      2  C   UNL     1       0.210  -2.047   3.590  0.00  0.00    +0.149 A 
ATOM      3  C   UNL     1       0.325  -2.757   4.786  0.00  0.00    +0.107 A 
ATOM      4  C   UNL     1       0.416  -2.032   5.976  0.00  0.00    +0.161 A 
ATOM      5  N   UNL     1       0.390  -0.702   5.925  0.00  0.00    -0.217 NA
ATOM      6  C   UNL     1       0.279  -0.071   4.773  0.00  0.00    +0.225 A 
ATOM      7  N   UNL     1       0.196  -0.717   3.628  0.00  0.00    -0.219 NA
ATOM      8  H   UNL     1       0.041  -3.687   2.362  0.00  0.00    +0.154 HD
ENDROOT
BRANCH   1  14
ATOM      9  C   UNL     1       1.382   1.320  -0.122  0.00  0.00    +0.044 C 
ATOM     10  C   UNL     1       0.738  -0.042  -0.063  0.00  0.00    -0.049 A 
ATOM     11  C   UNL     1       0.161  -0.583  -1.198  0.00  0.00    +0.004 A 
ATOM     12  C   UNL     1      -0.431  -1.831  -1.148  0.00  0.00    +0.005 A 
ATOM     13  C   UNL     1      -0.448  -2.543   0.036  0.00  0.00    -0.029 A 
ATOM     14  C   UNL     1       0.132  -2.003   1.177  0.00  0.00    +0.036 A 
ATOM     15  C   UNL     1       0.730  -0.750   1.122  0.00  0.00    +0.027 A 
ATOM     16  C   UNL     1      -1.093  -3.903   0.089  0.00  0.00    +0.045 C 
ENDBRANCH   1  14
BRANCH   3  17
ATOM     17  N   UNL     1       0.349  -4.161   4.793  0.00  0.00    -0.353 N 
ATOM     18  H   UNL     1       0.284  -4.651   3.959  0.00  0.00    +0.143 HD
ATOM     19  H   UNL     1       0.429  -4.640   5.633  0.00  0.00    +0.143 HD
ENDBRANCH   3  17
BRANCH   4  20
ATOM     20  N   UNL     1       0.532  -2.689   7.195  0.00  0.00    -0.247 N 
ATOM     21  H   UNL     1       0.551  -3.658   7.224  0.00  0.00    +0.172 HD
BRANCH  20  22
ATOM     22  N   UNL     1       0.623  -1.951   8.383  0.00  0.00    -0.235 N 
ATOM     23  C   UNL     1       0.736  -2.588   9.565  0.00  0.00    +0.241 C 
ATOM     24  O   UNL     1       0.758  -3.800   9.601  0.00  0.00    -0.273 OA
ATOM     25  H   UNL     1       0.605  -0.982   8.354  0.00  0.00    +0.173 HD
BRANCH  23  26
ATOM     26  C   UNL     1       0.833  -1.794  10.842  0.00  0.00    +0.136 C 
BRANCH  26  27
ATOM     27  C   UNL     1      -0.402  -0.946  11.002  0.00  0.00    -0.031 A 
ATOM     28  C   UNL     1      -1.630  -1.428  10.590  0.00  0.00    +0.005 A 
ATOM     29  C   UNL     1      -2.763  -0.650  10.736  0.00  0.00    +0.000 A 
ATOM     30  C   UNL     1      -2.669   0.610  11.296  0.00  0.00    +0.000 A 
ATOM     31  C   UNL     1      -1.441   1.093  11.709  0.00  0.00    +0.000 A 
ATOM     32  C   UNL     1      -0.308   0.313  11.566  0.00  0.00    +0.005 A 
ENDBRANCH  26  27
BRANCH  26  33
ATOM     33  C   UNL     1       0.949  -2.737  12.012  0.00  0.00    -0.031 A 
ATOM     34  C   UNL     1      -0.097  -3.586  12.323  0.00  0.00    +0.005 A 
ATOM     35  C   UNL     1       0.010  -4.450  13.396  0.00  0.00    +0.000 A 
ATOM     36  C   UNL     1       1.163  -4.467  14.158  0.00  0.00    +0.000 A 
ATOM     37  C   UNL     1       2.210  -3.619  13.847  0.00  0.00    +0.000 A 
ATOM     38  C   UNL     1       2.105  -2.757  12.771  0.00  0.00    +0.005 A 
ENDBRANCH  26  33
ENDBRANCH  23  26
ENDBRANCH  20  22
ENDBRANCH   4  20
TORSDOF 7
