REMARK  Name = ZINC50841353
REMARK  4 active torsions:
REMARK  status: ('A' for Active; 'I' for Inactive)
REMARK    1  A    between atoms: C_1  and  C_2
REMARK    2  A    between atoms: C_3  and  C_21
REMARK    3  A    between atoms: C_7  and  N_20
REMARK    4  A    between atoms: C_9  and  C_11
REMARK                            x       y       z     vdW  Elec       q    Type
REMARK                         _______ _______ _______ _____ _____    ______ ____
ROOT
ATOM      1  C   UNL     1      -1.287   1.427   0.445  0.00  0.00    +0.045 C 
ATOM      2  C   UNL     1      -1.147  -0.073   0.395  0.00  0.00    -0.028 A 
ATOM      3  C   UNL     1      -1.695  -0.773  -0.610  0.00  0.00    -0.008 A 
ATOM      4  S   UNL     1      -1.262  -2.459  -0.227  0.00  0.00    -0.073 S 
ATOM      5  C   UNL     1      -0.357  -2.179   1.272  0.00  0.00    +0.114 A 
ATOM      6  C   UNL     1      -0.411  -0.776   1.431  0.00  0.00    +0.050 A 
ATOM      7  C   UNL     1       0.256  -0.263   2.579  0.00  0.00    +0.129 A 
ATOM      8  N   UNL     1       0.870  -1.099   3.398  0.00  0.00    -0.212 NA
ATOM      9  C   UNL     1       0.886  -2.411   3.186  0.00  0.00    +0.163 A 
ATOM     10  N   UNL     1       0.272  -2.946   2.138  0.00  0.00    -0.220 NA
ATOM     11  C   UNL     1      -2.488  -0.256  -1.782  0.00  0.00    +0.052 C 
ENDROOT
BRANCH   9  12
ATOM     12  C   UNL     1       1.593  -3.294   4.143  0.00  0.00    +0.025 A 
ATOM     13  C   UNL     1       1.624  -4.672   3.932  0.00  0.00    +0.053 A 
ATOM     14  C   UNL     1       2.284  -5.492   4.827  0.00  0.00    +0.162 A 
ATOM     15  C   UNL     1       2.916  -4.946   5.935  0.00  0.00    +0.193 A 
ATOM     16  C   UNL     1       2.887  -3.575   6.149  0.00  0.00    +0.162 A 
ATOM     17  C   UNL     1       2.233  -2.748   5.255  0.00  0.00    +0.053 A 
ATOM     18  F   UNL     1       3.503  -3.048   7.229  0.00  0.00    -0.202 F 
ATOM     19  F   UNL     1       3.560  -5.750   6.808  0.00  0.00    -0.199 F 
ATOM     20  F   UNL     1       2.315  -6.827   4.623  0.00  0.00    -0.202 F 
ENDBRANCH   9  12
BRANCH   7  21
ATOM     21  N   UNL     1       0.262   1.096   2.834  0.00  0.00    -0.343 N 
ATOM     22  H   UNL     1       0.110   1.726   2.112  0.00  0.00    +0.144 HD
ATOM     23  H   UNL     1       0.418   1.420   3.735  0.00  0.00    +0.144 HD
ENDBRANCH   7  21
TORSDOF 2
