REMARK  Name = ZINC58365972
REMARK  2 active torsions:
REMARK  status: ('A' for Active; 'I' for Inactive)
REMARK    1  A    between atoms: C_13  and  C_15
REMARK    2  A    between atoms: N_20  and  C_22
REMARK                            x       y       z     vdW  Elec       q    Type
REMARK                         _______ _______ _______ _____ _____    ______ ____
ROOT
ATOM      1  C   UNL     1      -0.017   1.368   0.010  0.00  0.00    +0.070 A 
ATOM      2  C   UNL     1       1.189   2.107   0.002  0.00  0.00    +0.083 A 
ATOM      3  C   UNL     1       2.384   1.354  -0.013  0.00  0.00    +0.044 A 
ATOM      4  C   UNL     1       2.396  -0.019  -0.022  0.00  0.00    +0.058 A 
ATOM      5  C   UNL     1       1.199  -0.713  -0.015  0.00  0.00    +0.160 A 
ATOM      6  C   UNL     1       0.002  -0.004   0.002  0.00  0.00    +0.160 A 
ATOM      7  F   UNL     1      -1.167  -0.681   0.009  0.00  0.00    -0.202 F 
ATOM      8  F   UNL     1       1.192  -2.064  -0.024  0.00  0.00    -0.202 F 
ATOM      9  S   UNL     1       3.630   2.621  -0.017  0.00  0.00    -0.052 S 
ATOM     10  C   UNL     1       2.523   4.024   0.001  0.00  0.00    +0.165 A 
ATOM     11  N   UNL     1       1.343   3.450   0.009  0.00  0.00    -0.224 NA
ATOM     12  N   UNL     1       2.833   5.375   0.007  0.00  0.00    -0.264 N 
ATOM     13  C   UNL     1       1.845   6.292   0.021  0.00  0.00    +0.224 C 
ATOM     14  O   UNL     1       0.686   5.935   0.029  0.00  0.00    -0.275 OA
ATOM     15  H   UNL     1       3.760   5.660   0.001  0.00  0.00    +0.157 HD
ENDROOT
BRANCH  13  16
ATOM     16  C   UNL     1       2.182   7.761   0.028  0.00  0.00    +0.101 C 
ATOM     17  C   UNL     1       2.900   8.170  -1.280  0.00  0.00    +0.110 C 
ATOM     18  C   UNL     1       1.784   8.647  -2.182  0.00  0.00    +0.217 C 
ATOM     19  O   UNL     1       1.875   8.791  -3.383  0.00  0.00    -0.276 OA
ATOM     20  N   UNL     1       0.675   8.887  -1.460  0.00  0.00    -0.298 N 
ATOM     21  C   UNL     1       0.900   8.622  -0.034  0.00  0.00    +0.121 C 
BRANCH  20  22
ATOM     22  C   UNL     1      -0.594   9.353  -2.024  0.00  0.00    +0.076 C 
ATOM     23  C   UNL     1      -1.086   8.367  -3.104  0.00  0.00    +0.022 C 
ATOM     24  C   UNL     1      -1.720   9.276  -4.187  0.00  0.00    +0.002 C 
ATOM     25  C   UNL     1      -0.770  10.499  -4.206  0.00  0.00    +0.002 C 
ATOM     26  C   UNL     1      -0.393  10.708  -2.725  0.00  0.00    +0.022 C 
ENDBRANCH  20  22
ENDBRANCH  13  16
TORSDOF 2
