REMARK  Name = ZINC37020217
REMARK  9 active torsions:
REMARK  status: ('A' for Active; 'I' for Inactive)
REMARK    1  A    between atoms: C_5  and  O_16
REMARK    2  A    between atoms: C_6  and  N_7
REMARK    3  A    between atoms: C_8  and  C_10
REMARK    4  A    between atoms: C_10  and  C_11
REMARK    5  A    between atoms: C_11  and  C_12
REMARK    6  A    between atoms: C_12  and  C_13
REMARK    7  A    between atoms: C_13  and  C_14
REMARK    8  A    between atoms: C_14  and  N_15
REMARK    9  A    between atoms: O_16  and  C_17
REMARK                            x       y       z     vdW  Elec       q    Type
REMARK                         _______ _______ _______ _____ _____    ______ ____
ROOT
ATOM      1  N   UNL     1      -1.201  -0.723   0.010  0.00  0.00    -0.283 N 
ATOM      2  C   UNL     1      -2.374  -0.071   0.127  0.00  0.00    +0.217 C 
ATOM      3  O   UNL     1      -2.397   1.142   0.134  0.00  0.00    -0.275 OA
ATOM      4  H   UNL     1      -1.188  -1.690  -0.060  0.00  0.00    +0.155 HD
ENDROOT
BRANCH   1  10
ATOM      5  C   UNL     1       0.054   1.247  -0.608  0.00  0.00    +0.047 A 
ATOM      6  C   UNL     1       1.241   1.956  -0.625  0.00  0.00    +0.044 A 
ATOM      7  C   UNL     1       2.379   1.421  -0.048  0.00  0.00    +0.039 A 
ATOM      8  C   UNL     1       2.333   0.174   0.550  0.00  0.00    +0.063 A 
ATOM      9  C   UNL     1       1.147  -0.542   0.572  0.00  0.00    +0.162 A 
ATOM     10  C   UNL     1       0.001  -0.003  -0.009  0.00  0.00    +0.078 A 
ATOM     11 BR   UNL     1       3.891  -0.554   1.338  0.00  0.00    -0.046 Br
ATOM     12 CL   UNL     1       1.305   3.521  -1.375  0.00  0.00    -0.083 Cl
BRANCH   9  13
ATOM     13  O   UNL     1       1.101  -1.768   1.159  0.00  0.00    -0.431 OA
BRANCH  13  14
ATOM     14  C   UNL     1       0.772  -1.810   2.549  0.00  0.00    +0.541 C 
ATOM     15  F   UNL     1       1.720  -1.081   3.275  0.00  0.00    -0.166 F 
ATOM     16  F   UNL     1      -0.496  -1.252   2.745  0.00  0.00    -0.166 F 
ENDBRANCH  13  14
ENDBRANCH   9  13
ENDBRANCH   1  10
BRANCH   2  17
ATOM     17  C   UNL     1      -3.660  -0.849   0.249  0.00  0.00    +0.096 C 
BRANCH  17  18
ATOM     18  C   UNL     1      -4.835   0.124   0.367  0.00  0.00    +0.009 C 
BRANCH  18  19
ATOM     19  C   UNL     1      -6.139  -0.666   0.491  0.00  0.00    -0.001 C 
BRANCH  19  20
ATOM     20  C   UNL     1      -7.315   0.307   0.610  0.00  0.00    -0.020 C 
BRANCH  20  21
ATOM     21  C   UNL     1      -8.620  -0.483   0.734  0.00  0.00    -0.086 C 
BRANCH  21  22
ATOM     22  N   UNL     1      -9.748   0.451   0.847  0.00  0.00    +0.378 N 
ATOM     23  H   UNL     1      -9.626   1.028   1.665  0.00  0.00    -0.090 HD
ATOM     24  H   UNL     1      -9.785   1.035   0.025  0.00  0.00    -0.090 HD
ATOM     25  H   UNL     1     -10.608  -0.070   0.929  0.00  0.00    -0.090 HD
ENDBRANCH  21  22
ENDBRANCH  20  21
ENDBRANCH  19  20
ENDBRANCH  18  19
ENDBRANCH  17  18
ENDBRANCH   2  17
TORSDOF 9
