REMARK  Name = ZINC10021833
REMARK  5 active torsions:
REMARK  status: ('A' for Active; 'I' for Inactive)
REMARK    1  A    between atoms: C_1  and  C_2
REMARK    2  A    between atoms: N_8  and  S_9
REMARK    3  A    between atoms: S_9  and  C_12
REMARK    4  A    between atoms: C_16  and  C_18
REMARK    5  A    between atoms: N_20  and  C_21
REMARK                            x       y       z     vdW  Elec       q    Type
REMARK                         _______ _______ _______ _____ _____    ______ ____
ROOT
ATOM      1  C   UNL     1       2.732  -1.020  -3.784  0.00  0.00    +0.106 A 
ATOM      2  C   UNL     1       3.297  -0.019  -4.556  0.00  0.00    +0.029 A 
ATOM      3  C   UNL     1       3.037   0.047  -5.913  0.00  0.00    +0.018 A 
ATOM      4  C   UNL     1       2.212  -0.888  -6.507  0.00  0.00    +0.030 A 
ATOM      5  C   UNL     1       1.639  -1.900  -5.733  0.00  0.00    +0.053 A 
ATOM      6  C   UNL     1       1.910  -1.963  -4.365  0.00  0.00    +0.042 A 
ATOM      7 BR   UNL     1       1.857  -0.797  -8.362  0.00  0.00    -0.050 Br
ENDROOT
BRANCH   5   8
ATOM      8  C   UNL     1       0.755  -2.904  -6.361  0.00  0.00    +0.249 C 
ATOM      9  O   UNL     1       0.524  -2.849  -7.554  0.00  0.00    -0.270 OA
ATOM     10  N   UNL     1       0.204  -3.879  -5.612  0.00  0.00    -0.281 N 
ATOM     11  H   UNL     1       0.333  -3.884  -4.651  0.00  0.00    +0.155 HD
BRANCH  10  12
ATOM     12  C   UNL     1      -0.555  -4.886  -6.222  0.00  0.00    +0.037 A 
ATOM     13  C   UNL     1      -1.636  -5.442  -5.551  0.00  0.00    +0.027 A 
ATOM     14  C   UNL     1      -2.389  -6.432  -6.154  0.00  0.00    +0.051 A 
ATOM     15  C   UNL     1      -2.061  -6.880  -7.423  0.00  0.00    +0.166 A 
ATOM     16  C   UNL     1      -0.974  -6.327  -8.096  0.00  0.00    +0.168 A 
ATOM     17  C   UNL     1      -0.223  -5.332  -7.494  0.00  0.00    +0.072 A 
ATOM     18  O   UNL     1      -0.861  -6.932  -9.314  0.00  0.00    -0.453 OA
ATOM     19  C   UNL     1      -2.131  -7.569  -9.546  0.00  0.00    +0.466 C 
ATOM     20  O   UNL     1      -2.630  -7.831  -8.221  0.00  0.00    -0.453 OA
ENDBRANCH  10  12
ENDBRANCH   5   8
BRANCH   1  21
ATOM     21  S   UNL     1       3.071  -1.094  -2.057  0.00  0.00    +0.061 S 
ATOM     22  O   UNL     1       4.308  -0.424  -1.856  0.00  0.00    -0.153 OA
ATOM     23  O   UNL     1       2.861  -2.442  -1.659  0.00  0.00    -0.153 OA
BRANCH  21  30
ATOM     24  C   UNL     1       0.610  -2.267  -1.283  0.00  0.00    +0.026 C 
ATOM     25  C   UNL     1       0.604  -0.770  -0.965  0.00  0.00    +0.077 C 
ATOM     26  C   UNL     1       0.333  -0.564   0.529  0.00  0.00    +0.020 C 
ATOM     27  C   UNL     1       0.462   0.923   0.866  0.00  0.00    +0.003 C 
ATOM     28  C   UNL     1       1.887   1.394   0.565  0.00  0.00    +0.017 C 
ATOM     29  C   UNL     1       2.176   1.210  -0.928  0.00  0.00    +0.110 C 
ATOM     30  N   UNL     1       1.913  -0.189  -1.292  0.00  0.00    -0.174 NA
ENDBRANCH  21  30
ENDBRANCH   1  21
TORSDOF 4
