REMARK  Name = ZINC46914906
REMARK  8 active torsions:
REMARK  status: ('A' for Active; 'I' for Inactive)
REMARK    1  A    between atoms: C_1  and  S_2
REMARK    2  A    between atoms: S_2  and  C_3
REMARK    3  A    between atoms: C_4  and  C_20
REMARK    4  A    between atoms: C_5  and  N_19
REMARK    5  A    between atoms: N_6  and  C_8
REMARK    6  A    between atoms: C_8  and  C_9
REMARK    7  A    between atoms: N_11  and  C_12
REMARK    8  A    between atoms: C_22  and  C_25
REMARK                            x       y       z     vdW  Elec       q    Type
REMARK                         _______ _______ _______ _____ _____    ______ ____
ROOT
ATOM      1  C   UNL     1      -1.701  -0.457   0.021  0.00  0.00    +0.133 A 
ATOM      2  C   UNL     1      -2.217  -1.778   0.014  0.00  0.00    +0.112 A 
ATOM      3  C   UNL     1      -3.604  -1.672   0.023  0.00  0.00    +0.129 A 
ATOM      4  N   UNL     1      -3.905  -0.357   0.034  0.00  0.00    -0.240 N 
ATOM      5  N   UNL     1      -2.713   0.374   0.038  0.00  0.00    -0.162 NA
ENDROOT
BRANCH   2   6
ATOM      6  C   UNL     1      -1.436  -3.022   0.001  0.00  0.00    +0.265 A 
ATOM      7  N   UNL     1      -0.122  -3.109  -0.002  0.00  0.00    -0.187 NA
ATOM      8  C   UNL     1       0.250  -4.399  -0.015  0.00  0.00    +0.202 A 
ATOM      9  N   UNL     1      -0.825  -5.150  -0.021  0.00  0.00    -0.056 NA
ATOM     10  O   UNL     1      -1.939  -4.271  -0.005  0.00  0.00    -0.332 OA
BRANCH   8  11
ATOM     11  C   UNL     1       1.648  -4.893  -0.022  0.00  0.00    +0.026 A 
ATOM     12  C   UNL     1       2.709  -3.989  -0.010  0.00  0.00    +0.015 A 
ATOM     13  C   UNL     1       4.009  -4.449  -0.017  0.00  0.00    +0.050 A 
ATOM     14  C   UNL     1       4.266  -5.812  -0.037  0.00  0.00    +0.166 A 
ATOM     15  C   UNL     1       3.209  -6.721  -0.049  0.00  0.00    +0.167 A 
ATOM     16  C   UNL     1       1.904  -6.263  -0.036  0.00  0.00    +0.061 A 
ATOM     17  O   UNL     1       3.723  -7.986  -0.068  0.00  0.00    -0.453 OA
ATOM     18  C   UNL     1       5.094  -7.838  -0.479  0.00  0.00    +0.466 C 
ATOM     19  O   UNL     1       5.440  -6.508  -0.047  0.00  0.00    -0.453 OA
ENDBRANCH   8  11
ENDBRANCH   2   6
BRANCH   3  20
ATOM     20  N   UNL     1      -4.507  -2.719   0.020  0.00  0.00    -0.343 N 
ATOM     21  H   UNL     1      -4.187  -3.635   0.012  0.00  0.00    +0.144 HD
ATOM     22  H   UNL     1      -5.460  -2.539   0.027  0.00  0.00    +0.144 HD
ENDBRANCH   3  20
BRANCH   1  24
ATOM     23  C   UNL     1      -0.016   1.802   0.036  0.00  0.00    +0.091 C 
ATOM     24  S   UNL     1       0.004  -0.011   0.014  0.00  0.00    -0.107 S 
ENDBRANCH   1  24
BRANCH   4  25
ATOM     25  C   UNL     1      -5.256   0.211   0.045  0.00  0.00    +0.241 C 
BRANCH  25  26
ATOM     26  C   UNL     1      -5.711   0.396   1.470  0.00  0.00    +0.239 C 
ATOM     27  O   UNL     1      -4.979   0.084   2.386  0.00  0.00    -0.273 OA
ATOM     28  N   UNL     1      -6.931   0.907   1.727  0.00  0.00    -0.284 N 
ATOM     29  H   UNL     1      -7.490   1.219   0.998  0.00  0.00    +0.155 HD
BRANCH  28  30
ATOM     30  C   UNL     1      -7.392   0.989   3.047  0.00  0.00    +0.034 A 
ATOM     31  C   UNL     1      -8.738   0.791   3.326  0.00  0.00    +0.026 A 
ATOM     32  C   UNL     1      -9.191   0.873   4.628  0.00  0.00    +0.040 A 
ATOM     33  C   UNL     1      -8.304   1.151   5.655  0.00  0.00    +0.124 A 
ATOM     34  C   UNL     1      -6.962   1.348   5.378  0.00  0.00    +0.040 A 
ATOM     35  C   UNL     1      -6.504   1.262   4.078  0.00  0.00    +0.026 A 
ATOM     36  F   UNL     1      -8.750   1.231   6.928  0.00  0.00    -0.205 F 
ENDBRANCH  28  30
ENDBRANCH  25  26
ENDBRANCH   4  25
TORSDOF 7
