REMARK  Name = ZINC03339536
REMARK  10 active torsions:
REMARK  status: ('A' for Active; 'I' for Inactive)
REMARK    1  A    between atoms: C_1  and  C_2
REMARK    2  A    between atoms: C_2  and  C_4
REMARK    3  A    between atoms: C_2  and  N_46
REMARK    4  A    between atoms: N_6  and  C_7
REMARK    5  A    between atoms: C_10  and  S_13
REMARK    6  A    between atoms: S_13  and  N_16
REMARK    7  A    between atoms: C_17  and  C_18
REMARK    8  A    between atoms: C_17  and  N_46
REMARK    9  A    between atoms: C_21  and  S_24
REMARK   10  A    between atoms: S_24  and  N_27
REMARK                            x       y       z     vdW  Elec       q    Type
REMARK                         _______ _______ _______ _____ _____    ______ ____
ROOT
ATOM      1  C   UNL     1      -3.304   3.658   1.504  0.00  0.00    -0.004 C 
ATOM      2  C   UNL     1      -2.569   4.140   0.252  0.00  0.00    +0.014 C 
ENDROOT
BRANCH   2   3
ATOM      3  C   UNL     1      -1.255   3.412   0.128  0.00  0.00    +0.203 C 
ATOM      4  O   UNL     1      -0.215   4.035   0.127  0.00  0.00    -0.277 OA
ATOM      5  N   UNL     1      -1.237   2.069   0.019  0.00  0.00    -0.287 N 
ATOM      6  H   UNL     1      -2.070   1.577  -0.057  0.00  0.00    +0.155 HD
BRANCH   5   7
ATOM      7  C   UNL     1      -0.017   1.384   0.016  0.00  0.00    +0.033 A 
ATOM      8  C   UNL     1       0.127   0.222  -0.732  0.00  0.00    +0.025 A 
ATOM      9  C   UNL     1       1.331  -0.454  -0.729  0.00  0.00    +0.030 A 
ATOM     10  C   UNL     1       2.392   0.023   0.017  0.00  0.00    +0.105 A 
ATOM     11  C   UNL     1       2.252   1.180   0.763  0.00  0.00    +0.030 A 
ATOM     12  C   UNL     1       1.051   1.861   0.764  0.00  0.00    +0.025 A 
BRANCH  10  13
ATOM     13  S   UNL     1       3.926  -0.843   0.018  0.00  0.00    +0.056 S 
ATOM     14  O   UNL     1       3.970  -1.593  -1.188  0.00  0.00    -0.153 OA
ATOM     15  O   UNL     1       4.928   0.105   0.362  0.00  0.00    -0.153 OA
BRANCH  13  16
ATOM     16  N   UNL     1       3.868  -1.941   1.256  0.00  0.00    -0.204 NA
ATOM     17  H   UNL     1       4.361  -2.774   1.190  0.00  0.00    +0.144 HD
ATOM     18  H   UNL     1       3.342  -1.751   2.049  0.00  0.00    +0.144 HD
ENDBRANCH  13  16
ENDBRANCH  10  13
ENDBRANCH   5   7
ENDBRANCH   2   3
BRANCH   2  19
ATOM     19  N   UNL     1      -2.312   5.589   0.360  0.00  0.00    +0.389 N 
ATOM     20  H   UNL     1      -1.497   5.832  -0.217  0.00  0.00    -0.084 HD
ATOM     21  H   UNL     1      -2.120   5.827   1.340  0.00  0.00    -0.084 HD
BRANCH  19  22
ATOM     22  C   UNL     1      -3.484   6.353  -0.107  0.00  0.00    -0.046 C 
BRANCH  22  23
ATOM     23  C   UNL     1      -3.192   7.827   0.015  0.00  0.00    -0.064 A 
ATOM     24  C   UNL     1      -3.508   8.500   1.180  0.00  0.00    +0.003 A 
ATOM     25  C   UNL     1      -3.237   9.851   1.293  0.00  0.00    +0.029 A 
ATOM     26  C   UNL     1      -2.658  10.530   0.237  0.00  0.00    +0.105 A 
ATOM     27  C   UNL     1      -2.346   9.858  -0.930  0.00  0.00    +0.029 A 
ATOM     28  C   UNL     1      -2.614   8.506  -1.041  0.00  0.00    +0.003 A 
BRANCH  26  29
ATOM     29  S   UNL     1      -2.316  12.253   0.380  0.00  0.00    +0.056 S 
ATOM     30  O   UNL     1      -2.200  12.531   1.768  0.00  0.00    -0.153 OA
ATOM     31  O   UNL     1      -1.274  12.538  -0.544  0.00  0.00    -0.153 OA
BRANCH  29  32
ATOM     32  N   UNL     1      -3.657  13.064  -0.155  0.00  0.00    -0.204 NA
ATOM     33  H   UNL     1      -3.876  13.935   0.212  0.00  0.00    +0.144 HD
ATOM     34  H   UNL     1      -4.223  12.669  -0.836  0.00  0.00    +0.144 HD
ENDBRANCH  29  32
ENDBRANCH  26  29
ENDBRANCH  22  23
ENDBRANCH  19  22
ENDBRANCH   2  19
TORSDOF 9
