REMARK  Name = ZINC09125644
REMARK  9 active torsions:
REMARK  status: ('A' for Active; 'I' for Inactive)
REMARK    1  A    between atoms: C_1  and  C_2
REMARK    2  A    between atoms: C_2  and  C_4
REMARK    3  A    between atoms: C_2  and  N_46
REMARK    4  A    between atoms: C_11  and  C_13
REMARK    5  A    between atoms: C_11  and  C_14
REMARK    6  A    between atoms: C_11  and  N_46
REMARK    7  A    between atoms: N_16  and  C_17
REMARK    8  A    between atoms: C_17  and  C_18
REMARK    9  A    between atoms: N_20  and  C_21
REMARK                            x       y       z     vdW  Elec       q    Type
REMARK                         _______ _______ _______ _____ _____    ______ ____
ROOT
ATOM      1  C   UNL     1       3.897   7.505   0.428  0.00  0.00    +0.199 C 
ATOM      2  O   UNL     1       2.963   8.277   0.466  0.00  0.00    -0.278 OA
ATOM      3  N   UNL     1       3.673   6.181   0.310  0.00  0.00    -0.308 N 
ATOM      4  H   UNL     1       4.420   5.564   0.279  0.00  0.00    +0.149 HD
ENDROOT
BRANCH   1   5
ATOM      5  C   UNL     1       5.309   8.025   0.512  0.00  0.00    +0.014 C 
ATOM      6  C   UNL     1       6.074   7.632  -0.753  0.00  0.00    -0.004 C 
BRANCH   5   7
ATOM      7  N   UNL     1       5.277   9.495   0.632  0.00  0.00    +0.391 N 
ATOM      8  H   UNL     1       5.129   9.908  -0.297  0.00  0.00    -0.084 HD
ATOM      9  H   UNL     1       4.506   9.767   1.254  0.00  0.00    -0.084 HD
BRANCH   7  11
ATOM     10  C   UNL     1       6.702  11.475   0.845  0.00  0.00    -0.009 C 
ATOM     11  C   UNL     1       6.549   9.992   1.188  0.00  0.00    -0.042 C 
BRANCH  11  12
ATOM     12  C   UNL     1       6.546   9.820   2.685  0.00  0.00    -0.048 A 
ATOM     13  C   UNL     1       5.350   9.665   3.361  0.00  0.00    +0.003 A 
ATOM     14  C   UNL     1       5.347   9.503   4.733  0.00  0.00    +0.000 A 
ATOM     15  C   UNL     1       6.540   9.505   5.433  0.00  0.00    +0.001 A 
ATOM     16  C   UNL     1       7.736   9.666   4.759  0.00  0.00    +0.015 A 
ATOM     17  C   UNL     1       7.739   9.823   3.384  0.00  0.00    +0.019 A 
ATOM     18 BR   UNL     1       9.376  10.043   2.462  0.00  0.00    -0.050 Br
ENDBRANCH  11  12
ENDBRANCH   7  11
ENDBRANCH   5   7
ENDBRANCH   1   5
BRANCH   3  19
ATOM     19  C   UNL     1       2.300   5.676   0.228  0.00  0.00    +0.200 C 
BRANCH  19  20
ATOM     20  C   UNL     1       2.325   4.174   0.102  0.00  0.00    +0.234 C 
ATOM     21  O   UNL     1       3.385   3.584   0.083  0.00  0.00    -0.274 OA
ATOM     22  N   UNL     1       1.169   3.486   0.011  0.00  0.00    -0.282 N 
ATOM     23  H   UNL     1       0.326   3.961  -0.055  0.00  0.00    +0.155 HD
BRANCH  22  24
ATOM     24  C   UNL     1       1.186   2.085   0.012  0.00  0.00    +0.072 A 
ATOM     25  C   UNL     1       2.242   1.403   0.600  0.00  0.00    +0.029 A 
ATOM     26  C   UNL     1       2.258   0.021   0.601  0.00  0.00    +0.043 A 
ATOM     27  C   UNL     1       1.222  -0.685   0.015  0.00  0.00    +0.161 A 
ATOM     28  C   UNL     1       0.165  -0.008  -0.574  0.00  0.00    +0.195 A 
ATOM     29  C   UNL     1       0.145   1.376  -0.577  0.00  0.00    +0.182 A 
ATOM     30  F   UNL     1      -0.881   2.037  -1.155  0.00  0.00    -0.200 F 
ATOM     31  F   UNL     1      -0.845  -0.699  -1.147  0.00  0.00    -0.199 F 
ATOM     32  F   UNL     1       1.241  -2.036   0.016  0.00  0.00    -0.202 F 
ENDBRANCH  22  24
ENDBRANCH  19  20
ENDBRANCH   3  19
TORSDOF 7
