REMARK  Name = ZINC64716221
REMARK  4 active torsions:
REMARK  status: ('A' for Active; 'I' for Inactive)
REMARK    1  A    between atoms: C_8  and  C_13
REMARK    2  A    between atoms: N_18  and  C_21
REMARK    3  A    between atoms: C_21  and  C_22
REMARK    4  A    between atoms: C_21  and  C_29
REMARK                            x       y       z     vdW  Elec       q    Type
REMARK                         _______ _______ _______ _____ _____    ______ ____
ROOT
ATOM      1  C   UNL     1       2.835  -3.557  -1.262  0.00  0.00    +0.231 C 
ATOM      2  O   UNL     1       1.906  -3.614  -2.040  0.00  0.00    -0.274 OA
ATOM      3  N   UNL     1       3.950  -4.280  -1.489  0.00  0.00    -0.298 N 
ATOM      4  C   UNL     1       5.038  -4.319  -0.501  0.00  0.00    +0.123 C 
ATOM      5  C   UNL     1       5.391  -5.784  -0.224  0.00  0.00    +0.104 C 
ATOM      6  N   UNL     1       5.681  -6.463  -1.494  0.00  0.00    -0.289 NA
ATOM      7  C   UNL     1       4.500  -6.486  -2.367  0.00  0.00    +0.104 C 
ATOM      8  C   UNL     1       4.107  -5.055  -2.729  0.00  0.00    +0.123 C 
ENDROOT
BRANCH   1  16
ATOM      9  C   UNL     1      -0.653  -3.422   3.394  0.00  0.00    +0.001 A 
ATOM     10  C   UNL     1      -1.285  -2.263   2.945  0.00  0.00    +0.002 A 
ATOM     11  C   UNL     1      -0.802  -1.515   1.919  0.00  0.00    +0.024 A 
ATOM     12  C   UNL     1       0.380  -1.891   1.256  0.00  0.00    +0.040 A 
ATOM     13  N   UNL     1       0.845  -1.150   0.250  0.00  0.00    -0.284 N 
ATOM     14  C   UNL     1       1.948  -1.446  -0.416  0.00  0.00    +0.233 C 
ATOM     15  O   UNL     1       2.324  -0.731  -1.325  0.00  0.00    -0.274 OA
ATOM     16  C   UNL     1       2.743  -2.678  -0.042  0.00  0.00    +0.184 C 
ATOM     17  C   UNL     1       2.219  -3.524   1.102  0.00  0.00    +0.004 C 
ATOM     18  C   UNL     1       1.069  -3.112   1.709  0.00  0.00    -0.007 A 
ATOM     19  C   UNL     1       0.494  -3.870   2.821  0.00  0.00    +0.009 A 
ATOM     20  H   UNL     1       0.350  -0.356  -0.006  0.00  0.00    +0.155 HD
ENDBRANCH   1  16
BRANCH   6  21
ATOM     21  C   UNL     1       6.190  -7.821  -1.262  0.00  0.00    +0.117 C 
BRANCH  21  22
ATOM     22  C   UNL     1       6.475  -8.485  -2.584  0.00  0.00    -0.026 A 
ATOM     23  C   UNL     1       7.054  -7.760  -3.610  0.00  0.00    +0.008 A 
ATOM     24  C   UNL     1       7.317  -8.368  -4.823  0.00  0.00    +0.038 A 
ATOM     25  C   UNL     1       6.999  -9.702  -5.011  0.00  0.00    +0.123 A 
ATOM     26  C   UNL     1       6.419 -10.426  -3.984  0.00  0.00    +0.038 A 
ATOM     27  C   UNL     1       6.162  -9.818  -2.770  0.00  0.00    +0.008 A 
ATOM     28  F   UNL     1       7.254 -10.297  -6.197  0.00  0.00    -0.205 F 
ENDBRANCH  21  22
BRANCH  21  29
ATOM     29  C   UNL     1       7.459  -7.750  -0.452  0.00  0.00    -0.026 A 
ATOM     30  C   UNL     1       8.386  -6.756  -0.706  0.00  0.00    +0.008 A 
ATOM     31  C   UNL     1       9.549  -6.689   0.037  0.00  0.00    +0.038 A 
ATOM     32  C   UNL     1       9.787  -7.618   1.035  0.00  0.00    +0.123 A 
ATOM     33  C   UNL     1       8.859  -8.614   1.288  0.00  0.00    +0.038 A 
ATOM     34  C   UNL     1       7.693  -8.675   0.548  0.00  0.00    +0.008 A 
ATOM     35  F   UNL     1      10.925  -7.554   1.761  0.00  0.00    -0.205 F 
ENDBRANCH  21  29
ENDBRANCH   6  21
TORSDOF 4
