REMARK  Name = ZINC28290910
REMARK  4 active torsions:
REMARK  status: ('A' for Active; 'I' for Inactive)
REMARK    1  A    between atoms: C_1  and  S_2
REMARK    2  A    between atoms: S_2  and  C_5
REMARK    3  A    between atoms: C_9  and  C_11
REMARK    4  A    between atoms: C_14  and  C_16
REMARK                            x       y       z     vdW  Elec       q    Type
REMARK                         _______ _______ _______ _____ _____    ______ ____
ROOT
ATOM      1  C   UNL     1       2.475   1.934  -0.011  0.00  0.00    +0.268 A 
ATOM      2  N   UNL     1       2.670   0.635  -0.020  0.00  0.00    -0.105 NA
ATOM      3  N   UNL     1       3.933   0.392  -0.034  0.00  0.00    -0.107 NA
ATOM      4  C   UNL     1       4.596   1.528  -0.034  0.00  0.00    +0.250 A 
ATOM      5  O   UNL     1       3.688   2.524  -0.025  0.00  0.00    -0.414 OA
ENDROOT
BRANCH   1  10
ATOM      6  C   UNL     1      -0.061   4.569   0.026  0.00  0.00    +0.271 A 
ATOM      7  N   UNL     1      -1.200   3.905   0.034  0.00  0.00    -0.219 NA
ATOM      8  C   UNL     1      -1.222   2.581   0.022  0.00  0.00    +0.132 A 
ATOM      9  C   UNL     1      -0.024   1.887   0.012  0.00  0.00    +0.067 A 
ATOM     10  C   UNL     1       1.168   2.622   0.005  0.00  0.00    +0.146 A 
ATOM     11  N   UNL     1       1.103   3.954   0.012  0.00  0.00    -0.206 NA
ATOM     12 BR   UNL     1       0.002  -0.004   0.002  0.00  0.00    -0.046 Br
BRANCH   6  14
ATOM     13  C   UNL     1      -0.123   6.805  -1.715  0.00  0.00    +0.204 C 
ATOM     14  S   UNL     1      -0.097   6.330   0.035  0.00  0.00    +0.029 S 
ATOM     15  O   UNL     1      -1.333   6.664   0.652  0.00  0.00    -0.167 OA
ATOM     16  O   UNL     1       1.136   6.715   0.629  0.00  0.00    -0.167 OA
ENDBRANCH   6  14
ENDBRANCH   1  10
BRANCH   4  17
ATOM     17  C   UNL     1       6.064   1.684  -0.047  0.00  0.00    +0.052 A 
ATOM     18  C   UNL     1       6.635   2.959  -0.051  0.00  0.00    +0.014 A 
ATOM     19  C   UNL     1       8.007   3.097  -0.057  0.00  0.00    +0.001 A 
ATOM     20  C   UNL     1       8.819   1.976  -0.071  0.00  0.00    +0.001 A 
ATOM     21  C   UNL     1       8.262   0.711  -0.073  0.00  0.00    +0.016 A 
ATOM     22  C   UNL     1       6.889   0.557  -0.061  0.00  0.00    +0.030 A 
ATOM     23 BR   UNL     1       6.129  -1.174  -0.065  0.00  0.00    -0.050 Br
ENDBRANCH   4  17
TORSDOF 3
