REMARK  Name = ZINC08023611
REMARK  2 active torsions:
REMARK  status: ('A' for Active; 'I' for Inactive)
REMARK    1  A    between atoms: C_1  and  C_2
REMARK    2  A    between atoms: N_17  and  C_18
REMARK                            x       y       z     vdW  Elec       q    Type
REMARK                         _______ _______ _______ _____ _____    ______ ____
ROOT
ATOM      1  C   UNL     1      -4.426  -0.172  -0.044  0.00  0.00    +0.079 C 
ATOM      2  C   UNL     1      -2.957   0.232  -0.179  0.00  0.00    +0.183 C 
ATOM      3  C   UNL     1      -2.710   1.526   0.609  0.00  0.00    +0.096 C 
ATOM      4  C   UNL     1      -1.259   1.950   0.327  0.00  0.00    +0.111 C 
ATOM      5  C   UNL     1      -0.353   0.784   0.654  0.00  0.00    +0.017 A 
ATOM      6  C   UNL     1       0.973   1.032   0.962  0.00  0.00    +0.047 A 
ATOM      7  C   UNL     1       1.828  -0.017   1.247  0.00  0.00    +0.124 A 
ATOM      8  C   UNL     1       1.355  -1.318   1.223  0.00  0.00    +0.042 A 
ATOM      9  C   UNL     1       0.032  -1.567   0.921  0.00  0.00    +0.049 A 
ATOM     10  C   UNL     1      -0.832  -0.513   0.637  0.00  0.00    +0.129 A 
ATOM     11  O   UNL     1      -2.131  -0.796   0.361  0.00  0.00    -0.468 OA
ATOM     12  F   UNL     1       3.122   0.227   1.546  0.00  0.00    -0.205 F 
ATOM     13  N   UNL     1      -1.144   2.205  -1.118  0.00  0.00    -0.319 N 
ATOM     14  C   UNL     1      -1.813   1.430  -1.987  0.00  0.00    +0.141 C 
ATOM     15  S   UNL     1      -1.591   1.689  -3.665  0.00  0.00    -0.018 S 
ATOM     16  N   UNL     1      -2.650   0.459  -1.589  0.00  0.00    -0.244 N 
ATOM     17  H   UNL     1      -0.586   2.929  -1.442  0.00  0.00    +0.148 HD
ENDROOT
BRANCH  16  18
ATOM     18  C   UNL     1      -3.247  -0.360  -2.553  0.00  0.00    +0.040 A 
ATOM     19  C   UNL     1      -4.408   0.052  -3.194  0.00  0.00    +0.024 A 
ATOM     20  C   UNL     1      -4.994  -0.759  -4.146  0.00  0.00    +0.003 A 
ATOM     21  C   UNL     1      -4.427  -1.980  -4.461  0.00  0.00    +0.020 A 
ATOM     22  C   UNL     1      -3.270  -2.394  -3.825  0.00  0.00    +0.043 A 
ATOM     23  C   UNL     1      -2.676  -1.584  -2.874  0.00  0.00    +0.043 A 
ATOM     24 CL   UNL     1      -2.561  -3.927  -4.224  0.00  0.00    -0.083 Cl
ENDBRANCH  16  18
TORSDOF 1
