REMARK  Name = ZINC38671501
REMARK  10 active torsions:
REMARK  status: ('A' for Active; 'I' for Inactive)
REMARK    1  A    between atoms: C_1  and  C_2
REMARK    2  A    between atoms: C_2  and  C_3
REMARK    3  A    between atoms: C_2  and  C_4
REMARK    4  A    between atoms: C_2  and  O_26
REMARK    5  A    between atoms: N_6  and  C_7
REMARK    6  A    between atoms: C_7  and  C_8
REMARK    7  A    between atoms: C_8  and  C_10
REMARK    8  A    between atoms: C_8  and  N_20
REMARK    9  A    between atoms: N_18  and  C_19
REMARK   10  A    between atoms: O_26  and  C_27
REMARK                            x       y       z     vdW  Elec       q    Type
REMARK                         _______ _______ _______ _____ _____    ______ ____
ROOT
ATOM      1  C   UNL     1      -4.788  -2.069   3.853  0.00  0.00    -0.020 C 
ENDROOT
BRANCH   1   2
ATOM      2  C   UNL     1      -6.146  -2.652   3.556  0.00  0.00    -0.059 A 
ATOM      3  C   UNL     1      -7.162  -1.838   3.089  0.00  0.00    +0.004 A 
ATOM      4  C   UNL     1      -8.405  -2.368   2.816  0.00  0.00    +0.023 A 
ATOM      5  C   UNL     1      -8.648  -3.729   3.009  0.00  0.00    +0.033 A 
ATOM      6  C   UNL     1      -7.623  -4.536   3.477  0.00  0.00    -0.025 A 
ATOM      7  C   UNL     1      -6.377  -4.001   3.744  0.00  0.00    +0.007 A 
ATOM      8  C   UNL     1      -8.141  -5.952   3.596  0.00  0.00    +0.056 C 
ATOM      9  C   UNL     1      -9.605  -5.867   3.136  0.00  0.00    +0.109 C 
ATOM     10  N   UNL     1      -9.820  -4.458   2.796  0.00  0.00    -0.332 N 
ATOM     11  C   UNL     1     -11.080  -3.895   2.305  0.00  0.00    +0.129 C 
ENDBRANCH   1   2
BRANCH   1  12
ATOM     12  N   UNL     1      -4.948  -0.760   4.500  0.00  0.00    +0.385 N 
ATOM     13  C   UNL     1      -3.625  -0.186   4.774  0.00  0.00    -0.078 C 
ATOM     14  C   UNL     1      -3.786   1.213   5.374  0.00  0.00    -0.019 C 
ATOM     15  C   UNL     1      -4.580   1.114   6.679  0.00  0.00    -0.004 C 
ATOM     16  C   UNL     1      -5.929   0.446   6.395  0.00  0.00    -0.019 C 
ATOM     17  C   UNL     1      -5.689  -0.924   5.757  0.00  0.00    -0.078 C 
ATOM     18  H   UNL     1      -5.460  -0.143   3.888  0.00  0.00    -0.081 HD
ENDBRANCH   1  12
BRANCH   1  19
ATOM     19  C   UNL     1      -4.008  -1.901   2.548  0.00  0.00    +0.093 C 
BRANCH  19  22
ATOM     20  C   UNL     1      -3.205  -3.306   0.727  0.00  0.00    +0.256 C 
ATOM     21  O   UNL     1      -2.873  -2.300   0.136  0.00  0.00    -0.271 OA
ATOM     22  N   UNL     1      -3.781  -3.215   1.941  0.00  0.00    -0.313 N 
ATOM     23  H   UNL     1      -4.047  -4.019   2.414  0.00  0.00    +0.149 HD
BRANCH  20  25
ATOM     24  C   UNL     1      -2.059  -5.487   1.009  0.00  0.00    +0.065 C 
ATOM     25  C   UNL     1      -2.971  -4.658   0.103  0.00  0.00    +0.180 C 
ATOM     26  C   UNL     1      -4.310  -5.378  -0.069  0.00  0.00    +0.065 C 
BRANCH  25  27
ATOM     27  O   UNL     1      -2.352  -4.493  -1.174  0.00  0.00    -0.477 OA
BRANCH  27  28
ATOM     28  C   UNL     1      -3.050  -3.801  -2.114  0.00  0.00    +0.122 A 
ATOM     29  C   UNL     1      -4.241  -3.176  -1.774  0.00  0.00    +0.047 A 
ATOM     30  C   UNL     1      -4.949  -2.474  -2.730  0.00  0.00    +0.023 A 
ATOM     31  C   UNL     1      -4.471  -2.394  -4.026  0.00  0.00    +0.041 A 
ATOM     32  C   UNL     1      -3.284  -3.017  -4.367  0.00  0.00    +0.023 A 
ATOM     33  C   UNL     1      -2.570  -3.715  -3.412  0.00  0.00    +0.047 A 
ATOM     34 CL   UNL     1      -5.363  -1.512  -5.226  0.00  0.00    -0.084 Cl
ENDBRANCH  27  28
ENDBRANCH  25  27
ENDBRANCH  20  25
ENDBRANCH  19  22
ENDBRANCH   1  19
TORSDOF 7
