REMARK  Name = ZINC52814030
REMARK  3 active torsions:
REMARK  status: ('A' for Active; 'I' for Inactive)
REMARK    1  A    between atoms: C_1  and  C_2
REMARK    2  A    between atoms: C_4  and  O_9
REMARK    3  A    between atoms: O_9  and  C_10
REMARK                            x       y       z     vdW  Elec       q    Type
REMARK                         _______ _______ _______ _____ _____    ______ ____
ROOT
ATOM      1  C   UNL     1      -0.018   1.503   0.010  0.00  0.00    +0.066 C 
ATOM      2  C   UNL     1       0.002  -0.004   0.002  0.00  0.00    +0.046 A 
ATOM      3  C   UNL     1       0.006  -0.697  -1.194  0.00  0.00    +0.090 A 
ATOM      4  C   UNL     1       0.025  -2.090  -1.153  0.00  0.00    +0.219 A 
ATOM      5  N   UNL     1       0.039  -2.699   0.028  0.00  0.00    -0.182 NA
ATOM      6  C   UNL     1       0.034  -2.000   1.146  0.00  0.00    +0.226 A 
ATOM      7  N   UNL     1       0.022  -0.681   1.141  0.00  0.00    -0.222 NA
ATOM      8 CL   UNL     1       0.052  -2.838   2.666  0.00  0.00    -0.041 Cl
ENDROOT
BRANCH   4   9
ATOM      9  O   UNL     1       0.029  -2.812  -2.299  0.00  0.00    -0.473 OA
BRANCH   9  10
ATOM     10  C   UNL     1       0.049  -4.235  -2.169  0.00  0.00    +0.179 C 
ATOM     11  C   UNL     1      -1.387  -4.766  -2.127  0.00  0.00    +0.072 C 
ATOM     12  C   UNL     1      -1.356  -6.296  -2.067  0.00  0.00    +0.163 C 
ATOM     13  O   UNL     1      -0.642  -6.801  -3.197  0.00  0.00    -0.380 OA
ATOM     14  C   UNL     1       0.721  -6.376  -3.264  0.00  0.00    +0.163 C 
ATOM     15  C   UNL     1       0.773  -4.849  -3.371  0.00  0.00    +0.072 C 
ENDBRANCH   9  10
ENDBRANCH   4   9
TORSDOF 2
