REMARK  Name = ZINC65458193
REMARK  5 active torsions:
REMARK  status: ('A' for Active; 'I' for Inactive)
REMARK    1  A    between atoms: C_1  and  C_2
REMARK    2  A    between atoms: C_6  and  N_8
REMARK    3  A    between atoms: N_8  and  C_9
REMARK    4  A    between atoms: C_9  and  C_10
REMARK    5  A    between atoms: N_22  and  C_25
REMARK                            x       y       z     vdW  Elec       q    Type
REMARK                         _______ _______ _______ _____ _____    ______ ____
ROOT
ATOM      1  C   UNL     1      -0.018   1.503   0.010  0.00  0.00    +0.086 C 
ATOM      2  C   UNL     1       0.002  -0.004   0.002  0.00  0.00    +0.106 A 
ATOM      3  N   UNL     1       0.005  -0.636  -1.157  0.00  0.00    -0.347 N 
ATOM      4  C   UNL     1       0.024  -1.960  -1.195  0.00  0.00    +0.022 A 
ATOM      5  C   UNL     1       0.041  -2.670  -0.023  0.00  0.00    +0.010 A 
ATOM      6  C   UNL     1       0.036  -1.980   1.187  0.00  0.00    +0.126 A 
ATOM      7  N   UNL     1       0.022  -0.648   1.151  0.00  0.00    -0.219 NA
ATOM      8  C   UNL     1       0.068  -4.183  -0.052  0.00  0.00    +0.022 C 
ATOM      9  C   UNL     1      -1.289  -4.673  -0.572  0.00  0.00    -0.074 C 
ATOM     10  N   UNL     1      -1.310  -4.697  -2.023  0.00  0.00    +0.378 N 
ATOM     11  C   UNL     1      -1.324  -3.401  -2.676  0.00  0.00    -0.073 C 
ATOM     12  C   UNL     1       0.026  -2.692  -2.521  0.00  0.00    +0.035 C 
ATOM     13  C   UNL     1      -2.502  -5.440  -2.453  0.00  0.00    -0.096 C 
ATOM     14  H   UNL     1      -0.006  -0.130  -1.984  0.00  0.00    +0.167 HD
ATOM     15  H   UNL     1      -0.497  -5.203  -2.342  0.00  0.00    -0.082 HD
ENDROOT
BRANCH   6  16
ATOM     16  N   UNL     1       0.050  -2.659   2.394  0.00  0.00    -0.322 N 
ATOM     17  H   UNL     1       0.065  -3.629   2.405  0.00  0.00    +0.148 HD
BRANCH  16  18
ATOM     18  C   UNL     1       0.044  -1.913   3.655  0.00  0.00    +0.179 C 
BRANCH  18  19
ATOM     19  C   UNL     1       0.063  -2.880   4.811  0.00  0.00    +0.151 A 
ATOM     20  N   UNL     1      -0.979  -3.398   5.407  0.00  0.00    -0.133 NA
ATOM     21  N   UNL     1      -0.592  -4.188   6.347  0.00  0.00    -0.134 NA
ATOM     22  C   UNL     1       0.709  -4.212   6.389  0.00  0.00    +0.133 A 
ATOM     23  N   UNL     1       1.160  -3.379   5.422  0.00  0.00    -0.314 N 
ATOM     24  C   UNL     1       2.558  -3.073   5.119  0.00  0.00    +0.125 C 
ATOM     25  C   UNL     1       3.436  -4.266   5.508  0.00  0.00    +0.022 C 
ATOM     26  C   UNL     1       3.881  -4.126   6.963  0.00  0.00    +0.002 C 
ATOM     27  C   UNL     1       2.671  -4.118   7.893  0.00  0.00    +0.008 C 
ATOM     28  C   UNL     1       1.576  -5.016   7.323  0.00  0.00    +0.076 C 
ENDBRANCH  18  19
ENDBRANCH  16  18
ENDBRANCH   6  16
TORSDOF 3
