REMARK  Name = ZINC11590956
REMARK  13 active torsions:
REMARK  status: ('A' for Active; 'I' for Inactive)
REMARK    1  A    between atoms: C_1  and  C_2
REMARK    2  A    between atoms: C_6  and  C_34
REMARK    3  A    between atoms: C_7  and  N_8
REMARK    4  A    between atoms: C_9  and  C_11
REMARK    5  A    between atoms: C_11  and  N_12
REMARK    6  A    between atoms: C_13  and  C_15
REMARK    7  A    between atoms: C_15  and  N_16
REMARK    8  A    between atoms: C_19  and  C_23
REMARK    9  A    between atoms: C_19  and  C_24
REMARK   10  A    between atoms: C_27  and  O_32
REMARK   11  A    between atoms: C_28  and  O_30
REMARK   12  A    between atoms: O_30  and  C_31
REMARK   13  A    between atoms: O_32  and  C_33
REMARK                            x       y       z     vdW  Elec       q    Type
REMARK                         _______ _______ _______ _____ _____    ______ ____
ROOT
ATOM      1  N   UNL     1      -2.997   5.837  -3.391  0.00  0.00    -0.215 N 
ATOM      2  C   UNL     1      -3.199   5.550  -2.090  0.00  0.00    +0.251 C 
ATOM      3  O   UNL     1      -4.162   4.996  -1.604  0.00  0.00    -0.272 OA
ATOM      4  C   UNL     1      -1.972   6.060  -1.361  0.00  0.00    +0.135 C 
ATOM      5  N   UNL     1      -1.143   6.630  -2.437  0.00  0.00    -0.281 N 
ATOM      6  C   UNL     1      -1.824   6.453  -3.583  0.00  0.00    +0.310 C 
ATOM      7  O   UNL     1      -1.420   6.811  -4.672  0.00  0.00    -0.252 OA
ATOM      8  C   UNL     1      -2.355   7.140  -0.347  0.00  0.00    +0.047 C 
ATOM      9  H   UNL     1      -0.275   7.052  -2.338  0.00  0.00    +0.152 HD
ENDROOT
BRANCH   4  10
ATOM     10  C   UNL     1      -1.251   4.927  -0.679  0.00  0.00    -0.012 A 
ATOM     11  C   UNL     1      -1.969   3.868  -0.155  0.00  0.00    +0.010 A 
ATOM     12  C   UNL     1      -1.312   2.828   0.476  0.00  0.00    +0.050 A 
ATOM     13  C   UNL     1       0.070   2.840   0.575  0.00  0.00    +0.162 A 
ATOM     14  C   UNL     1       0.794   3.903   0.043  0.00  0.00    +0.162 A 
ATOM     15  C   UNL     1       0.128   4.945  -0.584  0.00  0.00    +0.055 A 
BRANCH  14  16
ATOM     16  O   UNL     1       2.150   3.920   0.137  0.00  0.00    -0.491 OA
ATOM     17  C   UNL     1       2.826   5.043  -0.432  0.00  0.00    +0.277 C 
ENDBRANCH  14  16
BRANCH  13  18
ATOM     18  O   UNL     1       0.719   1.816   1.191  0.00  0.00    -0.491 OA
ATOM     19  C   UNL     1      -0.088   0.759   1.714  0.00  0.00    +0.277 C 
ENDBRANCH  13  18
ENDBRANCH   4  10
BRANCH   1  20
ATOM     20  C   UNL     1      -3.944   5.517  -4.462  0.00  0.00    +0.213 C 
BRANCH  20  22
ATOM     21  N   UNL     1      -4.384   3.639  -6.010  0.00  0.00    -0.305 N 
ATOM     22  C   UNL     1      -3.637   4.147  -5.010  0.00  0.00    +0.231 C 
ATOM     23  O   UNL     1      -2.719   3.502  -4.551  0.00  0.00    -0.274 OA
ATOM     24  H   UNL     1      -5.119   4.155  -6.377  0.00  0.00    +0.149 HD
BRANCH  21  25
ATOM     25  C   UNL     1      -4.087   2.307  -6.543  0.00  0.00    +0.200 C 
BRANCH  25  27
ATOM     26  N   UNL     1      -4.978   0.795  -8.286  0.00  0.00    -0.284 N 
ATOM     27  C   UNL     1      -5.061   1.977  -7.644  0.00  0.00    +0.234 C 
ATOM     28  O   UNL     1      -5.919   2.776  -7.954  0.00  0.00    -0.274 OA
ATOM     29  H   UNL     1      -4.249   0.186  -8.087  0.00  0.00    +0.155 HD
BRANCH  26  36
ATOM     30  C   UNL     1      -4.089  -0.035 -10.858  0.00  0.00    +0.045 C 
ATOM     31  C   UNL     1      -5.552   0.036 -10.505  0.00  0.00    -0.029 A 
ATOM     32  C   UNL     1      -6.506  -0.313 -11.441  0.00  0.00    +0.005 A 
ATOM     33  C   UNL     1      -7.850  -0.244 -11.119  0.00  0.00    +0.001 A 
ATOM     34  C   UNL     1      -8.242   0.170  -9.859  0.00  0.00    +0.005 A 
ATOM     35  C   UNL     1      -7.292   0.515  -8.918  0.00  0.00    -0.029 A 
ATOM     36  C   UNL     1      -5.942   0.446  -9.237  0.00  0.00    +0.039 A 
ATOM     37  C   UNL     1      -7.720   0.965  -7.545  0.00  0.00    +0.045 C 
ENDBRANCH  26  36
ENDBRANCH  25  27
ENDBRANCH  21  25
ENDBRANCH  20  22
ENDBRANCH   1  20
TORSDOF 8
