REMARK  Name = ZINC63385732
REMARK  3 active torsions:
REMARK  status: ('A' for Active; 'I' for Inactive)
REMARK    1  A    between atoms: C_1  and  C_2
REMARK    2  A    between atoms: N_24  and  C_27
REMARK    3  A    between atoms: C_27  and  C_28
REMARK                            x       y       z     vdW  Elec       q    Type
REMARK                         _______ _______ _______ _____ _____    ______ ____
ROOT
ATOM      1  C   UNL     1       0.024   1.503  -0.019  0.00  0.00    +0.109 C 
ATOM      2  C   UNL     1       0.002  -0.004   0.002  0.00  0.00    +0.214 C 
ATOM      3  O   UNL     1       0.587  -0.607   0.877  0.00  0.00    -0.276 OA
ATOM      4  N   UNL     1      -0.667  -0.682  -0.951  0.00  0.00    -0.281 N 
ATOM      5  C   UNL     1      -1.316   0.053  -2.043  0.00  0.00    +0.113 C 
ATOM      6  C   UNL     1      -0.782  -0.458  -3.394  0.00  0.00    +0.052 C 
ATOM      7  C   UNL     1      -0.794  -1.965  -3.325  0.00  0.00    -0.034 C 
ATOM      8  C   UNL     1      -1.306  -2.878  -4.141  0.00  0.00    -0.001 A 
ATOM      9  C   UNL     1      -1.943  -2.764  -5.463  0.00  0.00    +0.010 A 
ATOM     10  C   UNL     1      -2.383  -3.924  -6.018  0.00  0.00    +0.001 A 
ATOM     11  C   UNL     1      -2.255  -5.171  -5.398  0.00  0.00    +0.002 A 
ATOM     12  C   UNL     1      -1.674  -5.370  -4.188  0.00  0.00    +0.026 A 
ATOM     13  C   UNL     1      -1.163  -4.225  -3.509  0.00  0.00    +0.043 A 
ATOM     14  N   UNL     1      -0.543  -4.130  -2.370  0.00  0.00    -0.375 N 
ATOM     15  C   UNL     1      -0.161  -2.732  -2.169  0.00  0.00    +0.143 C 
ATOM     16  C   UNL     1      -0.733  -2.145  -0.889  0.00  0.00    +0.165 C 
ATOM     17  C   UNL     1      -0.014  -2.665   0.315  0.00  0.00    +0.010 A 
ATOM     18  C   UNL     1       1.306  -2.575   0.701  0.00  0.00    +0.023 A 
ATOM     19  C   UNL     1       1.654  -3.181   1.904  0.00  0.00    +0.018 A 
ATOM     20  C   UNL     1       0.717  -3.842   2.673  0.00  0.00    +0.017 A 
ATOM     21  C   UNL     1      -0.612  -3.937   2.290  0.00  0.00    +0.025 A 
ATOM     22  C   UNL     1      -0.974  -3.332   1.085  0.00  0.00    +0.043 A 
ATOM     23  N   UNL     1      -2.212  -3.273   0.469  0.00  0.00    -0.265 N 
ATOM     24  C   UNL     1      -2.164  -2.595  -0.698  0.00  0.00    +0.251 C 
ATOM     25  O   UNL     1      -3.092  -2.387  -1.450  0.00  0.00    -0.272 OA
ATOM     26 BR   UNL     1       3.448  -3.099   2.498  0.00  0.00    -0.050 Br
ATOM     27  H   UNL     1      -0.364  -4.860  -1.758  0.00  0.00    +0.160 HD
ENDROOT
BRANCH  23  28
ATOM     28  C   UNL     1      -3.430  -3.875   1.017  0.00  0.00    +0.140 C 
BRANCH  28  29
ATOM     29  C   UNL     1      -4.134  -2.873   1.895  0.00  0.00    -0.015 C 
ATOM     30  C   UNL     1      -5.388  -2.569   1.667  0.00  0.00    +0.005 C 
ENDBRANCH  28  29
ENDBRANCH  23  28
TORSDOF 2
