REMARK  Name = ZINC45738622
REMARK  2 active torsions:
REMARK  status: ('A' for Active; 'I' for Inactive)
REMARK    1  A    between atoms: C_4  and  C_7
REMARK    2  A    between atoms: C_12  and  N_15
REMARK                            x       y       z     vdW  Elec       q    Type
REMARK                         _______ _______ _______ _____ _____    ______ ____
ROOT
ATOM      1  C   UNL     1       2.848  -0.461  -2.496  0.00  0.00    +0.219 C 
ATOM      2  O   UNL     1       3.215   0.338  -3.332  0.00  0.00    -0.275 OA
ATOM      3  N   UNL     1       3.079  -1.776  -2.674  0.00  0.00    -0.301 N 
ATOM      4  C   UNL     1       2.544  -2.765  -1.728  0.00  0.00    +0.109 C 
ATOM      5  C   UNL     1       3.695  -3.646  -1.232  0.00  0.00    +0.041 C 
ATOM      6  C   UNL     1       4.421  -4.255  -2.433  0.00  0.00    +0.077 C 
ATOM      7  C   UNL     1       5.007  -3.136  -3.297  0.00  0.00    +0.041 C 
ATOM      8  C   UNL     1       3.866  -2.250  -3.821  0.00  0.00    +0.109 C 
ENDROOT
BRANCH   6   9
ATOM      9  N   UNL     1       5.502  -5.124  -1.961  0.00  0.00    -0.296 N 
ATOM     10  C   UNL     1       5.944  -6.131  -2.739  0.00  0.00    +0.302 C 
ATOM     11  O   UNL     1       5.511  -6.264  -3.868  0.00  0.00    -0.253 OA
ATOM     12  N   UNL     1       6.868  -6.992  -2.267  0.00  0.00    -0.284 N 
ATOM     13  C   UNL     1       7.465  -6.760  -0.951  0.00  0.00    +0.120 C 
ATOM     14  C   UNL     1       7.048  -7.884   0.005  0.00  0.00    +0.088 C 
ATOM     15  S   UNL     1       7.557  -9.476  -0.712  0.00  0.00    -0.158 S 
ATOM     16  C   UNL     1       6.819  -9.436  -2.373  0.00  0.00    +0.088 C 
ATOM     17  C   UNL     1       7.256  -8.150  -3.073  0.00  0.00    +0.120 C 
ATOM     18  H   UNL     1       5.898  -4.974  -1.089  0.00  0.00    +0.151 HD
ENDBRANCH   6   9
BRANCH   1  22
ATOM     19  C   UNL     1       1.741   2.017   0.848  0.00  0.00    +0.000 C 
ATOM     20  C   UNL     1       2.415   0.673   1.136  0.00  0.00    +0.001 C 
ATOM     21  C   UNL     1       3.141   0.187  -0.120  0.00  0.00    +0.013 C 
ATOM     22  C   UNL     1       2.133   0.018  -1.259  0.00  0.00    +0.075 C 
ATOM     23  C   UNL     1       1.459   1.361  -1.547  0.00  0.00    +0.013 C 
ATOM     24  C   UNL     1       0.733   1.848  -0.291  0.00  0.00    +0.001 C 
ENDBRANCH   1  22
TORSDOF 2
