REMARK  Name = ZINC40900827
REMARK  9 active torsions:
REMARK  status: ('A' for Active; 'I' for Inactive)
REMARK    1  A    between atoms: C_1  and  C_2
REMARK    2  A    between atoms: C_2  and  O_3
REMARK    3  A    between atoms: O_3  and  C_4
REMARK    4  A    between atoms: C_8  and  C_24
REMARK    5  A    between atoms: C_9  and  N_10
REMARK    6  A    between atoms: C_11  and  C_13
REMARK    7  A    between atoms: C_16  and  C_19
REMARK    8  A    between atoms: N_21  and  C_22
REMARK    9  A    between atoms: N_21  and  C_23
REMARK                            x       y       z     vdW  Elec       q    Type
REMARK                         _______ _______ _______ _____ _____    ______ ____
ROOT
ATOM      1  C   UNL     1       1.986  -1.897  -0.773  0.00  0.00    +0.144 A 
ATOM      2  C   UNL     1       1.787  -2.732   0.313  0.00  0.00    +0.067 A 
ATOM      3  C   UNL     1       2.176  -4.061   0.256  0.00  0.00    +0.045 A 
ATOM      4  C   UNL     1       2.766  -4.566  -0.884  0.00  0.00    +0.035 A 
ATOM      5  C   UNL     1       2.974  -3.736  -1.990  0.00  0.00    +0.063 A 
ATOM      6  C   UNL     1       2.574  -2.394  -1.934  0.00  0.00    +0.088 A 
ATOM      7 CL   UNL     1       1.921  -5.095   1.627  0.00  0.00    -0.083 Cl
ENDROOT
BRANCH   5   8
ATOM      8  C   UNL     1       3.604  -4.272  -3.210  0.00  0.00    +0.251 C 
ATOM      9  O   UNL     1       3.710  -3.571  -4.198  0.00  0.00    -0.270 OA
ATOM     10  N   UNL     1       4.062  -5.540  -3.231  0.00  0.00    -0.266 N 
ATOM     11  C   UNL     1       4.752  -6.013  -4.346  0.00  0.00    +0.125 A 
ATOM     12  C   UNL     1       5.120  -7.352  -4.410  0.00  0.00    +0.045 A 
ATOM     13  C   UNL     1       5.805  -7.809  -5.522  0.00  0.00    +0.025 A 
ATOM     14  C   UNL     1       6.099  -6.907  -6.537  0.00  0.00    +0.059 A 
ATOM     15  C   UNL     1       5.702  -5.590  -6.406  0.00  0.00    +0.132 A 
ATOM     16  N   UNL     1       5.046  -5.184  -5.335  0.00  0.00    -0.239 NA
ATOM     17 CL   UNL     1       6.957  -7.428  -7.953  0.00  0.00    -0.082 Cl
ATOM     18  H   UNL     1       3.912  -6.123  -2.471  0.00  0.00    +0.157 HD
ENDBRANCH   5   8
BRANCH   6  19
ATOM     19  N   UNL     1       2.771  -1.558  -3.033  0.00  0.00    -0.278 N 
ATOM     20  C   UNL     1       3.146  -0.277  -2.847  0.00  0.00    +0.248 C 
ATOM     21  O   UNL     1       3.342   0.141  -1.722  0.00  0.00    -0.270 OA
ATOM     22  H   UNL     1       2.638  -1.899  -3.931  0.00  0.00    +0.155 HD
BRANCH  20  23
ATOM     23  C   UNL     1       3.318   0.619  -4.010  0.00  0.00    +0.037 A 
ATOM     24  C   UNL     1       3.088   0.140  -5.301  0.00  0.00    +0.014 A 
ATOM     25  C   UNL     1       3.249   0.976  -6.385  0.00  0.00    +0.012 A 
ATOM     26  C   UNL     1       3.642   2.300  -6.192  0.00  0.00    +0.013 A 
ATOM     27  C   UNL     1       3.873   2.779  -4.902  0.00  0.00    +0.012 A 
ATOM     28  C   UNL     1       3.707   1.946  -3.817  0.00  0.00    +0.014 A 
BRANCH  26  29
ATOM     29  C   UNL     1       3.816   3.198  -7.357  0.00  0.00    +0.099 C 
ATOM     30  N   UNL     1       4.349   2.745  -8.455  0.00  0.00    -0.386 N 
ATOM     31  N   UNL     1       3.412   4.513  -7.280  0.00  0.00    -0.323 N 
ATOM     32  C   UNL     1       2.680   4.987  -6.103  0.00  0.00    +0.130 C 
ATOM     33  C   UNL     1       3.714   5.438  -8.375  0.00  0.00    +0.130 C 
ATOM     34  H   UNL     1       4.542   3.351  -9.187  0.00  0.00    +0.157 HD
ATOM     35  H   UNL     1       4.554   1.800  -8.540  0.00  0.00    +0.157 HD
ENDBRANCH  26  29
ENDBRANCH  20  23
ENDBRANCH   6  19
BRANCH   1  36
ATOM     36  O   UNL     1       1.601  -0.594  -0.710  0.00  0.00    -0.490 OA
BRANCH  36  38
ATOM     37  C   UNL     1       0.640   1.328   0.395  0.00  0.00    +0.048 C 
ATOM     38  C   UNL     1       1.004  -0.153   0.511  0.00  0.00    +0.226 C 
ENDBRANCH  36  38
ENDBRANCH   1  36
TORSDOF 6
