REMARK  Name = ZINC64930137
REMARK  5 active torsions:
REMARK  status: ('A' for Active; 'I' for Inactive)
REMARK    1  A    between atoms: C_1  and  C_2
REMARK    2  A    between atoms: C_5  and  N_8
REMARK    3  A    between atoms: C_9  and  C_11
REMARK    4  A    between atoms: C_15  and  C_18
REMARK    5  A    between atoms: C_24  and  C_26
REMARK                            x       y       z     vdW  Elec       q    Type
REMARK                         _______ _______ _______ _____ _____    ______ ____
ROOT
ATOM      1  C   UNL     1       2.488  -8.602   3.556  0.00  0.00    +0.112 C 
ATOM      2  C   UNL     1       2.106  -8.645   5.050  0.00  0.00    +0.027 C 
ATOM      3  C   UNL     1       3.283  -9.428   5.688  0.00  0.00    +0.021 C 
ATOM      4  C   UNL     1       4.481  -8.936   4.838  0.00  0.00    +0.108 C 
ATOM      5  N   UNL     1       3.942  -8.801   3.469  0.00  0.00    -0.294 N 
ATOM      6  C   UNL     1       4.661  -8.851   2.330  0.00  0.00    +0.242 C 
ATOM      7  O   UNL     1       4.108  -8.727   1.257  0.00  0.00    -0.273 OA
ENDROOT
BRANCH   6   8
ATOM      8  C   UNL     1       6.152  -9.062   2.389  0.00  0.00    +0.190 C 
ATOM      9  C   UNL     1       6.812  -7.914   3.120  0.00  0.00    +0.016 C 
ATOM     10  C   UNL     1       7.659  -7.342   2.233  0.00  0.00    -0.004 A 
ATOM     11  C   UNL     1       8.576  -6.200   2.329  0.00  0.00    +0.010 A 
ATOM     12  C   UNL     1       9.311  -5.857   1.246  0.00  0.00    +0.001 A 
ATOM     13  C   UNL     1       9.218  -6.562   0.039  0.00  0.00    +0.002 A 
ATOM     14  C   UNL     1       8.399  -7.622  -0.126  0.00  0.00    +0.026 A 
ATOM     15  C   UNL     1       7.580  -8.070   0.947  0.00  0.00    +0.043 A 
ATOM     16  N   UNL     1       6.718  -9.056   1.035  0.00  0.00    -0.370 N 
ATOM     17  H   UNL     1       6.492  -9.677   0.324  0.00  0.00    +0.161 HD
ENDBRANCH   6   8
BRANCH   1  21
ATOM     18  C   UNL     1       0.309  -6.349   1.121  0.00  0.00    +0.272 C 
ATOM     19  N   UNL     1       1.668  -6.766   0.707  0.00  0.00    -0.167 NA
ATOM     20  N   UNL     1       2.472  -7.164   1.527  0.00  0.00    -0.175 NA
ATOM     21  C   UNL     1       2.112  -7.243   2.961  0.00  0.00    +0.207 C 
ATOM     22  S   UNL     1       0.277  -7.047   2.833  0.00  0.00    -0.093 S 
BRANCH  18  24
ATOM     23  N   UNL     1       0.059  -4.170  -0.021  0.00  0.00    -0.283 N 
ATOM     24  C   UNL     1       0.175  -4.848   1.138  0.00  0.00    +0.254 C 
ATOM     25  O   UNL     1       0.173  -4.251   2.193  0.00  0.00    -0.272 OA
ATOM     26  H   UNL     1      -0.017  -4.651  -0.860  0.00  0.00    +0.155 HD
BRANCH  23  31
ATOM     27  C   UNL     1       0.008   1.503   0.007  0.00  0.00    +0.044 C 
ATOM     28  C   UNL     1       0.022  -0.004  -0.001  0.00  0.00    -0.050 A 
ATOM     29  C   UNL     1       0.777  -0.692   0.931  0.00  0.00    +0.005 A 
ATOM     30  C   UNL     1       0.791  -2.073   0.927  0.00  0.00    +0.023 A 
ATOM     31  C   UNL     1       0.046  -2.771  -0.014  0.00  0.00    +0.033 A 
ATOM     32  C   UNL     1      -0.712  -2.077  -0.948  0.00  0.00    +0.023 A 
ATOM     33  C   UNL     1      -0.726  -0.696  -0.936  0.00  0.00    +0.005 A 
ENDBRANCH  23  31
ENDBRANCH  18  24
ENDBRANCH   1  21
TORSDOF 4
