REMARK  Name = ZINC04587461
REMARK  2 active torsions:
REMARK  status: ('A' for Active; 'I' for Inactive)
REMARK    1  A    between atoms: C_6  and  N_7
REMARK    2  A    between atoms: C_11  and  C_12
REMARK                            x       y       z     vdW  Elec       q    Type
REMARK                         _______ _______ _______ _____ _____    ______ ____
ROOT
ATOM      1  N   UNL     1      -0.001   1.257  -0.781  0.00  0.00    -0.184 N 
ATOM      2  C   UNL     1       0.031  -0.080  -0.627  0.00  0.00    +0.272 C 
ATOM      3  O   UNL     1      -0.906  -0.846  -0.752  0.00  0.00    -0.268 OA
ATOM      4  C   UNL     1       1.419  -0.438  -0.277  0.00  0.00    +0.102 C 
ATOM      5  C   UNL     1       1.923  -1.697  -0.026  0.00  0.00    +0.026 C 
ATOM      6  C   UNL     1       2.151   0.843  -0.255  0.00  0.00    +0.266 C 
ATOM      7  O   UNL     1       3.332   0.999  -0.008  0.00  0.00    -0.268 OA
ATOM      8  N   UNL     1       1.262   1.807  -0.560  0.00  0.00    -0.223 N 
ATOM      9  H   UNL     1       1.470   2.752  -0.618  0.00  0.00    +0.174 HD
ENDROOT
BRANCH   5  10
ATOM     10  C   UNL     1       1.014  -2.840   0.087  0.00  0.00    -0.020 A 
ATOM     11  C   UNL     1       1.388  -4.089  -0.429  0.00  0.00    +0.012 A 
ATOM     12  C   UNL     1       0.532  -5.161  -0.321  0.00  0.00    +0.050 A 
ATOM     13  C   UNL     1      -0.703  -5.011   0.299  0.00  0.00    +0.166 A 
ATOM     14  C   UNL     1      -1.083  -3.770   0.816  0.00  0.00    +0.167 A 
ATOM     15  C   UNL     1      -0.230  -2.691   0.716  0.00  0.00    +0.057 A 
ATOM     16  O   UNL     1      -2.327  -3.890   1.366  0.00  0.00    -0.453 OA
ATOM     17  C   UNL     1      -2.531  -5.304   1.546  0.00  0.00    +0.466 C 
ATOM     18  O   UNL     1      -1.709  -5.902   0.527  0.00  0.00    -0.453 OA
ENDBRANCH   5  10
BRANCH   1  24
ATOM     19  C   UNL     1      -2.350   1.344  -1.333  0.00  0.00    +0.026 A 
ATOM     20  C   UNL     1      -3.475   2.073  -1.666  0.00  0.00    +0.017 A 
ATOM     21  C   UNL     1      -3.395   3.448  -1.799  0.00  0.00    +0.018 A 
ATOM     22  C   UNL     1      -2.190   4.097  -1.595  0.00  0.00    +0.017 A 
ATOM     23  C   UNL     1      -1.063   3.373  -1.257  0.00  0.00    +0.026 A 
ATOM     24  C   UNL     1      -1.140   1.993  -1.123  0.00  0.00    +0.056 A 
ATOM     25 BR   UNL     1      -4.936   4.442  -2.262  0.00  0.00    -0.050 Br
ENDBRANCH   1  24
TORSDOF 2
