REMARK  Name = ZINC22812124
REMARK  11 active torsions:
REMARK  status: ('A' for Active; 'I' for Inactive)
REMARK    1  A    between atoms: C_1  and  C_2
REMARK    2  A    between atoms: C_2  and  C_4
REMARK    3  A    between atoms: C_2  and  N_14
REMARK    4  A    between atoms: C_15  and  C_17
REMARK    5  A    between atoms: C_17  and  N_18
REMARK    6  A    between atoms: N_22  and  C_25
REMARK    7  A    between atoms: C_25  and  C_26
REMARK    8  A    between atoms: N_28  and  C_29
REMARK    9  A    between atoms: C_29  and  C_30
REMARK   10  A    between atoms: C_29  and  C_31
REMARK   11  A    between atoms: C_29  and  C_32
REMARK                            x       y       z     vdW  Elec       q    Type
REMARK                         _______ _______ _______ _____ _____    ______ ____
ROOT
ATOM      1  C   UNL     1       2.454  -6.339   0.873  0.00  0.00    +0.180 C 
ENDROOT
BRANCH   1   2
ATOM      2  N   UNL     1       1.785  -5.032   0.830  0.00  0.00    -0.296 NA
ATOM      3  C   UNL     1       0.461  -5.091   1.489  0.00  0.00    +0.083 C 
ATOM      4  C   UNL     1      -0.392  -3.844   1.208  0.00  0.00    -0.003 C 
ATOM      5  C   UNL     1       0.421  -2.575   1.268  0.00  0.00    -0.077 C 
ATOM      6  N   UNL     1       0.905  -2.262  -0.094  0.00  0.00    +0.386 N 
ATOM      7  C   UNL     1       2.030  -3.001  -0.484  0.00  0.00    -0.063 C 
ATOM      8  C   UNL     1       1.744  -4.516  -0.520  0.00  0.00    +0.066 C 
ATOM      9  H   UNL     1       0.140  -2.603  -0.806  0.00  0.00    -0.081 HD
BRANCH   6  10
ATOM     10  C   UNL     1       1.142  -0.821  -0.251  0.00  0.00    +0.019 C 
BRANCH  10  11
ATOM     11  C   UNL     1      -0.154  -0.076  -0.061  0.00  0.00    +0.197 C 
ATOM     12  O   UNL     1      -1.174  -0.685   0.182  0.00  0.00    -0.278 OA
ATOM     13  N   UNL     1      -0.179   1.268  -0.160  0.00  0.00    -0.312 N 
ATOM     14  H   UNL     1       0.747   1.821  -0.375  0.00  0.00    +0.149 HD
BRANCH  13  15
ATOM     15  C   UNL     1      -1.440   1.992   0.019  0.00  0.00    +0.026 C 
ATOM     16  C   UNL     1      -1.993   1.715   1.418  0.00  0.00    +0.031 C 
ATOM     17  C   UNL     1      -1.193   3.494  -0.143  0.00  0.00    +0.031 C 
ATOM     18  C   UNL     1      -2.450   1.525  -1.031  0.00  0.00    +0.031 C 
ENDBRANCH  13  15
ENDBRANCH  10  11
ENDBRANCH   6  10
ENDBRANCH   1   2
BRANCH   1  20
ATOM     19  N   UNL     1       2.014  -8.639   0.077  0.00  0.00    -0.308 N 
ATOM     20  C   UNL     1       1.651  -7.340   0.084  0.00  0.00    +0.228 C 
ATOM     21  O   UNL     1       0.680  -6.978  -0.545  0.00  0.00    -0.274 OA
ATOM     22  H   UNL     1       2.895  -8.967   0.647  0.00  0.00    +0.149 HD
BRANCH  19  24
ATOM     23  C   UNL     1       1.715  -9.621  -2.143  0.00  0.00    +0.033 C 
ATOM     24  C   UNL     1       1.233  -9.612  -0.691  0.00  0.00    +0.100 C 
BRANCH  24  25
ATOM     25  C   UNL     1       1.414 -10.984  -0.093  0.00  0.00    -0.027 A 
ATOM     26  C   UNL     1       2.657 -11.385   0.359  0.00  0.00    +0.006 A 
ATOM     27  C   UNL     1       2.815 -12.643   0.903  0.00  0.00    +0.004 A 
ATOM     28  C   UNL     1       1.734 -13.511   1.000  0.00  0.00    -0.044 A 
ATOM     29  C   UNL     1       0.495 -13.109   0.554  0.00  0.00    -0.044 A 
ATOM     30  C   UNL     1       0.338 -11.841   0.010  0.00  0.00    +0.009 A 
ATOM     31  C   UNL     1      -0.722 -13.993   0.637  0.00  0.00    +0.035 C 
ATOM     32  C   UNL     1      -0.314 -15.451   0.839  0.00  0.00    +0.005 C 
ATOM     33  C   UNL     1       0.664 -15.521   2.018  0.00  0.00    +0.005 C 
ATOM     34  C   UNL     1       1.981 -14.874   1.591  0.00  0.00    +0.035 C 
ENDBRANCH  24  25
ENDBRANCH  19  24
ENDBRANCH   1  20
TORSDOF 7
