REMARK  Name = ZINC09495750
REMARK  8 active torsions:
REMARK  status: ('A' for Active; 'I' for Inactive)
REMARK    1  A    between atoms: C_1  and  O_2
REMARK    2  A    between atoms: O_2  and  C_3
REMARK    3  A    between atoms: C_5  and  C_13
REMARK    4  A    between atoms: C_6  and  O_11
REMARK    5  A    between atoms: C_8  and  O_9
REMARK    6  A    between atoms: O_9  and  C_10
REMARK    7  A    between atoms: O_11  and  C_12
REMARK    8  A    between atoms: C_16  and  C_27
REMARK                            x       y       z     vdW  Elec       q    Type
REMARK                         _______ _______ _______ _____ _____    ______ ____
ROOT
ATOM      1  C   UNL     1       2.401   0.384  -4.230  0.00  0.00    +0.130 C 
ATOM      2  C   UNL     1       3.487   1.289  -3.639  0.00  0.00    +0.086 C 
ATOM      3  C   UNL     1       2.881   2.452  -2.906  0.00  0.00    +0.054 C 
ATOM      4  N   UNL     1       1.771   3.023  -3.289  0.00  0.00    -0.218 NA
ATOM      5  C   UNL     1       1.097   2.506  -4.353  0.00  0.00    +0.210 A 
ATOM      6  N   UNL     1       1.375   1.238  -4.836  0.00  0.00    -0.302 N 
ATOM      7  C   UNL     1       0.549   1.014  -5.893  0.00  0.00    +0.069 A 
ATOM      8  C   UNL     1       0.390  -0.059  -6.763  0.00  0.00    +0.028 A 
ATOM      9  C   UNL     1      -0.577   0.066  -7.747  0.00  0.00    +0.002 A 
ATOM     10  C   UNL     1      -1.357   1.203  -7.870  0.00  0.00    +0.002 A 
ATOM     11  C   UNL     1      -1.223   2.277  -7.026  0.00  0.00    +0.028 A 
ATOM     12  C   UNL     1      -0.252   2.180  -6.020  0.00  0.00    +0.066 A 
ATOM     13  N   UNL     1       0.124   3.037  -5.051  0.00  0.00    -0.324 N 
ATOM     14  H   UNL     1      -0.265   3.912  -4.895  0.00  0.00    +0.169 HD
ENDROOT
BRANCH   3  15
ATOM     15  C   UNL     1       3.563   2.967  -1.709  0.00  0.00    -0.003 A 
ATOM     16  C   UNL     1       4.757   2.381  -1.274  0.00  0.00    +0.010 A 
ATOM     17  C   UNL     1       5.391   2.869  -0.152  0.00  0.00    +0.002 A 
ATOM     18  C   UNL     1       4.851   3.936   0.545  0.00  0.00    +0.015 A 
ATOM     19  C   UNL     1       3.669   4.521   0.121  0.00  0.00    +0.018 A 
ATOM     20  C   UNL     1       3.025   4.048  -1.003  0.00  0.00    +0.025 A 
ATOM     21 BR   UNL     1       2.941   5.978   1.082  0.00  0.00    -0.050 Br
ENDBRANCH   3  15
BRANCH   1  24
ATOM     22  C   UNL     1       0.607  -0.608  -1.057  0.00  0.00    +0.162 A 
ATOM     23  C   UNL     1       1.173   0.160  -2.062  0.00  0.00    +0.058 A 
ATOM     24  C   UNL     1       1.787  -0.453  -3.138  0.00  0.00    +0.021 A 
ATOM     25  C   UNL     1       1.838  -1.837  -3.214  0.00  0.00    +0.129 A 
ATOM     26  C   UNL     1       1.272  -2.609  -2.211  0.00  0.00    +0.095 A 
ATOM     27  C   UNL     1       0.661  -1.996  -1.129  0.00  0.00    +0.165 A 
BRANCH  22  29
ATOM     28  C   UNL     1      -0.017   1.425   0.010  0.00  0.00    +0.277 C 
ATOM     29  O   UNL     1       0.002  -0.004   0.002  0.00  0.00    -0.491 OA
ENDBRANCH  22  29
BRANCH  27  30
ATOM     30  O   UNL     1       0.112  -2.751  -0.140  0.00  0.00    -0.491 OA
ATOM     31  C   UNL     1       0.205  -4.170  -0.279  0.00  0.00    +0.277 C 
ENDBRANCH  27  30
BRANCH  25  32
ATOM     32  O   UNL     1       2.442  -2.437  -4.274  0.00  0.00    -0.495 OA
ATOM     33  C   UNL     1       2.458  -3.866  -4.288  0.00  0.00    +0.277 C 
ENDBRANCH  25  32
ENDBRANCH   1  24
TORSDOF 5
