REMARK  Name = ZINC04048156
REMARK  3 active torsions:
REMARK  status: ('A' for Active; 'I' for Inactive)
REMARK    1  A    between atoms: C_1  and  C_2
REMARK    2  A    between atoms: N_4  and  C_5
REMARK    3  A    between atoms: C_18  and  C_21
REMARK                            x       y       z     vdW  Elec       q    Type
REMARK                         _______ _______ _______ _____ _____    ______ ____
ROOT
ATOM      1  C   UNL     1       1.183   1.700   0.003  0.00  0.00    +0.034 A 
ATOM      2  C   UNL     1       1.149   3.084  -0.103  0.00  0.00    +0.025 A 
ATOM      3  C   UNL     1       2.324   3.807  -0.095  0.00  0.00    +0.025 A 
ATOM      4  C   UNL     1       3.548   3.159   0.009  0.00  0.00    +0.031 A 
ATOM      5  C   UNL     1       3.579   1.762   0.099  0.00  0.00    -0.018 A 
ATOM      6  C   UNL     1       2.403   1.044   0.098  0.00  0.00    +0.029 A 
ATOM      7  C   UNL     1       4.905   1.112   0.178  0.00  0.00    +0.049 C 
ATOM      8  C   UNL     1       5.092  -0.212   0.826  0.00  0.00    -0.023 C 
ATOM      9  C   UNL     1       6.308  -0.257   1.356  0.00  0.00    -0.030 C 
ATOM     10  C   UNL     1       7.028   1.073   1.127  0.00  0.00    +0.033 C 
ATOM     11  C   UNL     1       5.847   2.045   0.997  0.00  0.00    +0.029 C 
ATOM     12  C   UNL     1       6.053   3.274   0.129  0.00  0.00    +0.106 C 
ATOM     13  N   UNL     1       4.726   3.920   0.032  0.00  0.00    -0.336 N 
ATOM     14  H   UNL     1       4.670   4.887  -0.016  0.00  0.00    +0.147 HD
ENDROOT
BRANCH  12  15
ATOM     15  C   UNL     1       7.042   4.209   0.777  0.00  0.00    -0.009 A 
ATOM     16  C   UNL     1       6.591   5.254   1.562  0.00  0.00    +0.008 A 
ATOM     17  C   UNL     1       7.497   6.112   2.157  0.00  0.00    +0.020 A 
ATOM     18  C   UNL     1       8.855   5.925   1.968  0.00  0.00    +0.042 A 
ATOM     19  C   UNL     1       9.306   4.879   1.183  0.00  0.00    +0.040 A 
ATOM     20  C   UNL     1       8.399   4.018   0.592  0.00  0.00    +0.047 A 
ATOM     21 CL   UNL     1       8.964   2.700  -0.387  0.00  0.00    -0.083 Cl
ATOM     22 CL   UNL     1       9.992   7.002   2.716  0.00  0.00    -0.083 Cl
ENDBRANCH  12  15
BRANCH   1  26
ATOM     23  C   UNL     1      -2.366   0.643   0.692  0.00  0.00    +0.109 C 
ATOM     24  C   UNL     1      -1.111   1.472   0.600  0.00  0.00    +0.214 C 
ATOM     25  O   UNL     1      -1.090   2.594   1.059  0.00  0.00    -0.276 OA
ATOM     26  N   UNL     1      -0.011   0.966   0.007  0.00  0.00    -0.286 N 
ATOM     27  H   UNL     1      -0.047   0.096  -0.419  0.00  0.00    +0.155 HD
ENDBRANCH   1  26
TORSDOF 2
