REMARK  Name = ZINC61171745
REMARK  3 active torsions:
REMARK  status: ('A' for Active; 'I' for Inactive)
REMARK    1  A    between atoms: C_5  and  C_6
REMARK    2  A    between atoms: N_8  and  C_9
REMARK    3  A    between atoms: C_9  and  C_14
REMARK                            x       y       z     vdW  Elec       q    Type
REMARK                         _______ _______ _______ _____ _____    ______ ____
ROOT
ATOM      1  C   UNL     1      -1.123  -0.943   0.008  0.00  0.00    +0.252 C 
ATOM      2  O   UNL     1      -2.265  -0.523   0.022  0.00  0.00    -0.270 OA
ATOM      3  N   UNL     1      -0.892  -2.271  -0.001  0.00  0.00    -0.293 N 
ATOM      4  H   UNL     1       0.018  -2.605  -0.012  0.00  0.00    +0.151 HD
ENDROOT
BRANCH   1   9
ATOM      5  C   UNL     1      -0.017   1.383   0.010  0.00  0.00    +0.037 A 
ATOM      6  C   UNL     1       1.213   1.997   0.001  0.00  0.00    +0.040 A 
ATOM      7  C   UNL     1       2.333   1.229  -0.014  0.00  0.00    +0.070 A 
ATOM      8  S   UNL     1       1.751  -0.347  -0.017  0.00  0.00    -0.076 S 
ATOM      9  C   UNL     1       0.002  -0.004   0.002  0.00  0.00    +0.076 A 
ATOM     10 BR   UNL     1       4.134   1.803  -0.028  0.00  0.00    -0.041 Br
ATOM     11 BR   UNL     1       1.343   3.883   0.009  0.00  0.00    -0.049 Br
ENDBRANCH   1   9
BRANCH   3  12
ATOM     12  C   UNL     1      -2.017  -3.209   0.005  0.00  0.00    +0.121 C 
ATOM     13  C   UNL     1      -2.834  -3.046   1.303  0.00  0.00    +0.041 C 
ATOM     14  C   UNL     1      -3.262  -4.490   1.666  0.00  0.00    +0.003 C 
ATOM     15  C   UNL     1      -2.014  -5.323   1.283  0.00  0.00    +0.003 C 
ATOM     16  C   UNL     1      -1.496  -4.657  -0.008  0.00  0.00    +0.041 C 
BRANCH  12  17
ATOM     17  C   UNL     1      -2.877  -2.972  -1.166  0.00  0.00    +0.088 C 
ATOM     18  N   UNL     1      -3.541  -2.790  -2.070  0.00  0.00    -0.194 NA
ENDBRANCH  12  17
ENDBRANCH   3  12
TORSDOF 3
