REMARK  Name = ZINC09345304
REMARK  3 active torsions:
REMARK  status: ('A' for Active; 'I' for Inactive)
REMARK    1  A    between atoms: C_1  and  N_2
REMARK    2  A    between atoms: C_6  and  C_7
REMARK    3  A    between atoms: C_8  and  N_18
REMARK                            x       y       z     vdW  Elec       q    Type
REMARK                         _______ _______ _______ _____ _____    ______ ____
ROOT
ATOM      1  C   UNL     1      -3.559   2.417  -0.091  0.00  0.00    +0.081 A 
ATOM      2  C   UNL     1      -4.918   2.029  -0.013  0.00  0.00    +0.136 A 
ATOM      3  N   UNL     1      -5.864   2.957  -0.016  0.00  0.00    -0.214 NA
ATOM      4  C   UNL     1      -5.569   4.255  -0.089  0.00  0.00    +0.142 A 
ATOM      5  C   UNL     1      -6.616   5.195  -0.088  0.00  0.00    +0.047 A 
ATOM      6  C   UNL     1      -6.325   6.525  -0.163  0.00  0.00    +0.005 A 
ATOM      7  C   UNL     1      -4.988   6.937  -0.240  0.00  0.00    +0.018 A 
ATOM      8  C   UNL     1      -3.995   6.020  -0.241  0.00  0.00    +0.096 A 
ATOM      9  N   UNL     1      -4.275   4.688  -0.166  0.00  0.00    -0.268 N 
ATOM     10  C   UNL     1      -3.259   3.798  -0.163  0.00  0.00    +0.267 A 
ATOM     11  O   UNL     1      -2.102   4.178  -0.225  0.00  0.00    -0.267 OA
ENDROOT
BRANCH   2  12
ATOM     12  N   UNL     1      -5.255   0.695   0.064  0.00  0.00    -0.310 N 
ATOM     13  C   UNL     1      -6.699   0.503  -0.143  0.00  0.00    +0.111 C 
ATOM     14  C   UNL     1      -6.958  -0.979  -0.412  0.00  0.00    +0.054 C 
ATOM     15  C   UNL     1      -6.292  -1.819   0.647  0.00  0.00    -0.041 A 
ATOM     16  C   UNL     1      -6.689  -3.139   0.791  0.00  0.00    +0.004 A 
ATOM     17  C   UNL     1      -6.102  -3.944   1.747  0.00  0.00    +0.000 A 
ATOM     18  C   UNL     1      -5.113  -3.431   2.565  0.00  0.00    +0.000 A 
ATOM     19  C   UNL     1      -4.718  -2.116   2.423  0.00  0.00    +0.005 A 
ATOM     20  C   UNL     1      -5.308  -1.305   1.464  0.00  0.00    -0.027 A 
ATOM     21  C   UNL     1      -4.846   0.124   1.351  0.00  0.00    +0.142 C 
ENDBRANCH   2  12
BRANCH   1  27
ATOM     22  C   UNL     1      -0.818  -2.496  -2.494  0.00  0.00    +0.139 C 
ATOM     23  N   UNL     1      -1.780  -1.421  -2.240  0.00  0.00    -0.258 N 
ATOM     24  C   UNL     1      -1.561  -0.569  -1.254  0.00  0.00    +0.258 C 
ATOM     25  O   UNL     1      -0.569  -0.665  -0.552  0.00  0.00    -0.269 OA
ATOM     26  C   UNL     1      -2.519   0.461  -1.032  0.00  0.00    +0.077 C 
ATOM     27  C   UNL     1      -2.528   1.450  -0.090  0.00  0.00    +0.037 C 
ATOM     28  S   UNL     1      -3.704   0.110  -2.323  0.00  0.00    -0.061 S 
ATOM     29  C   UNL     1      -2.880  -1.315  -3.019  0.00  0.00    +0.120 C 
ATOM     30  S   UNL     1      -3.362  -2.295  -4.337  0.00  0.00    -0.027 S 
ENDBRANCH   1  27
TORSDOF 2
