REMARK  Name = ZINC49420252
REMARK  3 active torsions:
REMARK  status: ('A' for Active; 'I' for Inactive)
REMARK    1  A    between atoms: C_3  and  C_19
REMARK    2  A    between atoms: C_6  and  N_7
REMARK    3  A    between atoms: C_8  and  C_10
REMARK                            x       y       z     vdW  Elec       q    Type
REMARK                         _______ _______ _______ _____ _____    ______ ____
ROOT
ATOM      1  N   UNL     1      -1.196  -0.715   0.010  0.00  0.00    -0.278 N 
ATOM      2  C   UNL     1      -1.183  -2.059  -0.100  0.00  0.00    +0.304 C 
ATOM      3  O   UNL     1      -0.127  -2.656  -0.113  0.00  0.00    -0.265 OA
ATOM      4  H   UNL     1      -2.040  -0.243   0.087  0.00  0.00    +0.155 HD
ENDROOT
BRANCH   2   5
ATOM      5  C   UNL     1      -2.467  -2.811  -0.204  0.00  0.00    +0.305 C 
ATOM      6  O   UNL     1      -3.524  -2.214  -0.190  0.00  0.00    -0.265 OA
ATOM      7  N   UNL     1      -2.454  -4.155  -0.313  0.00  0.00    -0.257 N 
ATOM      8  C   UNL     1      -3.649  -4.854  -0.410  0.00  0.00    +0.165 A 
ATOM      9  N   UNL     1      -4.876  -4.380  -0.418  0.00  0.00    -0.233 NA
ATOM     10  C   UNL     1      -5.918  -5.184  -0.517  0.00  0.00    +0.120 A 
ATOM     11  C   UNL     1      -5.663  -6.513  -0.610  0.00  0.00    +0.068 A 
ATOM     12  S   UNL     1      -3.879  -6.515  -0.553  0.00  0.00    -0.061 S 
ATOM     13  H   UNL     1      -1.610  -4.632  -0.324  0.00  0.00    +0.157 HD
ENDBRANCH   2   5
BRANCH   1  19
ATOM     14  C   UNL     1       0.066   1.250  -0.589  0.00  0.00    +0.024 A 
ATOM     15  C   UNL     1       1.249   1.955  -0.590  0.00  0.00    +0.022 A 
ATOM     16  C   UNL     1       2.386   1.411   0.012  0.00  0.00    +0.070 A 
ATOM     17  C   UNL     1       2.319   0.149   0.614  0.00  0.00    +0.060 A 
ATOM     18  C   UNL     1       1.132  -0.551   0.611  0.00  0.00    +0.044 A 
ATOM     19  C   UNL     1       0.003  -0.005   0.011  0.00  0.00    +0.035 A 
ATOM     20 CL   UNL     1       3.729  -0.533   1.363  0.00  0.00    -0.082 Cl
BRANCH  16  21
ATOM     21  C   UNL     1       3.618   2.141   0.013  0.00  0.00    +0.101 C 
ATOM     22  N   UNL     1       4.595   2.721   0.013  0.00  0.00    -0.191 NA
ENDBRANCH  16  21
ENDBRANCH   1  19
TORSDOF 3
