REMARK  Name = ZINC49121944
REMARK  3 active torsions:
REMARK  status: ('A' for Active; 'I' for Inactive)
REMARK    1  A    between atoms: C_4  and  N_20
REMARK    2  A    between atoms: C_6  and  C_7
REMARK    3  A    between atoms: N_11  and  C_12
REMARK                            x       y       z     vdW  Elec       q    Type
REMARK                         _______ _______ _______ _____ _____    ______ ____
ROOT
ATOM      1  C   UNL     1      -1.286  -0.746   0.142  0.00  0.00    +0.187 A 
ATOM      2  N   UNL     1      -1.416  -2.050   0.270  0.00  0.00    -0.108 NA
ATOM      3  N   UNL     1      -2.633  -2.404   0.061  0.00  0.00    -0.022 NA
ATOM      4  N   UNL     1      -3.363  -1.378  -0.211  0.00  0.00    -0.039 NA
ATOM      5  N   UNL     1      -2.521  -0.253  -0.165  0.00  0.00    -0.192 N 
ENDROOT
BRANCH   5   6
ATOM      6  C   UNL     1      -2.873   1.085  -0.388  0.00  0.00    +0.084 A 
ATOM      7  C   UNL     1      -2.233   1.816  -1.381  0.00  0.00    +0.044 A 
ATOM      8  C   UNL     1      -2.582   3.135  -1.599  0.00  0.00    +0.020 A 
ATOM      9  C   UNL     1      -3.567   3.728  -0.829  0.00  0.00    +0.016 A 
ATOM     10  C   UNL     1      -4.206   3.003   0.160  0.00  0.00    +0.018 A 
ATOM     11  C   UNL     1      -3.866   1.681   0.379  0.00  0.00    +0.043 A 
ATOM     12 BR   UNL     1      -4.745   0.688   1.726  0.00  0.00    -0.048 Br
ATOM     13 BR   UNL     1      -1.712   4.131  -2.950  0.00  0.00    -0.050 Br
ENDBRANCH   5   6
BRANCH   1  19
ATOM     14  C   UNL     1      -0.103   1.409   0.546  0.00  0.00    +0.013 A 
ATOM     15  C   UNL     1       1.060   2.136   0.699  0.00  0.00    +0.022 A 
ATOM     16  C   UNL     1       2.289   1.509   0.617  0.00  0.00    +0.062 A 
ATOM     17  C   UNL     1       2.361   0.140   0.378  0.00  0.00    +0.044 A 
ATOM     18  C   UNL     1       1.198  -0.598   0.223  0.00  0.00    +0.035 A 
ATOM     19  C   UNL     1      -0.041   0.035   0.307  0.00  0.00    +0.023 A 
ATOM     20 CL   UNL     1       3.747   2.431   0.811  0.00  0.00    -0.082 Cl
BRANCH  17  21
ATOM     21  N   UNL     1       3.606  -0.491   0.295  0.00  0.00    -0.357 N 
ATOM     22  H   UNL     1       4.419   0.026   0.404  0.00  0.00    +0.142 HD
ATOM     23  H   UNL     1       3.656  -1.445   0.129  0.00  0.00    +0.142 HD
ENDBRANCH  17  21
ENDBRANCH   1  19
TORSDOF 3
