REMARK  Name = ZINC63572574
REMARK  6 active torsions:
REMARK  status: ('A' for Active; 'I' for Inactive)
REMARK    1  A    between atoms: C_1  and  O_2
REMARK    2  A    between atoms: O_2  and  C_3
REMARK    3  A    between atoms: C_6  and  N_11
REMARK    4  A    between atoms: C_7  and  O_9
REMARK    5  A    between atoms: O_9  and  C_10
REMARK    6  A    between atoms: C_27  and  C_29
REMARK                            x       y       z     vdW  Elec       q    Type
REMARK                         _______ _______ _______ _____ _____    ______ ____
ROOT
ATOM      1  N   UNL     1      -4.993  -2.867  -0.070  0.00  0.00    -0.266 N 
ATOM      2  C   UNL     1      -6.060  -2.061   0.098  0.00  0.00    +0.307 C 
ATOM      3  O   UNL     1      -5.908  -0.856   0.159  0.00  0.00    -0.252 OA
ATOM      4  N   UNL     1      -7.295  -2.590   0.199  0.00  0.00    -0.276 N 
ATOM      5  C   UNL     1      -7.459  -4.047   0.243  0.00  0.00    +0.114 C 
ATOM      6  C   UNL     1      -8.375  -4.495  -0.911  0.00  0.00    +0.052 C 
ATOM      7  C   UNL     1      -9.549  -3.547  -0.923  0.00  0.00    -0.035 C 
ATOM      8  C   UNL     1     -10.858  -3.771  -0.918  0.00  0.00    +0.001 A 
ATOM      9  C   UNL     1     -11.639  -5.014  -1.008  0.00  0.00    +0.030 A 
ATOM     10  C   UNL     1     -12.991  -4.878  -0.951  0.00  0.00    +0.042 A 
ATOM     11  C   UNL     1     -13.635  -3.643  -0.815  0.00  0.00    +0.022 A 
ATOM     12  C   UNL     1     -12.995  -2.450  -0.733  0.00  0.00    +0.027 A 
ATOM     13  C   UNL     1     -11.571  -2.463  -0.790  0.00  0.00    +0.043 A 
ATOM     14  N   UNL     1     -10.719  -1.482  -0.759  0.00  0.00    -0.375 N 
ATOM     15  C   UNL     1      -9.374  -2.033  -0.923  0.00  0.00    +0.131 C 
ATOM     16  C   UNL     1      -8.465  -1.700   0.270  0.00  0.00    +0.134 C 
ATOM     17 CL   UNL     1     -13.968  -6.310  -1.053  0.00  0.00    -0.084 Cl
ATOM     18  H   UNL     1      -5.119  -3.824  -0.166  0.00  0.00    +0.156 HD
ATOM     19  H   UNL     1     -10.938  -0.544  -0.645  0.00  0.00    +0.160 HD
ENDROOT
BRANCH  16  20
ATOM     20  C   UNL     1      -9.206  -1.934   1.561  0.00  0.00    -0.025 A 
ATOM     21  C   UNL     1      -9.386  -0.893   2.453  0.00  0.00    +0.008 A 
ATOM     22  C   UNL     1     -10.066  -1.106   3.637  0.00  0.00    +0.038 A 
ATOM     23  C   UNL     1     -10.567  -2.363   3.930  0.00  0.00    +0.123 A 
ATOM     24  C   UNL     1     -10.387  -3.405   3.037  0.00  0.00    +0.038 A 
ATOM     25  C   UNL     1      -9.711  -3.188   1.851  0.00  0.00    +0.008 A 
ATOM     26  F   UNL     1     -11.232  -2.572   5.088  0.00  0.00    -0.205 F 
ENDBRANCH  16  20
BRANCH   1  30
ATOM     27  C   UNL     1      -1.147  -1.243  -0.178  0.00  0.00    +0.124 A 
ATOM     28  C   UNL     1      -2.239  -0.472  -0.549  0.00  0.00    +0.047 A 
ATOM     29  C   UNL     1      -3.512  -1.009  -0.514  0.00  0.00    +0.030 A 
ATOM     30  C   UNL     1      -3.700  -2.321  -0.107  0.00  0.00    +0.077 A 
ATOM     31  C   UNL     1      -2.606  -3.097   0.266  0.00  0.00    +0.145 A 
ATOM     32  C   UNL     1      -1.330  -2.558   0.224  0.00  0.00    +0.093 A 
BRANCH  27  34
ATOM     33  C   UNL     1       0.219   0.648  -0.637  0.00  0.00    +0.277 C 
ATOM     34  O   UNL     1       0.103  -0.712  -0.213  0.00  0.00    -0.495 OA
ENDBRANCH  27  34
BRANCH  31  35
ATOM     35  O   UNL     1      -2.788  -4.384   0.665  0.00  0.00    -0.493 OA
ATOM     36  C   UNL     1      -1.619  -5.121   1.034  0.00  0.00    +0.277 C 
ENDBRANCH  31  35
ENDBRANCH   1  30
TORSDOF 4
