REMARK  Name = ZINC24512755
REMARK  2 active torsions:
REMARK  status: ('A' for Active; 'I' for Inactive)
REMARK    1  A    between atoms: C_3  and  C_6
REMARK    2  A    between atoms: N_12  and  C_13
REMARK                            x       y       z     vdW  Elec       q    Type
REMARK                         _______ _______ _______ _____ _____    ______ ____
ROOT
ATOM      1  C   UNL     1       3.524   0.802   0.123  0.00  0.00    +0.111 C 
ATOM      2  N   UNL     1       4.199   1.869  -0.053  0.00  0.00    -0.181 NA
ATOM      3  N   UNL     1       5.580   2.010  -0.156  0.00  0.00    -0.215 N 
ATOM      4  C   UNL     1       6.401   0.920   0.103  0.00  0.00    +0.174 C 
ATOM      5  S   UNL     1       5.748  -0.649  -0.418  0.00  0.00    -0.083 S 
ATOM      6  C   UNL     1       4.073  -0.586   0.302  0.00  0.00    +0.138 C 
ATOM      7  N   UNL     1       7.571   1.039   0.689  0.00  0.00    -0.225 NA
ATOM      8  H   UNL     1       5.967   2.863  -0.407  0.00  0.00    +0.176 HD
ENDROOT
BRANCH   7   9
ATOM      9  C   UNL     1       7.973   2.255   1.174  0.00  0.00    +0.068 A 
ATOM     10  C   UNL     1       7.145   2.973   2.040  0.00  0.00    +0.029 A 
ATOM     11  C   UNL     1       7.556   4.197   2.526  0.00  0.00    +0.023 A 
ATOM     12  C   UNL     1       8.785   4.716   2.155  0.00  0.00    +0.059 A 
ATOM     13  C   UNL     1       9.611   4.009   1.296  0.00  0.00    +0.061 A 
ATOM     14  C   UNL     1       9.214   2.780   0.808  0.00  0.00    +0.049 A 
ATOM     15 CL   UNL     1      11.150   4.668   0.837  0.00  0.00    -0.082 Cl
ATOM     16 CL   UNL     1       9.293   6.258   2.770  0.00  0.00    -0.082 Cl
ENDBRANCH   7   9
BRANCH   1  19
ATOM     17  C   UNL     1       0.004   1.781   0.124  0.00  0.00    +0.042 A 
ATOM     18  C   UNL     1       1.369   2.110   0.022  0.00  0.00    +0.051 A 
ATOM     19  C   UNL     1       2.065   0.944   0.162  0.00  0.00    +0.151 A 
ATOM     20  O   UNL     1       1.177  -0.054   0.342  0.00  0.00    -0.462 OA
ATOM     21  C   UNL     1      -0.069   0.448   0.320  0.00  0.00    +0.196 A 
ENDBRANCH   1  19
TORSDOF 2
