REMARK  Name = ZINC43056763
REMARK  5 active torsions:
REMARK  status: ('A' for Active; 'I' for Inactive)
REMARK    1  A    between atoms: C_1  and  N_2
REMARK    2  A    between atoms: N_2  and  C_3
REMARK    3  A    between atoms: C_5  and  C_10
REMARK    4  A    between atoms: C_10  and  N_11
REMARK    5  A    between atoms: C_12  and  C_14
REMARK                            x       y       z     vdW  Elec       q    Type
REMARK                         _______ _______ _______ _____ _____    ______ ____
ROOT
ATOM      1  N   UNL     1      -1.688  -2.817   0.649  0.00  0.00    -0.306 N 
ATOM      2  C   UNL     1      -2.052  -3.380   1.818  0.00  0.00    +0.261 C 
ATOM      3  O   UNL     1      -1.214  -3.902   2.529  0.00  0.00    -0.269 OA
ATOM      4  H   UNL     1      -2.356  -2.401   0.082  0.00  0.00    +0.149 HD
ENDROOT
BRANCH   2   5
ATOM      5  C   UNL     1      -3.462  -3.365   2.233  0.00  0.00    +0.103 A 
ATOM      6  C   UNL     1      -3.949  -3.893   3.387  0.00  0.00    +0.040 A 
ATOM      7  C   UNL     1      -5.347  -3.671   3.406  0.00  0.00    +0.000 A 
ATOM      8  C   UNL     1      -6.359  -3.988   4.323  0.00  0.00    +0.011 A 
ATOM      9  C   UNL     1      -7.649  -3.634   4.058  0.00  0.00    +0.016 A 
ATOM     10  C   UNL     1      -7.972  -2.961   2.885  0.00  0.00    +0.020 A 
ATOM     11  C   UNL     1      -6.995  -2.639   1.968  0.00  0.00    +0.041 A 
ATOM     12  C   UNL     1      -5.671  -2.989   2.217  0.00  0.00    +0.048 A 
ATOM     13  N   UNL     1      -4.503  -2.807   1.516  0.00  0.00    -0.351 N 
ATOM     14  H   UNL     1      -4.422  -2.361   0.658  0.00  0.00    +0.166 HD
ATOM     15 BR   UNL     1      -9.770  -2.484   2.544  0.00  0.00    -0.050 Br
ENDBRANCH   2   5
BRANCH   1  16
ATOM     16  C   UNL     1      -0.282  -2.831   0.235  0.00  0.00    +0.143 C 
BRANCH  16  21
ATOM     17  C   UNL     1      -1.596   0.448   0.424  0.00  0.00    +0.130 C 
ATOM     18  N   UNL     1      -0.272   0.003  -0.017  0.00  0.00    -0.323 N 
ATOM     19  C   UNL     1       0.917   0.353   0.764  0.00  0.00    +0.130 C 
ATOM     20  C   UNL     1      -0.144  -0.753  -1.177  0.00  0.00    +0.103 A 
ATOM     21  C   UNL     1      -0.144  -2.142  -1.098  0.00  0.00    +0.008 A 
ATOM     22  C   UNL     1      -0.016  -2.881  -2.260  0.00  0.00    +0.010 A 
ATOM     23  C   UNL     1       0.109  -2.204  -3.466  0.00  0.00    +0.018 A 
ATOM     24  C   UNL     1       0.102  -0.824  -3.470  0.00  0.00    +0.084 A 
ATOM     25  N   UNL     1      -0.028  -0.144  -2.347  0.00  0.00    -0.349 N 
ATOM     26  H   UNL     1      -0.034   0.825  -2.378  0.00  0.00    +0.167 HD
ENDBRANCH  16  21
ENDBRANCH   1  16
TORSDOF 3
