REMARK  Name = ZINC57881069
REMARK  11 active torsions:
REMARK  status: ('A' for Active; 'I' for Inactive)
REMARK    1  A    between atoms: C_1  and  C_2
REMARK    2  A    between atoms: C_2  and  C_4
REMARK    3  A    between atoms: C_2  and  N_13
REMARK    4  A    between atoms: C_7  and  C_10
REMARK    5  A    between atoms: C_10  and  C_11
REMARK    6  A    between atoms: C_10  and  C_12
REMARK    7  A    between atoms: N_13  and  C_14
REMARK    8  A    between atoms: C_14  and  C_15
REMARK    9  A    between atoms: N_17  and  C_18
REMARK   10  A    between atoms: C_22  and  S_24
REMARK   11  A    between atoms: S_24  and  N_27
REMARK                            x       y       z     vdW  Elec       q    Type
REMARK                         _______ _______ _______ _____ _____    ______ ____
ROOT
ATOM      1  C   UNL     1      -3.440  -0.660   1.286  0.00  0.00    +0.200 C 
ATOM      2  O   UNL     1      -3.867  -1.274   0.331  0.00  0.00    -0.278 OA
ATOM      3  N   UNL     1      -4.233  -0.437   2.353  0.00  0.00    -0.287 N 
ATOM      4  H   UNL     1      -3.872  -0.006   3.144  0.00  0.00    +0.155 HD
ENDROOT
BRANCH   3   5
ATOM      5  C   UNL     1      -5.575  -0.829   2.321  0.00  0.00    +0.035 A 
ATOM      6  C   UNL     1      -6.541  -0.058   2.955  0.00  0.00    +0.023 A 
ATOM      7  C   UNL     1      -7.865  -0.448   2.922  0.00  0.00    +0.004 A 
ATOM      8  C   UNL     1      -8.231  -1.605   2.259  0.00  0.00    +0.028 A 
ATOM      9  C   UNL     1      -7.272  -2.375   1.627  0.00  0.00    +0.107 A 
ATOM     10  C   UNL     1      -5.947  -1.987   1.651  0.00  0.00    +0.051 A 
BRANCH   9  11
ATOM     11  S   UNL     1      -7.743  -3.849   0.784  0.00  0.00    +0.056 S 
ATOM     12  O   UNL     1      -6.589  -4.678   0.740  0.00  0.00    -0.153 OA
ATOM     13  O   UNL     1      -8.966  -4.277   1.366  0.00  0.00    -0.153 OA
BRANCH  11  14
ATOM     14  N   UNL     1      -8.085  -3.430  -0.781  0.00  0.00    -0.204 NA
ATOM     15  H   UNL     1      -8.004  -2.506  -1.064  0.00  0.00    +0.144 HD
ATOM     16  H   UNL     1      -8.366  -4.108  -1.415  0.00  0.00    +0.144 HD
ENDBRANCH  11  14
ENDBRANCH   9  11
ENDBRANCH   3   5
BRANCH   1  17
ATOM     17  C   UNL     1      -2.024  -0.145   1.279  0.00  0.00    +0.016 C 
BRANCH  17  18
ATOM     18  N   UNL     1      -1.375  -0.515   0.014  0.00  0.00    +0.389 N 
ATOM     19  H   UNL     1      -1.884  -0.108  -0.756  0.00  0.00    -0.084 HD
ATOM     20  H   UNL     1      -1.368  -1.520  -0.080  0.00  0.00    -0.084 HD
BRANCH  18  22
ATOM     21  C   UNL     1      -0.007   1.516   0.024  0.00  0.00    -0.009 C 
ATOM     22  C   UNL     1       0.006  -0.013   0.007  0.00  0.00    -0.043 C 
BRANCH  22  23
ATOM     23  C   UNL     1       0.710  -0.496  -1.235  0.00  0.00    -0.062 A 
ATOM     24  C   UNL     1       0.040  -0.518  -2.444  0.00  0.00    +0.002 A 
ATOM     25  C   UNL     1       0.686  -0.961  -3.583  0.00  0.00    +0.004 A 
ATOM     26  C   UNL     1       2.001  -1.382  -3.514  0.00  0.00    -0.045 A 
ATOM     27  C   UNL     1       2.670  -1.360  -2.304  0.00  0.00    +0.004 A 
ATOM     28  C   UNL     1       2.026  -0.913  -1.166  0.00  0.00    +0.002 A 
BRANCH  26  29
ATOM     29  C   UNL     1       2.704  -1.866  -4.755  0.00  0.00    +0.013 C 
ATOM     30  C   UNL     1       3.925  -0.985  -5.026  0.00  0.00    +0.012 C 
ATOM     31  C   UNL     1       3.154  -3.315  -4.555  0.00  0.00    +0.012 C 
ENDBRANCH  26  29
ENDBRANCH  22  23
ENDBRANCH  18  22
ENDBRANCH  17  18
ENDBRANCH   1  17
TORSDOF 8
