REMARK  Name = ZINC37283718
REMARK  2 active torsions:
REMARK  status: ('A' for Active; 'I' for Inactive)
REMARK    1  A    between atoms: C_3  and  N_8
REMARK    2  A    between atoms: N_8  and  C_9
REMARK                            x       y       z     vdW  Elec       q    Type
REMARK                         _______ _______ _______ _____ _____    ______ ____
ROOT
ATOM      1  C   UNL     1       3.657   3.461  -0.015  0.00  0.00    +0.104 C 
ATOM      2  C   UNL     1       4.989   3.923   0.576  0.00  0.00    +0.030 C 
ATOM      3  C   UNL     1       4.876   5.337   1.125  0.00  0.00    +0.043 C 
ATOM      4  C   UNL     1       4.671   6.387   0.053  0.00  0.00    +0.229 C 
ATOM      5  O   UNL     1       3.410   6.206  -0.602  0.00  0.00    -0.492 OA
ATOM      6  C   UNL     1       3.411   5.338  -1.649  0.00  0.00    +0.126 A 
ATOM      7  C   UNL     1       3.545   3.981  -1.436  0.00  0.00    +0.014 A 
ATOM      8  C   UNL     1       3.575   3.103  -2.499  0.00  0.00    +0.010 A 
ATOM      9  C   UNL     1       3.450   3.585  -3.790  0.00  0.00    +0.016 A 
ATOM     10  C   UNL     1       3.294   4.942  -4.010  0.00  0.00    +0.021 A 
ATOM     11  C   UNL     1       3.280   5.822  -2.945  0.00  0.00    +0.061 A 
ATOM     12 BR   UNL     1       3.109   5.596  -5.774  0.00  0.00    -0.050 Br
ENDROOT
BRANCH   1  13
ATOM     13  N   UNL     1       3.604   1.997  -0.022  0.00  0.00    -0.335 N 
ATOM     14  H   UNL     1       4.426   1.482  -0.033  0.00  0.00    +0.147 HD
BRANCH  13  17
ATOM     15  C   UNL     1      -0.017   1.377   0.010  0.00  0.00    +0.022 A 
ATOM     16  C   UNL     1       1.183   2.071   0.002  0.00  0.00    +0.027 A 
ATOM     17  C   UNL     1       2.369   1.343  -0.013  0.00  0.00    +0.065 A 
ATOM     18  C   UNL     1       2.306  -0.047  -0.020  0.00  0.00    +0.150 A 
ATOM     19  N   UNL     1       1.143  -0.667  -0.012  0.00  0.00    -0.242 NA
ATOM     20  C   UNL     1       0.002  -0.004   0.002  0.00  0.00    +0.112 A 
ATOM     21 CL   UNL     1       3.774  -0.973  -0.040  0.00  0.00    -0.060 Cl
ENDBRANCH  13  17
ENDBRANCH   1  13
TORSDOF 2
