REMARK  Name = ZINC09115278
REMARK  9 active torsions:
REMARK  status: ('A' for Active; 'I' for Inactive)
REMARK    1  A    between atoms: C_1  and  C_2
REMARK    2  A    between atoms: C_8  and  C_9
REMARK    3  A    between atoms: C_8  and  N_60
REMARK    4  A    between atoms: C_9  and  C_10
REMARK    5  A    between atoms: C_10  and  N_11
REMARK    6  A    between atoms: C_12  and  C_14
REMARK    7  A    between atoms: C_17  and  N_20
REMARK    8  A    between atoms: C_21  and  C_23
REMARK    9  A    between atoms: C_24  and  C_29
REMARK                            x       y       z     vdW  Elec       q    Type
REMARK                         _______ _______ _______ _____ _____    ______ ____
ROOT
ATOM      1  C   UNL     1       5.660   7.897   0.593  0.00  0.00    +0.037 A 
ATOM      2  C   UNL     1       4.467   8.481   0.158  0.00  0.00    +0.015 A 
ATOM      3  C   UNL     1       4.396   9.842  -0.029  0.00  0.00    +0.024 A 
ATOM      4  C   UNL     1       5.514  10.637   0.205  0.00  0.00    +0.034 A 
ATOM      5  C   UNL     1       6.705  10.059   0.633  0.00  0.00    +0.024 A 
ATOM      6  C   UNL     1       6.781   8.698   0.827  0.00  0.00    +0.015 A 
ENDROOT
BRANCH   1   8
ATOM      7  N   UNL     1       4.655   5.667   0.574  0.00  0.00    -0.311 N 
ATOM      8  C   UNL     1       5.737   6.438   0.800  0.00  0.00    +0.244 C 
ATOM      9  O   UNL     1       6.777   5.931   1.174  0.00  0.00    -0.270 OA
ATOM     10  H   UNL     1       3.825   6.071   0.275  0.00  0.00    +0.149 HD
BRANCH   7  11
ATOM     11  C   UNL     1       4.732   4.219   0.779  0.00  0.00    +0.102 C 
BRANCH  11  12
ATOM     12  C   UNL     1       3.377   3.585   0.455  0.00  0.00    +0.000 C 
BRANCH  12  13
ATOM     13  C   UNL     1       3.457   2.072   0.669  0.00  0.00    -0.077 C 
BRANCH  13  20
ATOM     14  C   UNL     1       2.862  -0.503   1.633  0.00  0.00    -0.013 C 
ATOM     15  C   UNL     1       2.256  -0.001   0.321  0.00  0.00    -0.072 C 
ATOM     16  C   UNL     1       0.862  -0.604   0.139  0.00  0.00    -0.016 C 
ATOM     17  C   UNL     1       0.252  -0.082  -1.165  0.00  0.00    -0.003 C 
ATOM     18  C   UNL     1       0.204   1.448  -1.121  0.00  0.00    -0.019 C 
ATOM     19  C   UNL     1       1.618   1.991  -0.903  0.00  0.00    -0.078 C 
ATOM     20  N   UNL     1       2.139   1.472   0.380  0.00  0.00    +0.381 N 
ATOM     21  H   UNL     1       1.486   1.724   1.131  0.00  0.00    -0.081 HD
ENDBRANCH  13  20
ENDBRANCH  12  13
ENDBRANCH  11  12
ENDBRANCH   7  11
ENDBRANCH   1   8
BRANCH   4  22
ATOM     22  N   UNL     1       5.441  12.015   0.010  0.00  0.00    -0.281 N 
ATOM     23  C   UNL     1       4.290  12.670   0.257  0.00  0.00    +0.258 C 
ATOM     24  O   UNL     1       3.343  12.077   0.740  0.00  0.00    -0.269 OA
ATOM     25  H   UNL     1       6.219  12.502  -0.304  0.00  0.00    +0.155 HD
BRANCH  23  26
ATOM     26  C   UNL     1       4.178  14.097  -0.055  0.00  0.00    +0.107 C 
ATOM     27  C   UNL     1       3.076  14.770   0.295  0.00  0.00    +0.113 C 
ATOM     28  O   UNL     1       2.837  16.061   0.052  0.00  0.00    -0.494 OA
ATOM     29  C   UNL     1       3.890  16.983  -0.203  0.00  0.00    +0.239 C 
ATOM     30  C   UNL     1       4.716  16.486  -1.401  0.00  0.00    +0.115 C 
ATOM     31  S   UNL     1       5.495  14.918  -0.899  0.00  0.00    -0.114 S 
ATOM     32  C   UNL     1       2.011  14.004   1.036  0.00  0.00    +0.087 C 
ENDBRANCH  23  26
ENDBRANCH   4  22
TORSDOF 7
