REMARK  Name = ZINC04244413
REMARK  12 active torsions:
REMARK  status: ('A' for Active; 'I' for Inactive)
REMARK    1  A    between atoms: C_1  and  C_2
REMARK    2  A    between atoms: C_5  and  S_9
REMARK    3  A    between atoms: C_6  and  N_8
REMARK    4  A    between atoms: S_9  and  N_12
REMARK    5  A    between atoms: N_12  and  C_13
REMARK    6  A    between atoms: C_15  and  N_21
REMARK    7  A    between atoms: C_17  and  C_20
REMARK    8  A    between atoms: C_18  and  C_19
REMARK    9  A    between atoms: N_21  and  S_22
REMARK   10  A    between atoms: S_22  and  C_25
REMARK   11  A    between atoms: C_27  and  N_32
REMARK   12  A    between atoms: C_30  and  C_31
REMARK                            x       y       z     vdW  Elec       q    Type
REMARK                         _______ _______ _______ _____ _____    ______ ____
ROOT
ATOM      1  C   UNL     1       2.054  -3.461   2.782  0.00  0.00    +0.053 A 
ATOM      2  C   UNL     1       2.589  -2.180   2.802  0.00  0.00    +0.049 A 
ATOM      3  C   UNL     1       1.774  -1.087   2.545  0.00  0.00    +0.050 A 
ATOM      4  C   UNL     1       0.424  -1.277   2.275  0.00  0.00    +0.028 A 
ATOM      5  C   UNL     1      -0.104  -2.553   2.250  0.00  0.00    -0.044 A 
ATOM      6  C   UNL     1       0.704  -3.644   2.506  0.00  0.00    -0.025 A 
ATOM      7  C   UNL     1       0.122  -5.034   2.484  0.00  0.00    +0.046 C 
ATOM      8  C   UNL     1      -1.567  -2.756   1.951  0.00  0.00    +0.044 C 
ENDROOT
BRANCH   1   9
ATOM      9  N   UNL     1       2.870  -4.564   3.040  0.00  0.00    -0.216 N 
ATOM     10  H   UNL     1       2.676  -5.419   2.626  0.00  0.00    +0.174 HD
BRANCH   9  11
ATOM     11  S   UNL     1       4.171  -4.412   4.054  0.00  0.00    +0.074 S 
ATOM     12  O   UNL     1       3.717  -3.692   5.192  0.00  0.00    -0.150 OA
ATOM     13  O   UNL     1       4.761  -5.701   4.153  0.00  0.00    -0.150 OA
BRANCH  11  18
ATOM     14  C   UNL     1       8.202  -0.875   1.278  0.00  0.00    +0.044 C 
ATOM     15  C   UNL     1       7.196  -1.760   1.967  0.00  0.00    -0.049 A 
ATOM     16  C   UNL     1       6.607  -1.347   3.148  0.00  0.00    +0.005 A 
ATOM     17  C   UNL     1       5.684  -2.156   3.784  0.00  0.00    +0.031 A 
ATOM     18  C   UNL     1       5.347  -3.381   3.242  0.00  0.00    +0.129 A 
ATOM     19  C   UNL     1       5.940  -3.801   2.058  0.00  0.00    +0.052 A 
ATOM     20  C   UNL     1       6.864  -2.983   1.419  0.00  0.00    +0.028 A 
BRANCH  19  21
ATOM     21  N   UNL     1       5.606  -5.042   1.510  0.00  0.00    -0.356 N 
ATOM     22  H   UNL     1       4.900  -5.574   1.908  0.00  0.00    +0.142 HD
ATOM     23  H   UNL     1       6.080  -5.371   0.730  0.00  0.00    +0.142 HD
ENDBRANCH  19  21
ENDBRANCH  11  18
ENDBRANCH   9  11
ENDBRANCH   1   9
BRANCH   3  24
ATOM     24  N   UNL     1       2.308   0.203   2.564  0.00  0.00    -0.216 N 
ATOM     25  H   UNL     1       2.905   0.470   3.280  0.00  0.00    +0.174 HD
BRANCH  24  26
ATOM     26  S   UNL     1       1.923   1.277   1.364  0.00  0.00    +0.073 S 
ATOM     27  O   UNL     1       2.683   2.452   1.610  0.00  0.00    -0.150 OA
ATOM     28  O   UNL     1       0.505   1.292   1.273  0.00  0.00    -0.150 OA
BRANCH  26  29
ATOM     29  C   UNL     1       2.517   0.601  -0.151  0.00  0.00    +0.113 A 
ATOM     30  C   UNL     1       1.627   0.261  -1.151  0.00  0.00    +0.051 A 
ATOM     31  C   UNL     1       2.096  -0.273  -2.344  0.00  0.00    +0.026 A 
ATOM     32  C   UNL     1       3.460  -0.463  -2.528  0.00  0.00    +0.023 A 
ATOM     33  C   UNL     1       4.345  -0.116  -1.526  0.00  0.00    +0.007 A 
ATOM     34  C   UNL     1       3.874   0.410  -0.337  0.00  0.00    -0.024 A 
ATOM     35  C   UNL     1       4.842   0.782   0.757  0.00  0.00    +0.046 C 
BRANCH  31  36
ATOM     36  N   UNL     1       1.199  -0.617  -3.358  0.00  0.00    -0.358 N 
ATOM     37  H   UNL     1       0.247  -0.484  -3.229  0.00  0.00    +0.142 HD
ATOM     38  H   UNL     1       1.528  -0.990  -4.191  0.00  0.00    +0.142 HD
ENDBRANCH  31  36
ENDBRANCH  26  29
ENDBRANCH  24  26
ENDBRANCH   3  24
TORSDOF 8
