REMARK  Name = ZINC67295274
REMARK  6 active torsions:
REMARK  status: ('A' for Active; 'I' for Inactive)
REMARK    1  A    between atoms: C_1  and  C_2
REMARK    2  A    between atoms: C_2  and  O_3
REMARK    3  A    between atoms: O_3  and  C_4
REMARK    4  A    between atoms: C_4  and  C_6
REMARK    5  A    between atoms: C_10  and  N_12
REMARK    6  A    between atoms: C_14  and  C_24
REMARK                            x       y       z     vdW  Elec       q    Type
REMARK                         _______ _______ _______ _____ _____    ______ ____
ROOT
ATOM      1  N   UNL     1       2.303  -5.591  -3.996  0.00  0.00    -0.325 N 
ATOM      2  C   UNL     1       2.046  -6.122  -5.172  0.00  0.00    +0.212 A 
ATOM      3  C   UNL     1       2.256  -7.563  -5.418  0.00  0.00    +0.098 A 
ATOM      4  C   UNL     1       1.478  -8.156  -6.405  0.00  0.00    +0.030 A 
ATOM      5  C   UNL     1       0.520  -7.302  -7.110  0.00  0.00    +0.019 A 
ATOM      6  C   UNL     1      -0.477  -7.860  -7.918  0.00  0.00    +0.026 A 
ATOM      7  C   UNL     1      -1.368  -7.035  -8.569  0.00  0.00    +0.019 A 
ATOM      8  C   UNL     1      -1.280  -5.656  -8.426  0.00  0.00    +0.019 A 
ATOM      9  C   UNL     1      -0.301  -5.092  -7.633  0.00  0.00    +0.048 A 
ATOM     10  C   UNL     1       0.608  -5.904  -6.971  0.00  0.00    +0.137 A 
ATOM     11  O   UNL     1       1.573  -5.364  -6.194  0.00  0.00    -0.439 OA
ATOM     12 BR   UNL     1      -2.717  -7.783  -9.662  0.00  0.00    -0.050 Br
ATOM     13  H   UNL     1       2.556  -6.160  -3.252  0.00  0.00    +0.169 HD
ENDROOT
BRANCH   3  14
ATOM     14  C   UNL     1       3.247  -8.337  -4.653  0.00  0.00    +0.255 C 
ATOM     15  O   UNL     1       3.852  -7.813  -3.737  0.00  0.00    -0.270 OA
ATOM     16  N   UNL     1       3.485  -9.625  -4.967  0.00  0.00    -0.261 N 
ATOM     17  C   UNL     1       4.339 -10.386  -4.179  0.00  0.00    +0.165 A 
ATOM     18  N   UNL     1       4.993 -10.024  -3.097  0.00  0.00    -0.233 NA
ATOM     19  C   UNL     1       5.773 -10.873  -2.454  0.00  0.00    +0.120 A 
ATOM     20  C   UNL     1       5.866 -12.128  -2.960  0.00  0.00    +0.068 A 
ATOM     21  S   UNL     1       4.782 -11.998  -4.373  0.00  0.00    -0.061 S 
ATOM     22  H   UNL     1       3.060 -10.022  -5.744  0.00  0.00    +0.157 HD
ENDBRANCH   3  14
BRANCH   1  27
ATOM     23  C   UNL     1       1.483  -2.337  -2.531  0.00  0.00    +0.061 A 
ATOM     24  C   UNL     1       2.039  -1.484  -3.488  0.00  0.00    +0.015 A 
ATOM     25  C   UNL     1       2.673  -2.005  -4.598  0.00  0.00    +0.003 A 
ATOM     26  C   UNL     1       2.764  -3.371  -4.772  0.00  0.00    +0.026 A 
ATOM     27  C   UNL     1       2.213  -4.237  -3.823  0.00  0.00    +0.043 A 
ATOM     28  C   UNL     1       1.575  -3.718  -2.696  0.00  0.00    +0.040 A 
BRANCH  23  29
ATOM     29  C   UNL     1       0.805  -1.777  -1.344  0.00  0.00    +0.339 C 
ATOM     30  O   UNL     1       0.327  -2.520  -0.511  0.00  0.00    -0.245 OA
BRANCH  29  31
ATOM     31  O   UNL     1       0.717  -0.442  -1.186  0.00  0.00    -0.461 OA
BRANCH  31  33
ATOM     32  C   UNL     1       0.047   1.560  -0.009  0.00  0.00    +0.048 C 
ATOM     33  C   UNL     1       0.047   0.030  -0.015  0.00  0.00    +0.229 C 
ENDBRANCH  31  33
ENDBRANCH  29  31
ENDBRANCH  23  29
ENDBRANCH   1  27
TORSDOF 5
