REMARK  Name = ZINC20616540
REMARK  2 active torsions:
REMARK  status: ('A' for Active; 'I' for Inactive)
REMARK    1  A    between atoms: C_6  and  N_7
REMARK    2  A    between atoms: C_9  and  C_19
REMARK                            x       y       z     vdW  Elec       q    Type
REMARK                         _______ _______ _______ _____ _____    ______ ____
ROOT
ATOM      1  N   UNL     1       1.248  -2.050  -0.021  0.00  0.00    -0.325 N 
ATOM      2  C   UNL     1       2.394  -2.686  -0.134  0.00  0.00    +0.212 A 
ATOM      3  C   UNL     1       2.440  -4.158  -0.248  0.00  0.00    +0.098 A 
ATOM      4  C   UNL     1       3.531  -4.705  -0.915  0.00  0.00    +0.030 A 
ATOM      5  C   UNL     1       4.538  -3.776  -1.434  0.00  0.00    +0.019 A 
ATOM      6  C   UNL     1       5.518  -4.212  -2.335  0.00  0.00    +0.026 A 
ATOM      7  C   UNL     1       6.449  -3.317  -2.813  0.00  0.00    +0.019 A 
ATOM      8  C   UNL     1       6.420  -1.989  -2.407  0.00  0.00    +0.019 A 
ATOM      9  C   UNL     1       5.462  -1.546  -1.517  0.00  0.00    +0.048 A 
ATOM     10  C   UNL     1       4.515  -2.430  -1.022  0.00  0.00    +0.137 A 
ATOM     11  O   UNL     1       3.571  -2.010  -0.144  0.00  0.00    -0.439 OA
ATOM     12 BR   UNL     1       7.774  -3.898  -4.030  0.00  0.00    -0.050 Br
ATOM     13  H   UNL     1       0.311  -2.619   0.074  0.00  0.00    +0.169 HD
ENDROOT
BRANCH   3  14
ATOM     14  C   UNL     1       1.376  -5.005   0.315  0.00  0.00    +0.255 C 
ATOM     15  O   UNL     1       0.432  -4.496   0.889  0.00  0.00    -0.270 OA
ATOM     16  N   UNL     1       1.447  -6.346   0.194  0.00  0.00    -0.261 N 
ATOM     17  C   UNL     1       0.443  -7.145   0.724  0.00  0.00    +0.165 A 
ATOM     18  N   UNL     1      -0.644  -6.785   1.379  0.00  0.00    -0.233 NA
ATOM     19  C   UNL     1      -1.506  -7.682   1.816  0.00  0.00    +0.120 A 
ATOM     20  C   UNL     1      -1.247  -8.993   1.588  0.00  0.00    +0.068 A 
ATOM     21  S   UNL     1       0.301  -8.876   0.703  0.00  0.00    -0.061 S 
ATOM     22  H   UNL     1       2.300  -6.806  -0.326  0.00  0.00    +0.157 HD
ENDBRANCH   3  14
BRANCH   1  28
ATOM     23  C   UNL     1       1.188   0.019  -1.227  0.00  0.00    +0.027 A 
ATOM     24  C   UNL     1       1.161   1.398  -1.220  0.00  0.00    +0.022 A 
ATOM     25  C   UNL     1       1.168   2.087  -0.018  0.00  0.00    +0.041 A 
ATOM     26  C   UNL     1       1.203   1.397   1.182  0.00  0.00    +0.022 A 
ATOM     27  C   UNL     1       1.230   0.018   1.188  0.00  0.00    +0.027 A 
ATOM     28  C   UNL     1       1.222  -0.683  -0.020  0.00  0.00    +0.042 A 
ATOM     29 CL   UNL     1       1.135   3.822  -0.018  0.00  0.00    -0.084 Cl
ENDBRANCH   1  28
TORSDOF 2
