REMARK  Name = ZINC21974926
REMARK  4 active torsions:
REMARK  status: ('A' for Active; 'I' for Inactive)
REMARK    1  A    between atoms: C_6  and  S_11
REMARK    2  A    between atoms: S_11  and  N_14
REMARK    3  A    between atoms: C_21  and  S_23
REMARK    4  A    between atoms: S_23  and  N_26
REMARK                            x       y       z     vdW  Elec       q    Type
REMARK                         _______ _______ _______ _____ _____    ______ ____
ROOT
ATOM      1  N   UNL     1       1.018   8.199  -1.549  0.00  0.00    -0.202 N 
ATOM      2  C   UNL     1      -0.194   8.435  -2.338  0.00  0.00    +0.136 C 
ATOM      3  C   UNL     1       0.307   8.876  -3.724  0.00  0.00    +0.058 C 
ATOM      4  C   UNL     1       1.815   8.855  -3.607  0.00  0.00    -0.021 A 
ATOM      5  C   UNL     1       2.151   8.461  -2.321  0.00  0.00    +0.055 A 
ATOM      6  C   UNL     1       3.500   8.359  -1.975  0.00  0.00    +0.027 A 
ATOM      7  C   UNL     1       4.479   8.661  -2.898  0.00  0.00    +0.030 A 
ATOM      8  C   UNL     1       4.133   9.059  -4.176  0.00  0.00    +0.105 A 
ATOM      9  C   UNL     1       2.799   9.156  -4.528  0.00  0.00    +0.034 A 
ENDROOT
BRANCH   1  10
ATOM     10  S   UNL     1       1.040   7.702   0.030  0.00  0.00    +0.075 S 
ATOM     11  O   UNL     1      -0.205   8.088   0.595  0.00  0.00    -0.150 OA
ATOM     12  O   UNL     1       2.285   8.123   0.571  0.00  0.00    -0.150 OA
BRANCH  10  18
ATOM     13  C   UNL     1      -0.013   1.076   0.008  0.00  0.00    +0.001 A 
ATOM     14  C   UNL     1      -1.235   1.746   0.017  0.00  0.00    +0.001 A 
ATOM     15  C   UNL     1      -1.288   3.106   0.031  0.00  0.00    +0.008 A 
ATOM     16  C   UNL     1      -0.096   3.849   0.023  0.00  0.00    -0.016 A 
ATOM     17  C   UNL     1      -0.111   5.254   0.030  0.00  0.00    +0.037 A 
ATOM     18  C   UNL     1       1.064   5.940   0.022  0.00  0.00    +0.109 A 
ATOM     19  C   UNL     1       2.286   5.270   0.007  0.00  0.00    +0.029 A 
ATOM     20  C   UNL     1       2.340   3.910  -0.000  0.00  0.00    +0.010 A 
ATOM     21  C   UNL     1       1.147   3.167   0.008  0.00  0.00    -0.018 A 
ATOM     22  C   UNL     1       1.163   1.762   0.000  0.00  0.00    +0.008 A 
ENDBRANCH  10  18
ENDBRANCH   1  10
BRANCH   8  23
ATOM     23  S   UNL     1       5.387   9.443  -5.352  0.00  0.00    +0.056 S 
ATOM     24  O   UNL     1       6.556   8.748  -4.940  0.00  0.00    -0.153 OA
ATOM     25  O   UNL     1       4.807   9.263  -6.637  0.00  0.00    -0.153 OA
BRANCH  23  26
ATOM     26  N   UNL     1       5.719  11.058  -5.205  0.00  0.00    -0.204 NA
ATOM     27  H   UNL     1       6.501  11.339  -5.926  0.00  0.00    +0.144 HD
ATOM     28  H   UNL     1       6.070  11.268  -4.183  0.00  0.00    +0.144 HD
ENDBRANCH  23  26
ENDBRANCH   8  23
TORSDOF 4
