REMARK  Name = ZINC38547724
REMARK  8 active torsions:
REMARK  status: ('A' for Active; 'I' for Inactive)
REMARK    1  A    between atoms: C_1  and  C_2
REMARK    2  A    between atoms: N_8  and  C_9
REMARK    3  A    between atoms: C_9  and  C_11
REMARK    4  A    between atoms: C_9  and  C_16
REMARK    5  A    between atoms: C_17  and  C_30
REMARK    6  A    between atoms: C_18  and  C_29
REMARK    7  A    between atoms: C_20  and  N_21
REMARK    8  A    between atoms: C_22  and  C_24
REMARK                            x       y       z     vdW  Elec       q    Type
REMARK                         _______ _______ _______ _____ _____    ______ ____
ROOT
ATOM      1  C   UNL     1       0.048  -2.142   3.611  0.00  0.00    +0.141 C 
ENDROOT
BRANCH   1   9
ATOM      2  C   UNL     1      -0.018   1.503   0.010  0.00  0.00    +0.044 C 
ATOM      3  C   UNL     1       0.002  -0.004   0.002  0.00  0.00    -0.046 A 
ATOM      4  C   UNL     1       0.006  -0.708  -1.196  0.00  0.00    +0.021 A 
ATOM      5  C   UNL     1       0.025  -2.087  -1.169  0.00  0.00    +0.084 A 
ATOM      6  N   UNL     1       0.040  -2.742  -0.023  0.00  0.00    -0.350 N 
ATOM      7  C   UNL     1       0.036  -2.108   1.139  0.00  0.00    +0.097 A 
ATOM      8  C   UNL     1       0.023  -0.717   1.187  0.00  0.00    +0.045 A 
ATOM      9  N   UNL     1       0.052  -2.838   2.322  0.00  0.00    -0.319 N 
ATOM     10  H   UNL     1       0.065  -3.807   2.294  0.00  0.00    +0.148 HD
ATOM     11  H   UNL     1       0.054  -3.712  -0.033  0.00  0.00    +0.166 HD
ENDBRANCH   1   9
BRANCH   1  12
ATOM     12  C   UNL     1       0.665  -3.029   4.662  0.00  0.00    +0.009 A 
ATOM     13  C   UNL     1       1.583  -2.520   5.562  0.00  0.00    -0.033 A 
ATOM     14  C   UNL     1       2.119  -3.344   6.494  0.00  0.00    -0.008 A 
ATOM     15  S   UNL     1       1.324  -4.898   6.119  0.00  0.00    -0.078 S 
ATOM     16  C   UNL     1       0.325  -4.346   4.746  0.00  0.00    +0.078 A 
ATOM     17  C   UNL     1       3.126  -3.030   7.571  0.00  0.00    +0.052 C 
ATOM     18  C   UNL     1       1.982  -1.068   5.507  0.00  0.00    +0.045 C 
BRANCH  16  19
ATOM     19  N   UNL     1      -0.570  -5.075   3.961  0.00  0.00    -0.273 N 
ATOM     20  C   UNL     1      -0.770  -6.385   4.206  0.00  0.00    +0.284 C 
ATOM     21  O   UNL     1      -0.171  -6.933   5.113  0.00  0.00    -0.266 OA
ATOM     22  H   UNL     1      -1.048  -4.638   3.238  0.00  0.00    +0.156 HD
BRANCH  20  23
ATOM     23  C   UNL     1      -1.711  -7.150   3.382  0.00  0.00    +0.189 A 
ATOM     24  C   UNL     1      -2.010  -8.475   3.525  0.00  0.00    +0.054 A 
ATOM     25  C   UNL     1      -2.951  -8.786   2.531  0.00  0.00    +0.042 A 
ATOM     26  C   UNL     1      -3.182  -7.652   1.833  0.00  0.00    +0.196 A 
ATOM     27  O   UNL     1      -2.437  -6.667   2.352  0.00  0.00    -0.458 OA
ENDBRANCH  20  23
ENDBRANCH  16  19
ENDBRANCH   1  12
BRANCH   1  28
ATOM     28  C   UNL     1      -1.371  -1.815   4.001  0.00  0.00    +0.014 A 
ATOM     29  C   UNL     1      -1.860  -0.689   4.576  0.00  0.00    +0.013 A 
ATOM     30  C   UNL     1      -3.213  -0.607   4.846  0.00  0.00    +0.008 A 
ATOM     31  C   UNL     1      -4.011  -1.656   4.529  0.00  0.00    +0.045 A 
ATOM     32  S   UNL     1      -2.844  -2.806   3.818  0.00  0.00    -0.099 S 
ENDBRANCH   1  28
TORSDOF 5
