REMARK  Name = ZINC35309460
REMARK  5 active torsions:
REMARK  status: ('A' for Active; 'I' for Inactive)
REMARK    1  A    between atoms: C_1  and  C_2
REMARK    2  A    between atoms: C_5  and  S_8
REMARK    3  A    between atoms: S_8  and  C_11
REMARK    4  A    between atoms: C_11  and  C_12
REMARK    5  A    between atoms: C_17  and  N_22
REMARK                            x       y       z     vdW  Elec       q    Type
REMARK                         _______ _______ _______ _____ _____    ______ ____
ROOT
ATOM      1  C   UNL     1       1.961  -6.474  -0.044  0.00  0.00    +0.130 A 
ATOM      2  N   UNL     1       2.034  -7.258   1.067  0.00  0.00    -0.340 N 
ATOM      3  H   UNL     1       2.006  -6.954   1.988  0.00  0.00    +0.167 HD
ATOM      4  C   UNL     1       2.156  -8.565   0.641  0.00  0.00    +0.068 A 
ATOM      5  C   UNL     1       2.270  -9.786   1.291  0.00  0.00    +0.050 A 
ATOM      6  C   UNL     1       2.379 -10.950   0.549  0.00  0.00    +0.027 A 
ATOM      7  C   UNL     1       2.374 -10.898  -0.844  0.00  0.00    +0.025 A 
ATOM      8  C   UNL     1       2.262  -9.703  -1.495  0.00  0.00    +0.031 A 
ATOM      9  C   UNL     1       2.151  -8.517  -0.763  0.00  0.00    +0.089 A 
ATOM     10  N   UNL     1       2.024  -7.210  -1.114  0.00  0.00    -0.231 NA
ENDROOT
BRANCH   6  11
ATOM     11  N   UNL     1       2.495 -12.182   1.199  0.00  0.00    -0.358 N 
ATOM     12  H   UNL     1       2.499 -12.220   2.168  0.00  0.00    +0.142 HD
ATOM     13  H   UNL     1       2.571 -12.998   0.681  0.00  0.00    +0.142 HD
ENDBRANCH   6  11
BRANCH   1  14
ATOM     14  C   UNL     1       1.822  -4.974  -0.035  0.00  0.00    +0.245 C 
BRANCH  14  15
ATOM     15  S   UNL     1       0.063  -4.530  -0.023  0.00  0.00    +0.004 S 
ATOM     16  O   UNL     1      -0.528  -4.907   1.213  0.00  0.00    -0.169 OA
ATOM     17  O   UNL     1      -0.542  -4.894  -1.256  0.00  0.00    -0.169 OA
BRANCH  15  22
ATOM     18  C   UNL     1      -0.018   1.503   0.010  0.00  0.00    +0.044 C 
ATOM     19  C   UNL     1       0.002  -0.004   0.002  0.00  0.00    -0.050 A 
ATOM     20  C   UNL     1       0.006  -0.689  -1.199  0.00  0.00    +0.005 A 
ATOM     21  C   UNL     1       0.025  -2.071  -1.206  0.00  0.00    +0.027 A 
ATOM     22  C   UNL     1       0.040  -2.768  -0.013  0.00  0.00    +0.089 A 
ATOM     23  C   UNL     1       0.037  -2.084   1.188  0.00  0.00    +0.027 A 
ATOM     24  C   UNL     1       0.023  -0.702   1.195  0.00  0.00    +0.005 A 
ENDBRANCH  15  22
ENDBRANCH  14  15
ENDBRANCH   1  14
TORSDOF 4
