REMARK  Name = ZINC12664921
REMARK  5 active torsions:
REMARK  status: ('A' for Active; 'I' for Inactive)
REMARK    1  A    between atoms: C_1  and  N_2
REMARK    2  A    between atoms: N_11  and  C_12
REMARK    3  A    between atoms: C_12  and  C_14
REMARK    4  A    between atoms: N_19  and  S_21
REMARK    5  A    between atoms: S_21  and  C_24
REMARK                            x       y       z     vdW  Elec       q    Type
REMARK                         _______ _______ _______ _____ _____    ______ ____
ROOT
ATOM      1  C   UNL     1      -2.305   2.034   0.025  0.00  0.00    +0.243 C 
ATOM      2  O   UNL     1      -2.465   0.828   0.020  0.00  0.00    -0.273 OA
ENDROOT
BRANCH   1  13
ATOM      3  C   UNL     1       1.695   3.471   0.004  0.00  0.00    +0.151 C 
ATOM      4  N   UNL     1       1.296   2.062   0.001  0.00  0.00    -0.324 N 
ATOM      5  C   UNL     1       2.262   1.070  -0.014  0.00  0.00    +0.061 A 
ATOM      6  C   UNL     1       3.658   1.217  -0.027  0.00  0.00    +0.076 A 
ATOM      7  C   UNL     1       4.487   0.115  -0.041  0.00  0.00    +0.168 A 
ATOM      8  C   UNL     1       3.956  -1.175  -0.043  0.00  0.00    +0.167 A 
ATOM      9  C   UNL     1       2.581  -1.344  -0.030  0.00  0.00    +0.066 A 
ATOM     10  C   UNL     1       1.761  -0.240  -0.016  0.00  0.00    +0.043 A 
ATOM     11  S   UNL     1       0.002  -0.004   0.002  0.00  0.00    -0.052 S 
ATOM     12  C   UNL     1      -0.021   1.730   0.012  0.00  0.00    +0.166 A 
ATOM     13  N   UNL     1      -1.077   2.541   0.021  0.00  0.00    -0.156 NA
ATOM     14  O   UNL     1       4.981  -2.074  -0.059  0.00  0.00    -0.453 OA
ATOM     15  C   UNL     1       6.139  -1.328  -0.479  0.00  0.00    +0.466 C 
ATOM     16  O   UNL     1       5.852   0.017  -0.055  0.00  0.00    -0.453 OA
ENDBRANCH   1  13
BRANCH   1  17
ATOM     17  C   UNL     1      -3.500   2.952   0.036  0.00  0.00    +0.093 C 
ATOM     18  C   UNL     1      -3.460   3.828   1.290  0.00  0.00    +0.015 C 
ATOM     19  C   UNL     1      -4.655   4.784   1.286  0.00  0.00    +0.018 C 
ATOM     20  C   UNL     1      -5.953   3.971   1.305  0.00  0.00    +0.109 C 
ATOM     21  N   UNL     1      -5.935   3.023   0.183  0.00  0.00    -0.176 NA
ATOM     22  C   UNL     1      -4.785   2.119   0.040  0.00  0.00    +0.122 C 
BRANCH  21  23
ATOM     23  S   UNL     1      -7.185   2.975  -0.902  0.00  0.00    +0.061 S 
ATOM     24  O   UNL     1      -7.173   1.676  -1.478  0.00  0.00    -0.153 OA
ATOM     25  O   UNL     1      -8.323   3.501  -0.233  0.00  0.00    -0.153 OA
BRANCH  23  26
ATOM     26  C   UNL     1      -6.795   4.104  -2.197  0.00  0.00    +0.106 A 
ATOM     27  C   UNL     1      -7.201   5.423  -2.108  0.00  0.00    +0.031 A 
ATOM     28  C   UNL     1      -6.891   6.311  -3.120  0.00  0.00    +0.040 A 
ATOM     29  C   UNL     1      -6.184   5.877  -4.229  0.00  0.00    +0.124 A 
ATOM     30  C   UNL     1      -5.784   4.555  -4.319  0.00  0.00    +0.040 A 
ATOM     31  C   UNL     1      -6.090   3.670  -3.303  0.00  0.00    +0.031 A 
ATOM     32  F   UNL     1      -5.886   6.743  -5.223  0.00  0.00    -0.205 F 
ENDBRANCH  23  26
ENDBRANCH  21  23
ENDBRANCH   1  17
TORSDOF 4
