REMARK  Name = ZINC00753424
REMARK  4 active torsions:
REMARK  status: ('A' for Active; 'I' for Inactive)
REMARK    1  A    between atoms: C_4  and  C_7
REMARK    2  A    between atoms: C_10  and  C_13
REMARK    3  A    between atoms: C_15  and  C_31
REMARK    4  A    between atoms: C_16  and  N_30
REMARK                            x       y       z     vdW  Elec       q    Type
REMARK                         _______ _______ _______ _____ _____    ______ ____
ROOT
ATOM      1  C   UNL     1       7.434  -2.768  -0.085  0.00  0.00    +0.102 C 
ATOM      2  C   UNL     1       7.537  -3.635   1.138  0.00  0.00    +0.098 C 
ATOM      3  C   UNL     1       7.329  -4.973   1.057  0.00  0.00    +0.199 C 
ATOM      4  O   UNL     1       7.025  -5.561  -0.112  0.00  0.00    -0.437 OA
ATOM      5  C   UNL     1       7.314  -4.943  -1.279  0.00  0.00    +0.185 C 
ATOM      6  C   UNL     1       7.519  -3.614  -1.330  0.00  0.00    +0.058 C 
ATOM      7  C   UNL     1       7.830  -2.958  -2.607  0.00  0.00    +0.194 C 
ATOM      8  O   UNL     1       8.016  -1.756  -2.639  0.00  0.00    -0.287 OA
ATOM      9  C   UNL     1       7.919  -3.750  -3.851  0.00  0.00    +0.033 A 
ATOM     10  C   UNL     1       8.209  -3.141  -5.066  0.00  0.00    +0.012 A 
ATOM     11  C   UNL     1       8.286  -3.907  -6.219  0.00  0.00    +0.001 A 
ATOM     12  C   UNL     1       8.076  -5.271  -6.170  0.00  0.00    +0.001 A 
ATOM     13  C   UNL     1       7.786  -5.893  -4.966  0.00  0.00    +0.012 A 
ATOM     14  C   UNL     1       7.705  -5.139  -3.801  0.00  0.00    +0.036 A 
ATOM     15  C   UNL     1       7.400  -5.768  -2.511  0.00  0.00    +0.229 C 
ATOM     16  O   UNL     1       7.216  -6.967  -2.454  0.00  0.00    -0.283 OA
ENDROOT
BRANCH   1  20
ATOM     17  C   UNL     1       3.699  -0.689  -0.037  0.00  0.00    -0.018 A 
ATOM     18  C   UNL     1       4.896   0.024  -0.040  0.00  0.00    +0.009 A 
ATOM     19  C   UNL     1       6.099  -0.652  -0.055  0.00  0.00    +0.005 A 
ATOM     20  C   UNL     1       6.118  -2.035  -0.068  0.00  0.00    -0.035 A 
ATOM     21  C   UNL     1       4.932  -2.748  -0.066  0.00  0.00    +0.005 A 
ATOM     22  C   UNL     1       3.724  -2.082  -0.045  0.00  0.00    +0.009 A 
BRANCH  17  26
ATOM     23  C   UNL     1      -0.017   1.379   0.010  0.00  0.00    +0.000 A 
ATOM     24  C   UNL     1       1.169   2.092   0.002  0.00  0.00    +0.001 A 
ATOM     25  C   UNL     1       2.377   1.426  -0.013  0.00  0.00    +0.008 A 
ATOM     26  C   UNL     1       2.402   0.033  -0.021  0.00  0.00    -0.018 A 
ATOM     27  C   UNL     1       1.205  -0.680  -0.013  0.00  0.00    +0.008 A 
ATOM     28  C   UNL     1       0.002  -0.004   0.002  0.00  0.00    +0.001 A 
ENDBRANCH  17  26
ENDBRANCH   1  20
BRANCH   3  29
ATOM     29  N   UNL     1       7.432  -5.740   2.191  0.00  0.00    -0.328 N 
ATOM     30  H   UNL     1       7.651  -5.325   3.039  0.00  0.00    +0.145 HD
ATOM     31  H   UNL     1       7.285  -6.698   2.143  0.00  0.00    +0.145 HD
ENDBRANCH   3  29
BRANCH   2  32
ATOM     32  C   UNL     1       7.858  -3.043   2.402  0.00  0.00    +0.101 C 
ATOM     33  N   UNL     1       8.112  -2.573   3.405  0.00  0.00    -0.191 NA
ENDBRANCH   2  32
TORSDOF 4
