REMARK  Name = ZINC44136619
REMARK  12 active torsions:
REMARK  status: ('A' for Active; 'I' for Inactive)
REMARK    1  A    between atoms: C_1  and  C_2
REMARK    2  A    between atoms: C_2  and  C_3
REMARK    3  A    between atoms: C_8  and  C_11
REMARK    4  A    between atoms: N_13  and  C_14
REMARK    5  A    between atoms: C_14  and  C_16
REMARK    6  A    between atoms: C_14  and  C_32
REMARK    7  A    between atoms: C_18  and  O_31
REMARK    8  A    between atoms: C_20  and  O_30
REMARK    9  A    between atoms: C_22  and  O_29
REMARK   10  A    between atoms: C_24  and  S_27
REMARK   11  A    between atoms: S_27  and  C_28
REMARK   12  A    between atoms: C_32  and  C_34
REMARK                            x       y       z     vdW  Elec       q    Type
REMARK                         _______ _______ _______ _____ _____    ______ ____
ROOT
ATOM      1  C   UNL     1       0.230  -6.110   3.130  0.00  0.00    +0.122 C 
ENDROOT
BRANCH   1   2
ATOM      2  C   UNL     1      -1.237  -6.545   3.152  0.00  0.00    +0.172 C 
ATOM      3  C   UNL     1      -1.937  -6.047   1.885  0.00  0.00    +0.176 C 
ATOM      4  C   UNL     1      -3.388  -6.538   1.887  0.00  0.00    +0.177 C 
ATOM      5  C   UNL     1      -3.399  -8.066   1.995  0.00  0.00    +0.184 C 
ATOM      6  C   UNL     1      -2.643  -8.485   3.258  0.00  0.00    +0.207 C 
ATOM      7  O   UNL     1      -1.310  -7.971   3.207  0.00  0.00    -0.356 OA
BRANCH   6   8
ATOM      8  S   UNL     1      -2.589 -10.296   3.357  0.00  0.00    -0.131 S 
ATOM      9  C   UNL     1      -1.948 -10.625   5.022  0.00  0.00    +0.087 C 
ENDBRANCH   6   8
BRANCH   5  10
ATOM     10  O   UNL     1      -4.748  -8.530   2.068  0.00  0.00    -0.386 OA
ATOM     11  H   UNL     1      -4.831  -9.491   2.139  0.00  0.00    +0.210 HD
ENDBRANCH   5  10
BRANCH   4  12
ATOM     12  O   UNL     1      -4.083  -5.973   3.001  0.00  0.00    -0.386 OA
ATOM     13  H   UNL     1      -5.009  -6.242   3.063  0.00  0.00    +0.210 HD
ENDBRANCH   4  12
BRANCH   3  14
ATOM     14  O   UNL     1      -1.915  -4.619   1.857  0.00  0.00    -0.387 OA
ATOM     15  H   UNL     1      -2.342  -4.234   1.079  0.00  0.00    +0.210 HD
ENDBRANCH   3  14
ENDBRANCH   1   2
BRANCH   1  18
ATOM     16  C   UNL     1       1.393  -4.048   2.552  0.00  0.00    +0.199 C 
ATOM     17  O   UNL     1       2.311  -4.719   2.130  0.00  0.00    -0.278 OA
ATOM     18  N   UNL     1       0.304  -4.648   3.073  0.00  0.00    -0.310 N 
ATOM     19  H   UNL     1      -0.430  -4.111   3.411  0.00  0.00    +0.149 HD
BRANCH  16  24
ATOM     20  C   UNL     1       0.742  -0.511   1.242  0.00  0.00    -0.014 C 
ATOM     21  C   UNL     1       2.212  -0.090   1.168  0.00  0.00    -0.016 C 
ATOM     22  C   UNL     1       2.963  -0.667   2.370  0.00  0.00    -0.081 C 
ATOM     23  N   UNL     1       2.871  -2.132   2.352  0.00  0.00    +0.387 N 
ATOM     24  C   UNL     1       1.470  -2.544   2.494  0.00  0.00    +0.016 C 
ATOM     25  C   UNL     1       0.660  -2.039   1.298  0.00  0.00    -0.003 C 
ATOM     26  H   UNL     1       3.236  -2.480   1.478  0.00  0.00    -0.085 HD
ATOM     27  H   UNL     1       3.412  -2.511   3.114  0.00  0.00    -0.085 HD
BRANCH  20  29
ATOM     28  C   UNL     1      -0.019   1.526   0.010  0.00  0.00    +0.004 C 
ATOM     29  C   UNL     1       0.002  -0.004   0.002  0.00  0.00    -0.000 C 
ENDBRANCH  20  29
ENDBRANCH  16  24
ENDBRANCH   1  18
BRANCH   1  30
ATOM     30  C   UNL     1       0.929  -6.607   4.396  0.00  0.00    +0.100 C 
ATOM     31  C   UNL     1       2.360  -6.068   4.434  0.00  0.00    +0.026 C 
ATOM     32 CL   UNL     1       0.029  -6.028   5.847  0.00  0.00    -0.120 Cl
ENDBRANCH   1  30
TORSDOF 9
