REMARK  Name = ZINC60244422
REMARK  4 active torsions:
REMARK  status: ('A' for Active; 'I' for Inactive)
REMARK    1  A    between atoms: C_1  and  C_2
REMARK    2  A    between atoms: C_11  and  S_13
REMARK    3  A    between atoms: S_13  and  N_16
REMARK    4  A    between atoms: C_20  and  C_22
REMARK                            x       y       z     vdW  Elec       q    Type
REMARK                         _______ _______ _______ _____ _____    ______ ____
ROOT
ATOM      1  S   UNL     1      -3.156  -5.529   0.036  0.00  0.00    +0.062 S 
ATOM      2  O   UNL     1      -4.527  -5.825  -0.189  0.00  0.00    -0.153 OA
ATOM      3  O   UNL     1      -2.165  -5.695  -0.969  0.00  0.00    -0.153 OA
ENDROOT
BRANCH   1  14
ATOM      4  C   UNL     1      -2.438   2.454   2.301  0.00  0.00    +0.109 C 
ATOM      5  C   UNL     1      -2.156   1.073   1.768  0.00  0.00    +0.217 C 
ATOM      6  O   UNL     1      -1.065   0.812   1.306  0.00  0.00    -0.276 OA
ATOM      7  N   UNL     1      -3.117   0.128   1.804  0.00  0.00    -0.271 N 
ATOM      8  C   UNL     1      -4.470   0.325   2.329  0.00  0.00    +0.118 C 
ATOM      9  C   UNL     1      -5.174  -1.030   2.150  0.00  0.00    +0.056 C 
ATOM     10  C   UNL     1      -4.129  -1.921   1.515  0.00  0.00    -0.023 A 
ATOM     11  C   UNL     1      -2.969  -1.183   1.339  0.00  0.00    +0.040 A 
ATOM     12  C   UNL     1      -1.857  -1.797   0.760  0.00  0.00    +0.026 A 
ATOM     13  C   UNL     1      -1.918  -3.117   0.366  0.00  0.00    +0.030 A 
ATOM     14  C   UNL     1      -3.082  -3.842   0.542  0.00  0.00    +0.106 A 
ATOM     15  C   UNL     1      -4.184  -3.244   1.123  0.00  0.00    +0.034 A 
ENDBRANCH   1  14
BRANCH   1  16
ATOM     16  N   UNL     1      -2.678  -6.449   1.328  0.00  0.00    -0.154 NA
ATOM     17  C   UNL     1      -1.260  -6.810   1.544  0.00  0.00    +0.179 C 
ATOM     18  S   UNL     1      -1.253  -7.166   3.357  0.00  0.00    -0.141 S 
ATOM     19  C   UNL     1      -2.999  -7.766   3.457  0.00  0.00    +0.100 C 
ATOM     20  C   UNL     1      -3.630  -6.938   2.311  0.00  0.00    +0.176 C 
BRANCH  20  21
ATOM     21  C   UNL     1      -4.645  -7.800   1.606  0.00  0.00    +0.235 C 
ATOM     22  O   UNL     1      -4.368  -8.319   0.545  0.00  0.00    -0.274 OA
ATOM     23  N   UNL     1      -5.861  -7.995   2.154  0.00  0.00    -0.299 N 
ATOM     24  C   UNL     1      -6.799  -8.923   1.521  0.00  0.00    +0.118 C 
ATOM     25  C   UNL     1      -7.039 -10.120   2.449  0.00  0.00    +0.088 C 
ATOM     26  S   UNL     1      -7.652  -9.503   4.046  0.00  0.00    -0.158 S 
ATOM     27  C   UNL     1      -6.398  -8.277   4.525  0.00  0.00    +0.088 C 
ATOM     28  C   UNL     1      -6.224  -7.281   3.379  0.00  0.00    +0.118 C 
ENDBRANCH  20  21
ENDBRANCH   1  16
TORSDOF 3
