REMARK  Name = ZINC01645710
REMARK  8 active torsions:
REMARK  status: ('A' for Active; 'I' for Inactive)
REMARK    1  A    between atoms: C_4  and  C_7
REMARK    2  A    between atoms: C_7  and  C_8
REMARK    3  A    between atoms: C_8  and  C_9
REMARK    4  A    between atoms: C_11  and  C_13
REMARK    5  A    between atoms: C_11  and  C_23
REMARK    6  A    between atoms: C_13  and  N_14
REMARK    7  A    between atoms: C_16  and  N_22
REMARK    8  A    between atoms: C_23  and  O_24
REMARK                            x       y       z     vdW  Elec       q    Type
REMARK                         _______ _______ _______ _____ _____    ______ ____
ROOT
ATOM      1  C   UNL     1      -4.272  -0.073   1.448  0.00  0.00    -0.009 C 
ATOM      2  C   UNL     1      -5.524   0.819   1.410  0.00  0.00    +0.014 C 
ATOM      3  C   UNL     1      -6.151  -0.152   2.424  0.00  0.00    +0.010 C 
ATOM      4  C   UNL     1      -4.717  -0.504   2.856  0.00  0.00    +0.014 C 
ENDROOT
BRANCH   1   5
ATOM      5  C   UNL     1      -2.959   0.711   1.433  0.00  0.00    +0.008 C 
BRANCH   5   6
ATOM      6  C   UNL     1      -2.542   0.982  -0.014  0.00  0.00    +0.035 C 
BRANCH   6  10
ATOM      7  C   UNL     1       1.124   3.174  -0.060  0.00  0.00    +0.000 A 
ATOM      8  C   UNL     1       1.145   1.791  -0.068  0.00  0.00    +0.000 A 
ATOM      9  C   UNL     1      -0.041   1.082  -0.050  0.00  0.00    +0.003 A 
ATOM     10  C   UNL     1      -1.249   1.755  -0.028  0.00  0.00    -0.047 A 
ATOM     11  C   UNL     1      -1.269   3.137  -0.014  0.00  0.00    +0.003 A 
ATOM     12  C   UNL     1      -0.083   3.846  -0.033  0.00  0.00    +0.000 A 
ENDBRANCH   6  10
ENDBRANCH   5   6
ENDBRANCH   1   5
BRANCH   3  13
ATOM     13  C   UNL     1      -6.899  -1.319   1.775  0.00  0.00    +0.112 C 
BRANCH  13  14
ATOM     14  N   UNL     1      -7.094  -2.384   2.763  0.00  0.00    -0.327 N 
ATOM     15  C   UNL     1      -7.660  -3.591   2.379  0.00  0.00    +0.145 A 
ATOM     16  C   UNL     1      -7.851  -4.617   3.315  0.00  0.00    +0.083 A 
ATOM     17  C   UNL     1      -8.421  -5.804   2.883  0.00  0.00    +0.140 A 
ATOM     18  N   UNL     1      -8.764  -5.931   1.608  0.00  0.00    -0.221 NA
ATOM     19  C   UNL     1      -8.570  -4.944   0.749  0.00  0.00    +0.214 A 
ATOM     20  N   UNL     1      -8.034  -3.791   1.120  0.00  0.00    -0.198 NA
ATOM     21  N   UNL     1      -8.944  -5.119  -0.575  0.00  0.00    -0.327 N 
ATOM     22  H   UNL     1      -6.827  -2.244   3.685  0.00  0.00    +0.148 HD
ATOM     23  H   UNL     1      -9.341  -5.957  -0.860  0.00  0.00    +0.145 HD
ATOM     24  H   UNL     1      -8.807  -4.404  -1.216  0.00  0.00    +0.145 HD
BRANCH  16  25
ATOM     25  N   UNL     1      -7.476  -4.446   4.657  0.00  0.00    -0.354 N 
ATOM     26  H   UNL     1      -7.078  -3.609   4.946  0.00  0.00    +0.142 HD
ATOM     27  H   UNL     1      -7.614  -5.163   5.294  0.00  0.00    +0.142 HD
ENDBRANCH  16  25
ENDBRANCH  13  14
ENDBRANCH   3  13
BRANCH   3  28
ATOM     28  C   UNL     1      -6.966   0.543   3.516  0.00  0.00    +0.164 C 
BRANCH  28  29
ATOM     29  O   UNL     1      -8.233   0.937   2.985  0.00  0.00    -0.394 OA
ATOM     30  H   UNL     1      -8.805   1.385   3.624  0.00  0.00    +0.209 HD
ENDBRANCH  28  29
ENDBRANCH   3  28
TORSDOF 8
