REMARK  Name = ZINC38847414
REMARK  11 active torsions:
REMARK  status: ('A' for Active; 'I' for Inactive)
REMARK    1  A    between atoms: C_1  and  C_2
REMARK    2  A    between atoms: C_2  and  N_3
REMARK    3  A    between atoms: N_3  and  C_4
REMARK    4  A    between atoms: N_3  and  C_6
REMARK    5  A    between atoms: C_4  and  C_5
REMARK    6  A    between atoms: C_6  and  C_7
REMARK    7  A    between atoms: C_7  and  N_8
REMARK    8  A    between atoms: C_19  and  C_21
REMARK    9  A    between atoms: N_24  and  S_27
REMARK   10  A    between atoms: S_27  and  C_30
REMARK   11  A    between atoms: C_33  and  C_36
REMARK                            x       y       z     vdW  Elec       q    Type
REMARK                         _______ _______ _______ _____ _____    ______ ____
ROOT
ATOM      1  N   UNL     1      -3.593  -3.688   0.289  0.00  0.00    -0.252 N 
ATOM      2  C   UNL     1      -4.007  -4.140   1.532  0.00  0.00    +0.168 A 
ATOM      3  N   UNL     1      -4.357  -3.441   2.587  0.00  0.00    -0.221 NA
ATOM      4  C   UNL     1      -4.743  -4.020   3.745  0.00  0.00    +0.115 A 
ATOM      5  C   UNL     1      -5.142  -3.388   4.948  0.00  0.00    +0.150 A 
ATOM      6  C   UNL     1      -5.507  -4.131   6.042  0.00  0.00    +0.040 A 
ATOM      7  C   UNL     1      -5.498  -5.518   6.011  0.00  0.00    +0.004 A 
ATOM      8  C   UNL     1      -5.114  -6.168   4.853  0.00  0.00    +0.017 A 
ATOM      9  C   UNL     1      -4.747  -5.433   3.752  0.00  0.00    +0.044 A 
ATOM     10  S   UNL     1      -4.207  -5.821   2.105  0.00  0.00    -0.052 S 
ATOM     11  F   UNL     1      -5.163  -2.039   5.018  0.00  0.00    -0.203 F 
ATOM     12  C   UNL     1      -3.147  -4.565  -0.632  0.00  0.00    +0.224 C 
ATOM     13  O   UNL     1      -2.691  -4.163  -1.681  0.00  0.00    -0.275 OA
ENDROOT
BRANCH  12  14
ATOM     14  C   UNL     1      -3.214  -6.045  -0.358  0.00  0.00    +0.078 C 
ATOM     15  C   UNL     1      -2.113  -6.431   0.633  0.00  0.00    +0.030 C 
ATOM     16  C   UNL     1      -2.206  -7.929   0.936  0.00  0.00    +0.110 C 
ATOM     17  N   UNL     1      -2.164  -8.672  -0.331  0.00  0.00    -0.177 NA
ATOM     18  C   UNL     1      -3.121  -8.319  -1.389  0.00  0.00    +0.110 C 
ATOM     19  C   UNL     1      -3.018  -6.816  -1.665  0.00  0.00    +0.030 C 
BRANCH  17  20
ATOM     20  S   UNL     1      -1.058  -9.882  -0.563  0.00  0.00    +0.061 S 
ATOM     21  O   UNL     1      -0.879 -10.005  -1.968  0.00  0.00    -0.153 OA
ATOM     22  O   UNL     1       0.022  -9.621   0.322  0.00  0.00    -0.153 OA
BRANCH  20  23
ATOM     23  C   UNL     1      -1.806 -11.382  -0.018  0.00  0.00    +0.105 A 
ATOM     24  C   UNL     1      -1.670 -11.783   1.298  0.00  0.00    +0.029 A 
ATOM     25  C   UNL     1      -2.256 -12.959   1.726  0.00  0.00    +0.005 A 
ATOM     26  C   UNL     1      -2.979 -13.735   0.838  0.00  0.00    -0.050 A 
ATOM     27  C   UNL     1      -3.115 -13.333  -0.478  0.00  0.00    +0.005 A 
ATOM     28  C   UNL     1      -2.532 -12.155  -0.905  0.00  0.00    +0.029 A 
ATOM     29  C   UNL     1      -3.617 -15.018   1.304  0.00  0.00    +0.044 C 
ENDBRANCH  20  23
ENDBRANCH  17  20
ENDBRANCH  12  14
BRANCH   1  30
ATOM     30  C   UNL     1      -3.640  -2.258  -0.024  0.00  0.00    +0.097 C 
BRANCH  30  31
ATOM     31  C   UNL     1      -2.314  -1.605   0.371  0.00  0.00    -0.059 C 
BRANCH  31  32
ATOM     32  N   UNL     1      -2.312  -0.201  -0.062  0.00  0.00    +0.380 N 
ATOM     33  H   UNL     1      -2.505  -0.154  -1.051  0.00  0.00    -0.082 HD
BRANCH  32  35
ATOM     34  C   UNL     1      -3.426   1.970   0.137  0.00  0.00    -0.017 C 
ATOM     35  C   UNL     1      -3.343   0.540   0.675  0.00  0.00    -0.082 C 
ENDBRANCH  32  35
BRANCH  32  36
ATOM     36  C   UNL     1      -0.995   0.392   0.208  0.00  0.00    -0.082 C 
ATOM     37  C   UNL     1       0.060  -0.286  -0.668  0.00  0.00    -0.017 C 
ENDBRANCH  32  36
ENDBRANCH  31  32
ENDBRANCH  30  31
ENDBRANCH   1  30
TORSDOF 8
