REMARK  Name = ZINC36637425
REMARK  10 active torsions:
REMARK  status: ('A' for Active; 'I' for Inactive)
REMARK    1  A    between atoms: C_1  and  N_2
REMARK    2  A    between atoms: N_2  and  C_3
REMARK    3  A    between atoms: N_2  and  C_4
REMARK    4  A    between atoms: C_4  and  C_5
REMARK    5  A    between atoms: C_5  and  N_6
REMARK    6  A    between atoms: C_10  and  O_16
REMARK    7  A    between atoms: O_16  and  C_17
REMARK    8  A    between atoms: C_18  and  C_20
REMARK    9  A    between atoms: C_23  and  S_26
REMARK   10  A    between atoms: S_26  and  N_29
REMARK                            x       y       z     vdW  Elec       q    Type
REMARK                         _______ _______ _______ _____ _____    ______ ____
ROOT
ATOM      1  N   UNL     1      -2.658  -2.902   0.018  0.00  0.00    -0.248 N 
ATOM      2  C   UNL     1      -3.260  -3.046  -1.221  0.00  0.00    +0.168 A 
ATOM      3  N   UNL     1      -4.535  -3.163  -1.509  0.00  0.00    -0.221 NA
ATOM      4  C   UNL     1      -4.984  -3.297  -2.776  0.00  0.00    +0.122 A 
ATOM      5  C   UNL     1      -6.324  -3.432  -3.221  0.00  0.00    +0.146 A 
ATOM      6  C   UNL     1      -6.608  -3.561  -4.559  0.00  0.00    +0.048 A 
ATOM      7  C   UNL     1      -5.603  -3.564  -5.516  0.00  0.00    +0.005 A 
ATOM      8  C   UNL     1      -4.286  -3.435  -5.116  0.00  0.00    +0.017 A 
ATOM      9  C   UNL     1      -3.991  -3.305  -3.780  0.00  0.00    +0.044 A 
ATOM     10  S   UNL     1      -2.498  -3.111  -2.837  0.00  0.00    -0.052 S 
ATOM     11  C   UNL     1      -3.413  -2.874   1.134  0.00  0.00    +0.252 C 
ATOM     12  O   UNL     1      -4.615  -3.035   1.059  0.00  0.00    -0.270 OA
ENDROOT
BRANCH  11  13
ATOM     13  C   UNL     1      -2.778  -2.647   2.450  0.00  0.00    +0.037 A 
ATOM     14  C   UNL     1      -1.553  -1.984   2.532  0.00  0.00    +0.015 A 
ATOM     15  C   UNL     1      -0.966  -1.775   3.763  0.00  0.00    +0.029 A 
ATOM     16  C   UNL     1      -1.590  -2.222   4.915  0.00  0.00    +0.106 A 
ATOM     17  C   UNL     1      -2.805  -2.881   4.840  0.00  0.00    +0.029 A 
ATOM     18  C   UNL     1      -3.405  -3.091   3.616  0.00  0.00    +0.015 A 
BRANCH  16  19
ATOM     19  S   UNL     1      -0.833  -1.953   6.483  0.00  0.00    +0.061 S 
ATOM     20  O   UNL     1      -1.349  -2.945   7.359  0.00  0.00    -0.153 OA
ATOM     21  O   UNL     1       0.559  -1.799   6.241  0.00  0.00    -0.153 OA
BRANCH  19  22
ATOM     22  N   UNL     1      -1.380  -0.494   7.046  0.00  0.00    -0.177 NA
ATOM     23  C   UNL     1      -0.640   0.701   6.707  0.00  0.00    +0.109 C 
ATOM     24  C   UNL     1       0.448   0.959   7.779  0.00  0.00    +0.017 C 
ATOM     25  C   UNL     1      -0.170   1.401   9.038  0.00  0.00    +0.001 C 
ATOM     26  C   UNL     1      -1.095   0.371   9.680  0.00  0.00    +0.001 C 
ATOM     27  C   UNL     1      -2.471   0.488   9.072  0.00  0.00    +0.017 C 
ATOM     28  C   UNL     1      -2.605  -0.468   7.868  0.00  0.00    +0.109 C 
ENDBRANCH  19  22
ENDBRANCH  16  19
ENDBRANCH  11  13
BRANCH   5  29
ATOM     29  O   UNL     1      -7.337  -3.434  -2.314  0.00  0.00    -0.493 OA
ATOM     30  C   UNL     1      -8.664  -3.573  -2.824  0.00  0.00    +0.277 C 
ENDBRANCH   5  29
BRANCH   1  31
ATOM     31  C   UNL     1      -1.201  -2.780   0.115  0.00  0.00    +0.097 C 
BRANCH  31  32
ATOM     32  C   UNL     1      -0.772  -1.394  -0.370  0.00  0.00    -0.060 C 
BRANCH  32  34
ATOM     33  C   UNL     1       1.107  -0.038  -0.992  0.00  0.00    -0.097 C 
ATOM     34  N   UNL     1       0.695  -1.321  -0.406  0.00  0.00    +0.377 N 
ATOM     35  C   UNL     1       1.225  -1.428   0.960  0.00  0.00    -0.097 C 
ATOM     36  H   UNL     1       1.056  -2.078  -0.968  0.00  0.00    -0.083 HD
ENDBRANCH  32  34
ENDBRANCH  31  32
ENDBRANCH   1  31
TORSDOF 7
