REMARK  Name = ZINC33058962
REMARK  10 active torsions:
REMARK  status: ('A' for Active; 'I' for Inactive)
REMARK    1  A    between atoms: C_1  and  C_2
REMARK    2  A    between atoms: C_4  and  C_36
REMARK    3  A    between atoms: C_5  and  C_9
REMARK    4  A    between atoms: C_6  and  C_8
REMARK    5  A    between atoms: C_10  and  C_11
REMARK    6  A    between atoms: C_12  and  S_17
REMARK    7  A    between atoms: C_13  and  C_16
REMARK    8  A    between atoms: S_17  and  N_20
REMARK    9  A    between atoms: C_23  and  C_26
REMARK   10  A    between atoms: N_28  and  C_29
REMARK                            x       y       z     vdW  Elec       q    Type
REMARK                         _______ _______ _______ _____ _____    ______ ____
ROOT
ATOM      1  S   UNL     1       3.579   5.313   1.798  0.00  0.00    +0.066 S 
ATOM      2  O   UNL     1       4.697   4.796   2.506  0.00  0.00    -0.153 OA
ATOM      3  O   UNL     1       3.663   6.478   0.987  0.00  0.00    -0.153 OA
ENDROOT
BRANCH   1   5
ATOM      4  C   UNL     1       1.274   6.506   2.913  0.00  0.00    +0.187 A 
ATOM      5  C   UNL     1       2.323   5.623   2.995  0.00  0.00    +0.174 A 
ATOM      6  C   UNL     1       2.165   5.027   4.261  0.00  0.00    +0.107 A 
ATOM      7  N   UNL     1       1.103   5.561   4.795  0.00  0.00    -0.081 NA
ATOM      8  O   UNL     1       0.592   6.380   4.068  0.00  0.00    -0.353 OA
ATOM      9  C   UNL     1       3.051   3.976   4.878  0.00  0.00    +0.071 C 
BRANCH   4  11
ATOM     10  C   UNL     1      -0.112   8.213   1.866  0.00  0.00    +0.012 C 
ATOM     11  C   UNL     1       0.959   7.400   1.796  0.00  0.00    +0.051 C 
BRANCH  10  16
ATOM     12  C   UNL     1      -1.348  11.724  -2.517  0.00  0.00    +0.044 C 
ATOM     13  C   UNL     1      -1.024  10.804  -1.368  0.00  0.00    -0.050 A 
ATOM     14  C   UNL     1      -2.011   9.994  -0.836  0.00  0.00    +0.007 A 
ATOM     15  C   UNL     1      -1.723   9.149   0.215  0.00  0.00    -0.043 A 
ATOM     16  C   UNL     1      -0.428   9.113   0.743  0.00  0.00    -0.019 A 
ATOM     17  C   UNL     1       0.562   9.938   0.203  0.00  0.00    -0.043 A 
ATOM     18  C   UNL     1       0.260  10.773  -0.851  0.00  0.00    +0.007 A 
ATOM     19  C   UNL     1       1.959   9.910   0.769  0.00  0.00    +0.044 C 
ATOM     20  C   UNL     1      -2.800   8.268   0.794  0.00  0.00    +0.044 C 
ENDBRANCH  10  16
ENDBRANCH   4  11
ENDBRANCH   1   5
BRANCH   1  21
ATOM     21  N   UNL     1       3.032   4.094   0.819  0.00  0.00    -0.176 NA
ATOM     22  C   UNL     1       2.261   4.396  -0.394  0.00  0.00    +0.110 C 
ATOM     23  C   UNL     1       0.949   3.606  -0.354  0.00  0.00    +0.030 C 
ATOM     24  C   UNL     1       1.260   2.119  -0.161  0.00  0.00    +0.078 C 
ATOM     25  C   UNL     1       1.987   1.917   1.171  0.00  0.00    +0.030 C 
ATOM     26  C   UNL     1       3.310   2.689   1.148  0.00  0.00    +0.110 C 
BRANCH  24  27
ATOM     27  C   UNL     1      -0.026   1.334  -0.155  0.00  0.00    +0.220 C 
ATOM     28  O   UNL     1      -1.086   1.906  -0.297  0.00  0.00    -0.275 OA
ATOM     29  N   UNL     1       0.002  -0.004   0.002  0.00  0.00    -0.285 N 
ATOM     30  H   UNL     1       0.966  -0.533   0.041  0.00  0.00    +0.155 HD
BRANCH  29  31
ATOM     31  C   UNL     1      -1.194  -0.721   0.115  0.00  0.00    +0.035 A 
ATOM     32  C   UNL     1      -1.284  -2.011  -0.392  0.00  0.00    +0.023 A 
ATOM     33  C   UNL     1      -2.466  -2.716  -0.279  0.00  0.00    +0.003 A 
ATOM     34  C   UNL     1      -3.561  -2.139   0.338  0.00  0.00    +0.020 A 
ATOM     35  C   UNL     1      -3.475  -0.854   0.845  0.00  0.00    +0.043 A 
ATOM     36  C   UNL     1      -2.293  -0.146   0.740  0.00  0.00    +0.043 A 
ATOM     37 CL   UNL     1      -4.852  -0.134   1.619  0.00  0.00    -0.083 Cl
ENDBRANCH  29  31
ENDBRANCH  24  27
ENDBRANCH   1  21
TORSDOF 6
