REMARK  Name = ZINC30979649
REMARK  8 active torsions:
REMARK  status: ('A' for Active; 'I' for Inactive)
REMARK    1  A    between atoms: C_1  and  C_2
REMARK    2  A    between atoms: C_5  and  C_8
REMARK    3  A    between atoms: C_8  and  C_10
REMARK    4  A    between atoms: C_8  and  N_11
REMARK    5  A    between atoms: C_12  and  C_14
REMARK    6  A    between atoms: N_17  and  C_20
REMARK    7  A    between atoms: C_20  and  C_21
REMARK    8  A    between atoms: C_23  and  C_26
REMARK                            x       y       z     vdW  Elec       q    Type
REMARK                         _______ _______ _______ _____ _____    ______ ____
ROOT
ATOM      1  C   UNL     1       0.712  -1.094  -3.598  0.00  0.00    +0.071 C 
ATOM      2  C   UNL     1       1.845  -0.128  -3.954  0.00  0.00    -0.006 C 
ATOM      3  C   UNL     1       2.519  -0.594  -5.247  0.00  0.00    -0.077 C 
ATOM      4  N   UNL     1       1.527  -0.633  -6.330  0.00  0.00    +0.386 N 
ATOM      5  C   UNL     1       0.453  -1.589  -6.032  0.00  0.00    -0.077 C 
ATOM      6  C   UNL     1      -0.282  -1.153  -4.762  0.00  0.00    -0.006 C 
ATOM      7  H   UNL     1       1.075   0.367  -6.406  0.00  0.00    -0.081 HD
ENDROOT
BRANCH   1   9
ATOM      8  N   UNL     1       0.688  -0.476  -1.203  0.00  0.00    -0.309 N 
ATOM      9  C   UNL     1       0.006  -0.608  -2.358  0.00  0.00    +0.216 C 
ATOM     10  O   UNL     1      -1.175  -0.336  -2.400  0.00  0.00    -0.276 OA
ATOM     11  H   UNL     1       1.759  -0.724  -1.165  0.00  0.00    +0.149 HD
BRANCH   8  12
ATOM     12  C   UNL     1       0.002  -0.004   0.002  0.00  0.00    +0.100 C 
ATOM     13  C   UNL     1      -0.019   1.526   0.010  0.00  0.00    +0.033 C 
BRANCH  12  18
ATOM     14  C   UNL     1       2.797  -1.919   4.684  0.00  0.00    +0.044 C 
ATOM     15  C   UNL     1       2.068  -1.419   3.463  0.00  0.00    -0.050 A 
ATOM     16  C   UNL     1       0.686  -1.404   3.441  0.00  0.00    +0.004 A 
ATOM     17  C   UNL     1       0.017  -0.945   2.321  0.00  0.00    +0.006 A 
ATOM     18  C   UNL     1       0.731  -0.503   1.223  0.00  0.00    -0.027 A 
ATOM     19  C   UNL     1       2.113  -0.524   1.242  0.00  0.00    +0.006 A 
ATOM     20  C   UNL     1       2.782  -0.978   2.364  0.00  0.00    +0.004 A 
ENDBRANCH  12  18
ENDBRANCH   8  12
ENDBRANCH   1   9
BRANCH   4  21
ATOM     21  C   UNL     1       2.165  -0.941  -7.617  0.00  0.00    +0.022 C 
BRANCH  21  22
ATOM     22  C   UNL     1       3.084   0.188  -8.005  0.00  0.00    +0.211 A 
ATOM     23  N   UNL     1       4.353   0.298  -7.699  0.00  0.00    -0.193 NA
ATOM     24  C   UNL     1       4.761   1.461  -8.257  0.00  0.00    +0.202 A 
ATOM     25  N   UNL     1       3.726   1.982  -8.863  0.00  0.00    -0.056 NA
ATOM     26  O   UNL     1       2.760   1.261  -8.732  0.00  0.00    -0.340 OA
BRANCH  24  27
ATOM     27  C   UNL     1       6.127   2.037  -8.193  0.00  0.00    +0.023 A 
ATOM     28  C   UNL     1       7.136   1.369  -7.502  0.00  0.00    +0.013 A 
ATOM     29  C   UNL     1       8.406   1.906  -7.449  0.00  0.00    +0.016 A 
ATOM     30  C   UNL     1       8.676   3.112  -8.073  0.00  0.00    +0.018 A 
ATOM     31  C   UNL     1       7.676   3.782  -8.757  0.00  0.00    +0.016 A 
ATOM     32  C   UNL     1       6.404   3.250  -8.819  0.00  0.00    +0.013 A 
ATOM     33 BR   UNL     1      10.417   3.846  -7.992  0.00  0.00    -0.050 Br
ENDBRANCH  24  27
ENDBRANCH  21  22
ENDBRANCH   4  21
TORSDOF 6
