REMARK  Name = ZINC27491061
REMARK  9 active torsions:
REMARK  status: ('A' for Active; 'I' for Inactive)
REMARK    1  A    between atoms: C_1  and  C_2
REMARK    2  A    between atoms: C_4  and  C_19
REMARK    3  A    between atoms: C_5  and  S_15
REMARK    4  A    between atoms: C_6  and  C_14
REMARK    5  A    between atoms: C_7  and  N_8
REMARK    6  A    between atoms: N_8  and  C_9
REMARK    7  A    between atoms: N_8  and  S_10
REMARK    8  A    between atoms: S_10  and  C_13
REMARK    9  A    between atoms: S_15  and  N_18
REMARK                            x       y       z     vdW  Elec       q    Type
REMARK                         _______ _______ _______ _____ _____    ______ ____
ROOT
ATOM      1  C   UNL     1       1.139   4.009   1.350  0.00  0.00    +0.046 C 
ATOM      2  C   UNL     1       0.766   3.116   2.506  0.00  0.00    -0.027 A 
ATOM      3  C   UNL     1       1.025   3.518   3.802  0.00  0.00    +0.010 A 
ATOM      4  C   UNL     1       0.684   2.699   4.862  0.00  0.00    -0.024 A 
ATOM      5  C   UNL     1       0.083   1.475   4.629  0.00  0.00    +0.113 A 
ATOM      6  C   UNL     1      -0.184   1.070   3.337  0.00  0.00    -0.001 A 
ATOM      7  C   UNL     1       0.162   1.888   2.268  0.00  0.00    +0.058 A 
ATOM      8  C   UNL     1      -0.845  -0.261   3.084  0.00  0.00    +0.048 C 
ATOM      9  C   UNL     1       0.969   3.140   6.275  0.00  0.00    +0.046 C 
ENDROOT
BRANCH   5  10
ATOM     10  S   UNL     1      -0.349   0.435   5.984  0.00  0.00    +0.057 S 
ATOM     11  O   UNL     1      -0.651  -0.841   5.437  0.00  0.00    -0.153 OA
ATOM     12  O   UNL     1       0.652   0.622   6.975  0.00  0.00    -0.153 OA
BRANCH  10  13
ATOM     13  N   UNL     1      -1.760   1.022   6.622  0.00  0.00    -0.203 NA
ATOM     14  H   UNL     1      -2.066   0.397   7.474  0.00  0.00    +0.144 HD
ATOM     15  H   UNL     1      -2.547   1.002   5.853  0.00  0.00    +0.144 HD
ENDBRANCH  10  13
ENDBRANCH   5  10
BRANCH   7  16
ATOM     16  N   UNL     1      -0.101   1.479   0.959  0.00  0.00    -0.210 N 
ATOM     17  C   UNL     1      -1.290   1.975   0.262  0.00  0.00    +0.157 C 
BRANCH  16  18
ATOM     18  S   UNL     1       0.931   0.433   0.195  0.00  0.00    +0.042 S 
ATOM     19  O   UNL     1       1.498  -0.345   1.240  0.00  0.00    -0.155 OA
ATOM     20  O   UNL     1       0.144  -0.177  -0.818  0.00  0.00    -0.155 OA
ATOM     21  C   UNL     1       2.199   1.493  -0.553  0.00  0.00    +0.218 C 
ENDBRANCH  16  18
ENDBRANCH   7  16
TORSDOF 4
