REMARK  Name = ZINC13600823
REMARK  6 active torsions:
REMARK  status: ('A' for Active; 'I' for Inactive)
REMARK    1  A    between atoms: C_1  and  N_2
REMARK    2  A    between atoms: N_4  and  C_5
REMARK    3  A    between atoms: C_5  and  C_6
REMARK    4  A    between atoms: C_10  and  C_12
REMARK    5  A    between atoms: C_15  and  N_17
REMARK    6  A    between atoms: N_21  and  C_22
REMARK                            x       y       z     vdW  Elec       q    Type
REMARK                         _______ _______ _______ _____ _____    ______ ____
ROOT
ATOM      1  C   UNL     1       0.415  -4.232   0.013  0.00  0.00    +0.061 A 
ATOM      2  C   UNL     1       1.543  -4.812   0.562  0.00  0.00    +0.025 A 
ATOM      3  C   UNL     1       1.766  -6.171   0.385  0.00  0.00    +0.004 A 
ATOM      4  C   UNL     1       0.843  -6.902  -0.342  0.00  0.00    +0.030 A 
ATOM      5  C   UNL     1      -0.273  -6.253  -0.868  0.00  0.00    +0.090 A 
ATOM      6  N   UNL     1      -0.452  -4.952  -0.670  0.00  0.00    -0.248 NA
ENDROOT
BRANCH   5   7
ATOM      7  C   UNL     1      -1.270  -7.022  -1.649  0.00  0.00    +0.099 A 
ATOM      8  C   UNL     1      -2.366  -6.395  -2.174  0.00  0.00    +0.078 A 
ATOM      9  S   UNL     1      -3.181  -7.767  -2.981  0.00  0.00    -0.056 S 
ATOM     10  C   UNL     1      -1.990  -9.025  -2.541  0.00  0.00    +0.196 A 
ATOM     11  N   UNL     1      -1.105  -8.321  -1.848  0.00  0.00    -0.220 NA
BRANCH  10  12
ATOM     12  N   UNL     1      -1.989 -10.351  -2.841  0.00  0.00    -0.189 NA
ATOM     13  C   UNL     1      -1.069 -11.141  -2.328  0.00  0.00    +0.195 C 
ATOM     14  N   UNL     1      -0.045 -10.610  -1.588  0.00  0.00    -0.370 N 
ATOM     15  N   UNL     1      -1.135 -12.494  -2.535  0.00  0.00    -0.370 N 
ATOM     16  H   UNL     1      -0.042  -9.665  -1.372  0.00  0.00    +0.159 HD
ATOM     17  H   UNL     1       0.676 -11.181  -1.279  0.00  0.00    +0.159 HD
ATOM     18  H   UNL     1      -1.860 -12.870  -3.060  0.00  0.00    +0.159 HD
ATOM     19  H   UNL     1      -0.457 -13.076  -2.158  0.00  0.00    +0.159 HD
ENDBRANCH  10  12
ENDBRANCH   5   7
BRANCH   1  20
ATOM     20  C   UNL     1       0.170  -2.757   0.203  0.00  0.00    +0.171 C 
BRANCH  20  24
ATOM     21  C   UNL     1      -0.014   1.455  -0.027  0.00  0.00    +0.174 C 
ATOM     22  N   UNL     1       0.007  -0.010  -0.025  0.00  0.00    -0.255 NA
ATOM     23  C   UNL     1       0.569  -0.654  -1.008  0.00  0.00    +0.206 C 
ATOM     24  N   UNL     1       0.681  -2.023  -0.957  0.00  0.00    -0.350 N 
ATOM     25  N   UNL     1       1.051   0.037  -2.100  0.00  0.00    -0.263 N 
ATOM     26  H   UNL     1       1.100  -2.503  -1.688  0.00  0.00    +0.163 HD
ATOM     27  H   UNL     1       1.039   1.007  -2.104  0.00  0.00    +0.181 HD
BRANCH  25  28
ATOM     28  C   UNL     1       1.540  -0.639  -3.168  0.00  0.00    +0.184 C 
ATOM     29  N   UNL     1       1.951  -1.206  -4.063  0.00  0.00    -0.171 NA
ENDBRANCH  25  28
ENDBRANCH  20  24
ENDBRANCH   1  20
TORSDOF 5
