REMARK  Name = ZINC39498015
REMARK  11 active torsions:
REMARK  status: ('A' for Active; 'I' for Inactive)
REMARK    1  A    between atoms: C_1  and  C_2
REMARK    2  A    between atoms: C_2  and  O_3
REMARK    3  A    between atoms: O_3  and  C_4
REMARK    4  A    between atoms: C_5  and  C_26
REMARK    5  A    between atoms: C_8  and  S_17
REMARK    6  A    between atoms: C_9  and  C_10
REMARK    7  A    between atoms: C_10  and  C_11
REMARK    8  A    between atoms: S_17  and  C_20
REMARK    9  A    between atoms: C_26  and  C_28
REMARK   10  A    between atoms: C_26  and  N_31
REMARK   11  A    between atoms: C_28  and  C_29
REMARK                            x       y       z     vdW  Elec       q    Type
REMARK                         _______ _______ _______ _____ _____    ______ ____
ROOT
ATOM      1  C   UNL     1       0.713  -1.998   1.527  0.00  0.00    +0.131 A 
ATOM      2  C   UNL     1      -0.305  -2.452   2.353  0.00  0.00    +0.015 A 
ATOM      3  C   UNL     1      -0.410  -3.799   2.641  0.00  0.00    +0.011 A 
ATOM      4  C   UNL     1       0.499  -4.694   2.107  0.00  0.00    +0.028 A 
ATOM      5  C   UNL     1       1.514  -4.244   1.284  0.00  0.00    +0.101 A 
ATOM      6  C   UNL     1       1.620  -2.898   0.989  0.00  0.00    +0.024 A 
ENDROOT
BRANCH   5   7
ATOM      7  S   UNL     1       2.670  -5.388   0.606  0.00  0.00    +0.025 S 
ATOM      8  O   UNL     1       3.715  -4.616   0.030  0.00  0.00    -0.164 OA
ATOM      9  O   UNL     1       2.909  -6.366   1.608  0.00  0.00    -0.164 OA
BRANCH   7  10
ATOM     10  C   UNL     1       1.864  -6.216  -0.725  0.00  0.00    +0.094 A 
ATOM     11  C   UNL     1       1.073  -7.321  -0.473  0.00  0.00    +0.027 A 
ATOM     12  C   UNL     1       0.441  -7.971  -1.517  0.00  0.00    +0.002 A 
ATOM     13  C   UNL     1       0.600  -7.514  -2.812  0.00  0.00    +0.000 A 
ATOM     14  C   UNL     1       1.390  -6.409  -3.063  0.00  0.00    +0.002 A 
ATOM     15  C   UNL     1       2.019  -5.756  -2.019  0.00  0.00    +0.027 A 
ENDBRANCH   7  10
ENDBRANCH   5   7
BRANCH   1  16
ATOM     16  O   UNL     1       0.818  -0.673   1.242  0.00  0.00    -0.492 OA
BRANCH  16  18
ATOM     17  C   UNL     1       0.339   1.301  -0.067  0.00  0.00    +0.048 C 
ATOM     18  C   UNL     1       0.216  -0.221   0.028  0.00  0.00    +0.226 C 
ENDBRANCH  16  18
ENDBRANCH   1  16
BRANCH   6  19
ATOM     19  C   UNL     1       2.724  -2.409   0.086  0.00  0.00    +0.076 C 
BRANCH  19  20
ATOM     20  C   UNL     1       3.875  -1.915   0.924  0.00  0.00    -0.043 A 
ATOM     21  C   UNL     1       3.850  -0.637   1.449  0.00  0.00    +0.004 A 
ATOM     22  C   UNL     1       4.906  -0.184   2.217  0.00  0.00    +0.000 A 
ATOM     23  C   UNL     1       5.988  -1.010   2.461  0.00  0.00    +0.000 A 
ATOM     24  C   UNL     1       6.013  -2.289   1.936  0.00  0.00    +0.000 A 
ATOM     25  C   UNL     1       4.955  -2.743   1.171  0.00  0.00    +0.004 A 
ENDBRANCH  19  20
ENDBRANCH   6  19
BRANCH   2  26
ATOM     26  C   UNL     1      -1.295  -1.477   2.936  0.00  0.00    +0.113 C 
BRANCH  26  27
ATOM     27  N   UNL     1      -1.758  -1.969   4.236  0.00  0.00    -0.311 N 
ATOM     28  C   UNL     1      -2.222  -1.103   5.159  0.00  0.00    +0.326 C 
ATOM     29  O   UNL     1      -2.256   0.084   4.913  0.00  0.00    -0.280 OA
ATOM     30  H   UNL     1      -1.731  -2.919   4.432  0.00  0.00    +0.149 HD
ENDBRANCH  26  27
BRANCH  26  31
ATOM     31  C   UNL     1      -2.489  -1.335   1.990  0.00  0.00    +0.097 C 
BRANCH  31  32
ATOM     32  C   UNL     1      -3.448  -0.311   2.541  0.00  0.00    +0.225 C 
ATOM     33  O   UNL     1      -3.781   0.631   1.863  0.00  0.00    -0.301 OA
ENDBRANCH  31  32
ENDBRANCH  26  31
ENDBRANCH   2  26
TORSDOF 10
