REMARK  Name = ZINC04270516
REMARK  8 active torsions:
REMARK  status: ('A' for Active; 'I' for Inactive)
REMARK    1  A    between atoms: C_1  and  C_2
REMARK    2  A    between atoms: C_2  and  C_3
REMARK    3  A    between atoms: N_8  and  S_9
REMARK    4  A    between atoms: S_9  and  C_12
REMARK    5  A    between atoms: C_15  and  N_18
REMARK    6  A    between atoms: C_19  and  C_21
REMARK    7  A    between atoms: C_23  and  C_28
REMARK    8  A    between atoms: C_26  and  C_27
REMARK                            x       y       z     vdW  Elec       q    Type
REMARK                         _______ _______ _______ _____ _____    ______ ____
ROOT
ATOM      1  C   UNL     1      -2.653   8.153   2.033  0.00  0.00    +0.109 A 
ATOM      2  C   UNL     1      -3.648   7.308   1.578  0.00  0.00    +0.030 A 
ATOM      3  C   UNL     1      -4.815   7.159   2.303  0.00  0.00    +0.025 A 
ATOM      4  C   UNL     1      -4.991   7.867   3.485  0.00  0.00    +0.034 A 
ATOM      5  C   UNL     1      -3.991   8.718   3.937  0.00  0.00    +0.025 A 
ATOM      6  C   UNL     1      -2.826   8.859   3.210  0.00  0.00    +0.030 A 
ENDROOT
BRANCH   4   7
ATOM      7  N   UNL     1      -6.173   7.721   4.219  0.00  0.00    -0.281 N 
ATOM      8  C   UNL     1      -6.678   8.771   4.897  0.00  0.00    +0.249 C 
ATOM      9  O   UNL     1      -6.160   9.866   4.796  0.00  0.00    -0.270 OA
ATOM     10  H   UNL     1      -6.629   6.865   4.240  0.00  0.00    +0.155 HD
BRANCH   8  11
ATOM     11  C   UNL     1      -7.861   8.590   5.764  0.00  0.00    +0.040 A 
ATOM     12  C   UNL     1      -8.538   7.369   5.781  0.00  0.00    +0.016 A 
ATOM     13  C   UNL     1      -9.641   7.207   6.593  0.00  0.00    -0.050 A 
ATOM     14  C   UNL     1     -10.078   8.251   7.389  0.00  0.00    +0.003 A 
ATOM     15  C   UNL     1      -9.412   9.463   7.377  0.00  0.00    +0.004 A 
ATOM     16  C   UNL     1      -8.304   9.637   6.574  0.00  0.00    -0.038 A 
ATOM     17  C   UNL     1      -7.576  10.957   6.566  0.00  0.00    +0.044 C 
ATOM     18  C   UNL     1     -10.373   5.889   6.612  0.00  0.00    +0.044 C 
ENDBRANCH   8  11
ENDBRANCH   4   7
BRANCH   1  19
ATOM     19  S   UNL     1      -1.164   8.335   1.109  0.00  0.00    +0.074 S 
ATOM     20  O   UNL     1      -0.621   9.601   1.460  0.00  0.00    -0.150 OA
ATOM     21  O   UNL     1      -1.474   7.984  -0.233  0.00  0.00    -0.150 OA
BRANCH  19  27
ATOM     22  C   UNL     1      -0.583   3.196   1.323  0.00  0.00    +0.103 A 
ATOM     23  N   UNL     1      -1.508   3.999   0.838  0.00  0.00    -0.145 NA
ATOM     24  N   UNL     1      -1.415   5.255   0.912  0.00  0.00    -0.125 NA
ATOM     25  C   UNL     1      -0.376   5.846   1.487  0.00  0.00    +0.201 A 
ATOM     26  S   UNL     1       0.566   4.404   1.978  0.00  0.00    -0.034 S 
ATOM     27  N   UNL     1      -0.100   7.194   1.663  0.00  0.00    -0.192 N 
ATOM     28  H   UNL     1       0.715   7.468   2.111  0.00  0.00    +0.176 HD
BRANCH  22  30
ATOM     29  C   UNL     1       0.196   1.206   0.067  0.00  0.00    +0.011 C 
ATOM     30  C   UNL     1      -0.515   1.691   1.331  0.00  0.00    +0.061 C 
ENDBRANCH  22  30
ENDBRANCH  19  27
ENDBRANCH   1  19
TORSDOF 5
