REMARK  Name = ZINC20509887
REMARK  4 active torsions:
REMARK  status: ('A' for Active; 'I' for Inactive)
REMARK    1  A    between atoms: C_4  and  C_7
REMARK    2  A    between atoms: C_9  and  C_26
REMARK    3  A    between atoms: C_10  and  N_25
REMARK    4  A    between atoms: C_22  and  C_23
REMARK                            x       y       z     vdW  Elec       q    Type
REMARK                         _______ _______ _______ _____ _____    ______ ____
ROOT
ATOM      1  C   UNL     1      -2.539   3.737   0.099  0.00  0.00    +0.105 C 
ATOM      2  C   UNL     1      -1.230   2.991   0.132  0.00  0.00    +0.078 C 
ATOM      3  C   UNL     1      -1.210   1.637   0.017  0.00  0.00    +0.110 C 
ATOM      4  N   UNL     1      -2.398   0.932  -0.086  0.00  0.00    -0.216 N 
ATOM      5  C   UNL     1      -2.401  -0.266  -0.689  0.00  0.00    +0.258 C 
ATOM      6  O   UNL     1      -1.332  -0.802  -0.910  0.00  0.00    -0.269 OA
ATOM      7  C   UNL     1      -3.624  -0.962  -1.097  0.00  0.00    +0.051 A 
ATOM      8  C   UNL     1      -3.579  -1.900  -2.136  0.00  0.00    +0.014 A 
ATOM      9  C   UNL     1      -4.732  -2.528  -2.547  0.00  0.00    +0.001 A 
ATOM     10  C   UNL     1      -5.945  -2.243  -1.939  0.00  0.00    +0.001 A 
ATOM     11  C   UNL     1      -6.008  -1.330  -0.906  0.00  0.00    +0.016 A 
ATOM     12  C   UNL     1      -4.853  -0.692  -0.474  0.00  0.00    +0.026 A 
ATOM     13  S   UNL     1      -4.918   0.459   0.860  0.00  0.00    -0.072 S 
ATOM     14  C   UNL     1      -3.554   1.487   0.426  0.00  0.00    +0.095 C 
ATOM     15  C   UNL     1      -3.651   2.840   0.574  0.00  0.00    +0.070 C 
ENDROOT
BRANCH   1  19
ATOM     16  C   UNL     1      -3.353   5.013  -3.896  0.00  0.00    +0.000 A 
ATOM     17  C   UNL     1      -3.222   5.947  -2.885  0.00  0.00    +0.000 A 
ATOM     18  C   UNL     1      -2.958   5.534  -1.593  0.00  0.00    +0.004 A 
ATOM     19  C   UNL     1      -2.826   4.187  -1.310  0.00  0.00    -0.034 A 
ATOM     20  C   UNL     1      -2.953   3.253  -2.322  0.00  0.00    +0.004 A 
ATOM     21  C   UNL     1      -3.221   3.666  -3.614  0.00  0.00    +0.000 A 
ENDBRANCH   1  19
BRANCH   3  22
ATOM     22  N   UNL     1      -0.011   0.966   0.007  0.00  0.00    -0.345 N 
ATOM     23  H   UNL     1       0.005  -0.130  -0.086  0.00  0.00    +0.144 HD
ATOM     24  H   UNL     1       0.932   1.525   0.093  0.00  0.00    +0.144 HD
ENDBRANCH   3  22
BRANCH  15  25
ATOM     25  C   UNL     1      -4.816   3.409   1.182  0.00  0.00    +0.098 C 
ATOM     26  N   UNL     1      -5.740   3.860   1.665  0.00  0.00    -0.191 NA
ENDBRANCH  15  25
BRANCH   2  27
ATOM     27  C   UNL     1      -0.002   3.713   0.281  0.00  0.00    +0.099 C 
ATOM     28  N   UNL     1       0.972   4.285   0.399  0.00  0.00    -0.191 NA
ENDBRANCH   2  27
TORSDOF 4
