REMARK  Name = ZINC63571985
REMARK  5 active torsions:
REMARK  status: ('A' for Active; 'I' for Inactive)
REMARK    1  A    between atoms: C_1  and  C_2
REMARK    2  A    between atoms: C_4  and  N_9
REMARK    3  A    between atoms: C_25  and  C_27
REMARK    4  A    between atoms: C_30  and  O_33
REMARK    5  A    between atoms: O_33  and  C_34
REMARK                            x       y       z     vdW  Elec       q    Type
REMARK                         _______ _______ _______ _____ _____    ______ ____
ROOT
ATOM      1  N   UNL     1      -0.283  -3.070  -1.835  0.00  0.00    -0.269 N 
ATOM      2  C   UNL     1       0.016  -4.361  -2.079  0.00  0.00    +0.307 C 
ATOM      3  O   UNL     1       0.216  -5.124  -1.153  0.00  0.00    -0.252 OA
ATOM      4  N   UNL     1       0.094  -4.807  -3.348  0.00  0.00    -0.276 N 
ATOM      5  C   UNL     1       0.004  -3.853  -4.459  0.00  0.00    +0.114 C 
ATOM      6  C   UNL     1       1.269  -3.961  -5.330  0.00  0.00    +0.052 C 
ATOM      7  C   UNL     1       1.524  -5.432  -5.544  0.00  0.00    -0.035 C 
ATOM      8  C   UNL     1       1.723  -6.137  -6.651  0.00  0.00    -0.001 A 
ATOM      9  C   UNL     1       1.879  -5.729  -8.057  0.00  0.00    +0.010 A 
ATOM     10  C   UNL     1       2.053  -6.734  -8.956  0.00  0.00    +0.001 A 
ATOM     11  C   UNL     1       2.088  -8.086  -8.602  0.00  0.00    +0.002 A 
ATOM     12  C   UNL     1       1.962  -8.550  -7.333  0.00  0.00    +0.026 A 
ATOM     13  C   UNL     1       1.782  -7.588  -6.297  0.00  0.00    +0.043 A 
ATOM     14  N   UNL     1       1.660  -7.748  -5.013  0.00  0.00    -0.375 N 
ATOM     15  C   UNL     1       1.571  -6.426  -4.389  0.00  0.00    +0.131 C 
ATOM     16  C   UNL     1       0.273  -6.245  -3.605  0.00  0.00    +0.134 C 
ATOM     17  H   UNL     1      -0.528  -2.482  -2.567  0.00  0.00    +0.156 HD
ATOM     18  H   UNL     1       1.631  -8.598  -4.547  0.00  0.00    +0.160 HD
ENDROOT
BRANCH   1  22
ATOM     19  C   UNL     1       0.570   0.657   1.257  0.00  0.00    +0.045 C 
ATOM     20  C   UNL     1       0.170  -0.774   1.002  0.00  0.00    -0.035 A 
ATOM     21  C   UNL     1       0.129  -1.258  -0.291  0.00  0.00    +0.027 A 
ATOM     22  C   UNL     1      -0.239  -2.576  -0.526  0.00  0.00    +0.035 A 
ATOM     23  C   UNL     1      -0.565  -3.404   0.541  0.00  0.00    +0.024 A 
ATOM     24  C   UNL     1      -0.522  -2.915   1.831  0.00  0.00    +0.017 A 
ATOM     25  C   UNL     1      -0.150  -1.602   2.063  0.00  0.00    +0.021 A 
ATOM     26 BR   UNL     1      -0.085  -0.937   3.832  0.00  0.00    -0.050 Br
ENDBRANCH   1  22
BRANCH  16  27
ATOM     27  C   UNL     1      -0.885  -6.767  -4.415  0.00  0.00    -0.024 A 
ATOM     28  C   UNL     1      -1.054  -6.356  -5.723  0.00  0.00    +0.009 A 
ATOM     29  C   UNL     1      -2.116  -6.833  -6.467  0.00  0.00    +0.046 A 
ATOM     30  C   UNL     1      -3.013  -7.726  -5.900  0.00  0.00    +0.120 A 
ATOM     31  C   UNL     1      -2.841  -8.138  -4.587  0.00  0.00    +0.046 A 
ATOM     32  C   UNL     1      -1.775  -7.662  -3.849  0.00  0.00    +0.009 A 
BRANCH  30  33
ATOM     33  O   UNL     1      -4.059  -8.197  -6.630  0.00  0.00    -0.495 OA
ATOM     34  C   UNL     1      -4.942  -9.114  -5.981  0.00  0.00    +0.277 C 
ENDBRANCH  30  33
ENDBRANCH  16  27
TORSDOF 3
