REMARK  Name = ZINC51601019
REMARK  6 active torsions:
REMARK  status: ('A' for Active; 'I' for Inactive)
REMARK    1  A    between atoms: C_3  and  N_10
REMARK    2  A    between atoms: C_6  and  C_7
REMARK    3  A    between atoms: C_7  and  C_8
REMARK    4  A    between atoms: N_10  and  S_11
REMARK    5  A    between atoms: S_11  and  C_14
REMARK    6  A    between atoms: C_16  and  N_21
REMARK                            x       y       z     vdW  Elec       q    Type
REMARK                         _______ _______ _______ _____ _____    ______ ____
ROOT
ATOM      1  S   UNL     1       5.026   1.312  -0.039  0.00  0.00    +0.093 S 
ATOM      2  O   UNL     1       5.123   0.626   1.202  0.00  0.00    -0.148 OA
ATOM      3  O   UNL     1       5.099   0.639  -1.289  0.00  0.00    -0.148 OA
ENDROOT
BRANCH   1   4
ATOM      4  C   UNL     1       6.304   2.525  -0.046  0.00  0.00    +0.130 A 
ATOM      5  C   UNL     1       7.167   2.624   1.029  0.00  0.00    +0.053 A 
ATOM      6  C   UNL     1       8.174   3.580   1.023  0.00  0.00    +0.027 A 
ATOM      7  C   UNL     1       8.311   4.434  -0.064  0.00  0.00    +0.024 A 
ATOM      8  C   UNL     1       7.446   4.330  -1.135  0.00  0.00    +0.024 A 
ATOM      9  C   UNL     1       6.446   3.373  -1.129  0.00  0.00    +0.068 A 
ATOM     10 CL   UNL     1       5.364   3.242  -2.480  0.00  0.00    -0.082 Cl
BRANCH   6  11
ATOM     11  N   UNL     1       9.048   3.683   2.108  0.00  0.00    -0.358 N 
ATOM     12  H   UNL     1       8.951   3.086   2.867  0.00  0.00    +0.142 HD
ATOM     13  H   UNL     1       9.751   4.351   2.103  0.00  0.00    +0.142 HD
ENDBRANCH   6  11
ENDBRANCH   1   4
BRANCH   1  14
ATOM     14  N   UNL     1       3.582   2.122  -0.021  0.00  0.00    -0.098 NA
BRANCH  14  17
ATOM     15  C   UNL     1      -0.017   1.379   0.010  0.00  0.00    +0.006 A 
ATOM     16  C   UNL     1       1.169   2.087   0.002  0.00  0.00    +0.027 A 
ATOM     17  C   UNL     1       2.381   1.409  -0.013  0.00  0.00    +0.074 A 
ATOM     18  C   UNL     1       2.396   0.020  -0.021  0.00  0.00    +0.027 A 
ATOM     19  C   UNL     1       1.207  -0.682  -0.013  0.00  0.00    +0.006 A 
ATOM     20  C   UNL     1       0.002  -0.004   0.002  0.00  0.00    -0.033 A 
BRANCH  20  21
ATOM     21  C   UNL     1      -1.294  -0.774   0.011  0.00  0.00    +0.153 C 
BRANCH  21  22
ATOM     22  C   UNL     1      -1.729  -1.017  -1.374  0.00  0.00    +0.067 C 
ATOM     23  N   UNL     1      -2.065  -1.204  -2.443  0.00  0.00    -0.196 NA
ENDBRANCH  21  22
ENDBRANCH  20  21
ENDBRANCH  14  17
ENDBRANCH   1  14
TORSDOF 6
