REMARK  Name = ZINC39916560
REMARK  6 active torsions:
REMARK  status: ('A' for Active; 'I' for Inactive)
REMARK    1  A    between atoms: C_1  and  C_2
REMARK    2  A    between atoms: C_3  and  S_8
REMARK    3  A    between atoms: C_4  and  C_7
REMARK    4  A    between atoms: S_8  and  N_11
REMARK    5  A    between atoms: C_20  and  C_22
REMARK    6  A    between atoms: N_24  and  C_25
REMARK                            x       y       z     vdW  Elec       q    Type
REMARK                         _______ _______ _______ _____ _____    ______ ____
ROOT
ATOM      1  N   UNL     1       2.539  -1.131  -1.954  0.00  0.00    -0.160 NA
ATOM      2  C   UNL     1       2.857   0.117  -1.253  0.00  0.00    +0.145 C 
ATOM      3  C   UNL     1       4.313   0.124  -0.861  0.00  0.00    -0.028 A 
ATOM      4  C   UNL     1       4.742   1.108   0.020  0.00  0.00    +0.005 A 
ATOM      5  C   UNL     1       6.064   1.171   0.408  0.00  0.00    +0.000 A 
ATOM      6  C   UNL     1       6.969   0.249  -0.085  0.00  0.00    +0.000 A 
ATOM      7  C   UNL     1       6.543  -0.731  -0.956  0.00  0.00    +0.004 A 
ATOM      8  C   UNL     1       5.210  -0.802  -1.344  0.00  0.00    -0.041 A 
ATOM      9  C   UNL     1       4.813  -1.915  -2.277  0.00  0.00    +0.065 C 
ATOM     10  C   UNL     1       3.496  -1.597  -2.972  0.00  0.00    +0.170 C 
ENDROOT
BRANCH  10  11
ATOM     11  C   UNL     1       2.964  -2.838  -3.642  0.00  0.00    +0.236 C 
ATOM     12  O   UNL     1       3.210  -3.931  -3.176  0.00  0.00    -0.274 OA
ATOM     13  N   UNL     1       2.215  -2.733  -4.757  0.00  0.00    -0.284 N 
ATOM     14  H   UNL     1       2.100  -1.870  -5.185  0.00  0.00    +0.155 HD
BRANCH  13  15
ATOM     15  C   UNL     1       1.604  -3.870  -5.299  0.00  0.00    +0.033 A 
ATOM     16  C   UNL     1       1.254  -4.931  -4.475  0.00  0.00    +0.024 A 
ATOM     17  C   UNL     1       0.651  -6.051  -5.012  0.00  0.00    +0.017 A 
ATOM     18  C   UNL     1       0.395  -6.117  -6.370  0.00  0.00    +0.018 A 
ATOM     19  C   UNL     1       0.743  -5.061  -7.194  0.00  0.00    +0.017 A 
ATOM     20  C   UNL     1       1.341  -3.936  -6.661  0.00  0.00    +0.024 A 
ATOM     21 BR   UNL     1      -0.431  -7.653  -7.102  0.00  0.00    -0.050 Br
ENDBRANCH  13  15
ENDBRANCH  10  11
BRANCH   1  22
ATOM     22  S   UNL     1       1.164  -1.987  -1.609  0.00  0.00    +0.067 S 
ATOM     23  O   UNL     1       1.080  -3.026  -2.575  0.00  0.00    -0.153 OA
ATOM     24  O   UNL     1       0.128  -1.033  -1.425  0.00  0.00    -0.153 OA
BRANCH  22  27
ATOM     25  C   UNL     1       0.663  -0.795   1.461  0.00  0.00    +0.071 C 
ATOM     26  C   UNL     1       1.175  -2.190   1.210  0.00  0.00    +0.107 A 
ATOM     27  C   UNL     1       1.413  -2.768  -0.050  0.00  0.00    +0.170 A 
ATOM     28  C   UNL     1       1.865  -4.022   0.143  0.00  0.00    +0.161 A 
ATOM     29  O   UNL     1       1.916  -4.245   1.465  0.00  0.00    -0.358 OA
ATOM     30  N   UNL     1       1.480  -3.069   2.122  0.00  0.00    -0.081 NA
ATOM     31  C   UNL     1       2.245  -5.003  -0.936  0.00  0.00    +0.091 C 
ENDBRANCH  22  27
ENDBRANCH   1  22
TORSDOF 4
