REMARK  Name = ZINC03475828
REMARK  4 active torsions:
REMARK  status: ('A' for Active; 'I' for Inactive)
REMARK    1  A    between atoms: C_1  and  C_2
REMARK    2  A    between atoms: C_7  and  C_8
REMARK    3  A    between atoms: N_9  and  N_10
REMARK    4  A    between atoms: C_11  and  C_21
REMARK                            x       y       z     vdW  Elec       q    Type
REMARK                         _______ _______ _______ _____ _____    ______ ____
ROOT
ATOM      1  N   UNL     1       0.155   2.251   3.563  0.00  0.00    -0.182 N 
ATOM      2  C   UNL     1       0.063   3.597   3.391  0.00  0.00    +0.132 A 
ATOM      3  N   UNL     1       0.134   4.447   4.371  0.00  0.00    -0.232 NA
ATOM      4  C   UNL     1       0.307   4.042   5.653  0.00  0.00    +0.078 A 
ATOM      5  C   UNL     1       0.383   4.956   6.707  0.00  0.00    +0.028 A 
ATOM      6  C   UNL     1       0.559   4.500   7.993  0.00  0.00    +0.002 A 
ATOM      7  C   UNL     1       0.662   3.140   8.259  0.00  0.00    +0.001 A 
ATOM      8  C   UNL     1       0.591   2.219   7.237  0.00  0.00    +0.015 A 
ATOM      9  C   UNL     1       0.413   2.660   5.927  0.00  0.00    +0.067 A 
ATOM     10  C   UNL     1       0.323   1.723   4.798  0.00  0.00    +0.282 A 
ATOM     11  O   UNL     1       0.402   0.520   4.966  0.00  0.00    -0.265 OA
ATOM     12  C   UNL     1      -0.130   4.130   1.995  0.00  0.00    +0.088 C 
ENDROOT
BRANCH   1  14
ATOM     13  C   UNL     1       1.110   0.735   2.061  0.00  0.00    +0.141 C 
ATOM     14  N   UNL     1       0.067   1.402   2.451  0.00  0.00    -0.170 NA
BRANCH  13  21
ATOM     15  C   UNL     1      -1.419   0.407   0.696  0.00  0.00    +0.044 C 
ATOM     16  C   UNL     1      -0.173  -0.259   0.174  0.00  0.00    -0.042 A 
ATOM     17  C   UNL     1      -0.228  -1.030  -0.969  0.00  0.00    +0.004 A 
ATOM     18  C   UNL     1       0.916  -1.642  -1.450  0.00  0.00    +0.000 A 
ATOM     19  C   UNL     1       2.122  -1.486  -0.790  0.00  0.00    +0.001 A 
ATOM     20  C   UNL     1       2.192  -0.718   0.353  0.00  0.00    +0.010 A 
ATOM     21  C   UNL     1       1.042  -0.092   0.842  0.00  0.00    -0.002 A 
ENDBRANCH  13  21
ENDBRANCH   1  14
TORSDOF 2
