REMARK  Name = ZINC09532447
REMARK  6 active torsions:
REMARK  status: ('A' for Active; 'I' for Inactive)
REMARK    1  A    between atoms: C_1  and  C_2
REMARK    2  A    between atoms: C_9  and  C_11
REMARK    3  A    between atoms: N_13  and  N_14
REMARK    4  A    between atoms: N_17  and  C_18
REMARK    5  A    between atoms: N_17  and  C_19
REMARK    6  A    between atoms: C_19  and  C_20
REMARK                            x       y       z     vdW  Elec       q    Type
REMARK                         _______ _______ _______ _____ _____    ______ ____
ROOT
ATOM      1  N   UNL     1       0.655   9.483   2.462  0.00  0.00    -0.218 N 
ATOM      2  C   UNL     1       0.108   8.253   2.503  0.00  0.00    +0.318 C 
ATOM      3  O   UNL     1      -0.984   8.090   3.014  0.00  0.00    -0.251 OA
ATOM      4  N   UNL     1       0.769   7.203   1.978  0.00  0.00    -0.284 N 
ATOM      5  C   UNL     1       2.129   7.378   1.461  0.00  0.00    +0.133 C 
ATOM      6  H   UNL     1       0.208  10.228   2.893  0.00  0.00    +0.174 HD
ENDROOT
BRANCH   1   9
ATOM      7  C   UNL     1       2.776  10.552   2.297  0.00  0.00    +0.267 C 
ATOM      8  O   UNL     1       2.537  11.157   3.326  0.00  0.00    -0.268 OA
ATOM      9  N   UNL     1       1.872   9.687   1.797  0.00  0.00    -0.229 N 
ATOM     10  H   UNL     1       2.063   9.206   0.977  0.00  0.00    +0.173 HD
BRANCH   7  18
ATOM     11  C   UNL     1       9.790  12.933   0.711  0.00  0.00    +0.008 C 
ATOM     12  C   UNL     1       8.612  11.965   0.584  0.00  0.00    -0.009 C 
ATOM     13  C   UNL     1       8.225  11.827  -0.891  0.00  0.00    +0.009 C 
ATOM     14  C   UNL     1       7.235  10.662  -1.034  0.00  0.00    +0.043 C 
ATOM     15  C   UNL     1       6.172  10.814   0.011  0.00  0.00    -0.006 A 
ATOM     16  C   UNL     1       6.209  11.623   1.111  0.00  0.00    -0.036 A 
ATOM     17  C   UNL     1       5.097  11.602   1.938  0.00  0.00    +0.024 A 
ATOM     18  C   UNL     1       4.049  10.765   1.601  0.00  0.00    +0.076 A 
ATOM     19  S   UNL     1       4.646  10.019   0.094  0.00  0.00    -0.088 S 
ATOM     20  C   UNL     1       7.426  12.501   1.387  0.00  0.00    +0.039 C 
ENDBRANCH   7  18
ENDBRANCH   1   9
BRANCH   4  21
ATOM     21  C   UNL     1       0.129   5.886   1.923  0.00  0.00    +0.157 C 
BRANCH  21  22
ATOM     22  C   UNL     1       0.441   5.114   3.206  0.00  0.00    +0.228 C 
ATOM     23  C   UNL     1      -0.227   3.733   3.154  0.00  0.00    +0.275 C 
ATOM     24  O   UNL     1       0.096   3.034   4.361  0.00  0.00    -0.485 OA
ATOM     25  C   UNL     1       1.398   3.063   4.755  0.00  0.00    +0.162 A 
ATOM     26  C   UNL     1       1.851   2.132   5.678  0.00  0.00    +0.049 A 
ATOM     27  C   UNL     1       3.169   2.155   6.094  0.00  0.00    +0.004 A 
ATOM     28  C   UNL     1       4.042   3.097   5.583  0.00  0.00    +0.004 A 
ATOM     29  C   UNL     1       3.598   4.024   4.659  0.00  0.00    +0.049 A 
ATOM     30  C   UNL     1       2.276   4.009   4.240  0.00  0.00    +0.163 A 
ATOM     31  O   UNL     1       1.855   4.923   3.323  0.00  0.00    -0.480 OA
ENDBRANCH  21  22
ENDBRANCH   4  21
TORSDOF 4
