REMARK  Name = ZINC45439151
REMARK  2 active torsions:
REMARK  status: ('A' for Active; 'I' for Inactive)
REMARK    1  A    between atoms: C_3  and  C_22
REMARK    2  A    between atoms: C_6  and  N_9
REMARK                            x       y       z     vdW  Elec       q    Type
REMARK                         _______ _______ _______ _____ _____    ______ ____
ROOT
ATOM      1  N   UNL     1       0.007  -0.010  -2.441  0.00  0.00    -0.296 N 
ATOM      2  C   UNL     1      -1.042  -0.701  -2.929  0.00  0.00    +0.302 C 
ATOM      3  O   UNL     1      -1.345  -1.772  -2.441  0.00  0.00    -0.253 OA
ATOM      4  N   UNL     1      -1.756  -0.203  -3.958  0.00  0.00    -0.285 N 
ATOM      5  C   UNL     1      -2.973  -0.883  -4.423  0.00  0.00    +0.114 C 
ATOM      6  C   UNL     1      -2.849  -1.143  -5.928  0.00  0.00    +0.084 C 
ATOM      7  C   UNL     1      -2.547   0.174  -6.646  0.00  0.00    +0.173 C 
ATOM      8  C   UNL     1      -1.224   0.752  -6.139  0.00  0.00    +0.084 C 
ATOM      9  C   UNL     1      -1.337   1.032  -4.633  0.00  0.00    +0.114 C 
ATOM     10  O   UNL     1      -2.462  -0.057  -8.057  0.00  0.00    -0.346 OA
ATOM     11  C   UNL     1      -3.472   0.758  -8.686  0.00  0.00    +0.191 C 
ATOM     12  C   UNL     1      -3.748   1.853  -7.626  0.00  0.00    +0.191 C 
ATOM     13  O   UNL     1      -3.606   1.111  -6.391  0.00  0.00    -0.346 OA
ATOM     14  H   UNL     1       0.293   0.809  -2.875  0.00  0.00    +0.151 HD
ENDROOT
BRANCH   1  19
ATOM     15  C   UNL     1      -0.030   1.522   0.017  0.00  0.00    +0.002 C 
ATOM     16  C   UNL     1       1.404   2.056   0.009  0.00  0.00    +0.012 C 
ATOM     17  C   UNL     1       2.123   1.568  -1.250  0.00  0.00    +0.095 C 
ATOM     18  C   UNL     1       2.149   0.038  -1.262  0.00  0.00    +0.034 C 
ATOM     19  C   UNL     1       0.715  -0.496  -1.254  0.00  0.00    +0.075 C 
ATOM     20  C   UNL     1      -0.004  -0.007   0.005  0.00  0.00    +0.022 C 
BRANCH  17  21
ATOM     21  C   UNL     1       3.557   2.102  -1.258  0.00  0.00    +0.393 C 
ATOM     22  F   UNL     1       4.234   1.638  -0.124  0.00  0.00    -0.170 F 
ATOM     23  F   UNL     1       4.215   1.655  -2.409  0.00  0.00    -0.170 F 
ATOM     24  F   UNL     1       3.534   3.501  -1.247  0.00  0.00    -0.170 F 
ENDBRANCH  17  21
ENDBRANCH   1  19
TORSDOF 2
