REMARK  Name = ZINC12652023
REMARK  8 active torsions:
REMARK  status: ('A' for Active; 'I' for Inactive)
REMARK    1  A    between atoms: C_1  and  C_2
REMARK    2  A    between atoms: C_4  and  C_37
REMARK    3  A    between atoms: N_13  and  C_14
REMARK    4  A    between atoms: N_24  and  C_25
REMARK    5  A    between atoms: C_25  and  C_26
REMARK    6  A    between atoms: C_26  and  C_27
REMARK    7  A    between atoms: C_30  and  S_33
REMARK    8  A    between atoms: S_33  and  N_36
REMARK                            x       y       z     vdW  Elec       q    Type
REMARK                         _______ _______ _______ _____ _____    ______ ____
ROOT
ATOM      1  C   UNL     1       4.514  -1.151   1.112  0.00  0.00    +0.066 C 
ATOM      2  C   UNL     1       3.226  -1.853   0.763  0.00  0.00    +0.044 A 
ATOM      3  C   UNL     1       3.045  -2.403  -0.496  0.00  0.00    +0.046 A 
ATOM      4  C   UNL     1       1.846  -3.040  -0.774  0.00  0.00    +0.044 A 
ATOM      5  N   UNL     1       0.916  -3.103   0.164  0.00  0.00    -0.217 NA
ATOM      6  C   UNL     1       1.121  -2.566   1.357  0.00  0.00    +0.231 A 
ATOM      7  N   UNL     1       2.257  -1.956   1.657  0.00  0.00    -0.217 NA
ATOM      8  N   UNL     1       0.123  -2.651   2.319  0.00  0.00    -0.298 N 
ATOM      9  C   UNL     1       0.268  -2.003   3.514  0.00  0.00    +0.177 C 
ATOM     10  N   UNL     1       0.133  -2.669   4.649  0.00  0.00    -0.242 N 
ATOM     11  C   UNL     1      -0.036  -3.999   4.629  0.00  0.00    +0.306 C 
ATOM     12  O   UNL     1      -0.196  -4.577   3.569  0.00  0.00    -0.252 OA
ATOM     13  N   UNL     1      -0.030  -4.697   5.782  0.00  0.00    -0.296 N 
ATOM     14  N   UNL     1       0.551  -0.669   3.537  0.00  0.00    -0.358 N 
ATOM     15  C   UNL     1       1.605  -3.652  -2.130  0.00  0.00    +0.066 C 
ATOM     16  H   UNL     1      -0.678  -3.170   2.143  0.00  0.00    +0.171 HD
ATOM     17  H   UNL     1       0.097  -4.236   6.627  0.00  0.00    +0.151 HD
ATOM     18  H   UNL     1       0.882  -0.257   4.350  0.00  0.00    +0.162 HD
ATOM     19  H   UNL     1       0.157  -2.196   5.495  0.00  0.00    +0.159 HD
ENDROOT
BRANCH  13  20
ATOM     20  C   UNL     1      -0.215  -6.150   5.761  0.00  0.00    +0.081 C 
ATOM     21  C   UNL     1      -1.710  -6.473   5.744  0.00  0.00    +0.010 C 
ATOM     22  C   UNL     1      -1.904  -7.991   5.721  0.00  0.00    +0.009 C 
ATOM     23  C   UNL     1      -1.263  -8.605   6.968  0.00  0.00    -0.010 C 
ATOM     24  C   UNL     1      -1.924  -8.025   8.220  0.00  0.00    +0.007 C 
ATOM     25  C   UNL     1      -1.731  -6.508   8.242  0.00  0.00    -0.010 C 
ATOM     26  C   UNL     1      -2.372  -5.893   6.996  0.00  0.00    +0.009 C 
ATOM     27  C   UNL     1      -0.235  -6.184   8.259  0.00  0.00    +0.009 C 
ATOM     28  C   UNL     1       0.426  -6.764   7.007  0.00  0.00    +0.010 C 
ATOM     29  C   UNL     1       0.233  -8.282   6.984  0.00  0.00    +0.009 C 
ENDBRANCH  13  20
BRANCH  14  30
ATOM     30  C   UNL     1       0.355   0.142   2.332  0.00  0.00    +0.120 C 
BRANCH  30  31
ATOM     31  C   UNL     1       0.528   1.622   2.680  0.00  0.00    +0.056 C 
BRANCH  31  32
ATOM     32  C   UNL     1       0.339   2.455   1.438  0.00  0.00    -0.046 A 
ATOM     33  C   UNL     1       1.410   2.699   0.599  0.00  0.00    +0.005 A 
ATOM     34  C   UNL     1       1.236   3.463  -0.539  0.00  0.00    +0.029 A 
ATOM     35  C   UNL     1      -0.009   3.983  -0.839  0.00  0.00    +0.105 A 
ATOM     36  C   UNL     1      -1.081   3.738  -0.001  0.00  0.00    +0.029 A 
ATOM     37  C   UNL     1      -0.907   2.970   1.136  0.00  0.00    +0.005 A 
BRANCH  35  38
ATOM     38  S   UNL     1      -0.230   4.958  -2.290  0.00  0.00    +0.056 S 
ATOM     39  O   UNL     1      -1.366   5.780  -2.058  0.00  0.00    -0.153 OA
ATOM     40  O   UNL     1       1.044   5.494  -2.618  0.00  0.00    -0.153 OA
BRANCH  38  41
ATOM     41  N   UNL     1      -0.638   3.924  -3.518  0.00  0.00    -0.204 NA
ATOM     42  H   UNL     1      -1.204   4.231  -4.243  0.00  0.00    +0.144 HD
ATOM     43  H   UNL     1      -0.311   3.010  -3.511  0.00  0.00    +0.144 HD
ENDBRANCH  38  41
ENDBRANCH  35  38
ENDBRANCH  31  32
ENDBRANCH  30  31
ENDBRANCH  14  30
TORSDOF 6
