REMARK  Name = ZINC38899605
REMARK  9 active torsions:
REMARK  status: ('A' for Active; 'I' for Inactive)
REMARK    1  A    between atoms: C_1  and  C_2
REMARK    2  A    between atoms: C_3  and  C_20
REMARK    3  A    between atoms: C_8  and  S_10
REMARK    4  A    between atoms: S_10  and  C_11
REMARK    5  A    between atoms: C_11  and  C_13
REMARK    6  A    between atoms: C_11  and  C_14
REMARK    7  A    between atoms: C_20  and  C_21
REMARK    8  A    between atoms: N_23  and  C_24
REMARK    9  A    between atoms: C_27  and  C_30
REMARK                            x       y       z     vdW  Elec       q    Type
REMARK                         _______ _______ _______ _____ _____    ______ ____
ROOT
ATOM      1  C   UNL     1      -0.026   1.505   0.030  0.00  0.00    +0.066 C 
ATOM      2  C   UNL     1      -0.001  -0.002   0.011  0.00  0.00    +0.050 A 
ATOM      3  C   UNL     1      -1.173  -0.703   0.004  0.00  0.00    +0.047 A 
ATOM      4  C   UNL     1      -1.124  -2.108  -0.013  0.00  0.00    +0.256 A 
ATOM      5  O   UNL     1      -2.152  -2.765  -0.020  0.00  0.00    -0.267 OA
ATOM      6  N   UNL     1       0.081  -2.716  -0.022  0.00  0.00    -0.302 N 
ATOM      7  H   UNL     1       0.138  -3.684  -0.035  0.00  0.00    +0.171 HD
ATOM      8  C   UNL     1       1.217  -1.964  -0.015  0.00  0.00    +0.170 A 
ATOM      9  N   UNL     1       1.163  -0.646  -0.003  0.00  0.00    -0.228 NA
ENDROOT
BRANCH   8  10
ATOM     10  S   UNL     1       2.786  -2.766  -0.026  0.00  0.00    -0.080 S 
BRANCH  10  11
ATOM     11  C   UNL     1       3.978  -1.399  -0.011  0.00  0.00    +0.081 C 
ATOM     12  C   UNL     1       3.855  -0.630   1.306  0.00  0.00    +0.024 C 
BRANCH  11  13
ATOM     13  C   UNL     1       5.375  -1.948  -0.143  0.00  0.00    -0.034 A 
ATOM     14  C   UNL     1       5.862  -2.833   0.801  0.00  0.00    +0.005 A 
ATOM     15  C   UNL     1       7.143  -3.337   0.680  0.00  0.00    +0.000 A 
ATOM     16  C   UNL     1       7.938  -2.957  -0.386  0.00  0.00    +0.000 A 
ATOM     17  C   UNL     1       7.450  -2.074  -1.331  0.00  0.00    +0.000 A 
ATOM     18  C   UNL     1       6.167  -1.573  -1.212  0.00  0.00    +0.005 A 
ENDBRANCH  11  13
ENDBRANCH  10  11
ENDBRANCH   8  10
BRANCH   3  19
ATOM     19  C   UNL     1      -2.496   0.018   0.016  0.00  0.00    +0.138 C 
BRANCH  19  20
ATOM     20  C   UNL     1      -2.999   0.167  -1.397  0.00  0.00    +0.222 C 
ATOM     21  O   UNL     1      -2.347  -0.269  -2.322  0.00  0.00    -0.275 OA
ATOM     22  N   UNL     1      -4.173   0.785  -1.633  0.00  0.00    -0.285 N 
ATOM     23  H   UNL     1      -4.727   1.074  -0.890  0.00  0.00    +0.155 HD
BRANCH  22  24
ATOM     24  C   UNL     1      -4.593   1.009  -2.943  0.00  0.00    +0.033 A 
ATOM     25  C   UNL     1      -4.308   0.073  -3.933  0.00  0.00    +0.024 A 
ATOM     26  C   UNL     1      -4.721   0.290  -5.228  0.00  0.00    +0.015 A 
ATOM     27  C   UNL     1      -5.427   1.453  -5.548  0.00  0.00    +0.037 A 
ATOM     28  C   UNL     1      -5.711   2.391  -4.552  0.00  0.00    +0.015 A 
ATOM     29  C   UNL     1      -5.300   2.165  -3.258  0.00  0.00    +0.024 A 
BRANCH  27  30
ATOM     30  C   UNL     1      -5.870   1.690  -6.936  0.00  0.00    +0.242 C 
ATOM     31  O   UNL     1      -5.622   0.874  -7.802  0.00  0.00    -0.270 OA
ATOM     32  N   UNL     1      -6.551   2.812  -7.244  0.00  0.00    -0.325 N 
ATOM     33  H   UNL     1      -6.750   3.464  -6.553  0.00  0.00    +0.145 HD
ATOM     34  H   UNL     1      -6.843   2.968  -8.155  0.00  0.00    +0.145 HD
ENDBRANCH  27  30
ENDBRANCH  22  24
ENDBRANCH  19  20
ENDBRANCH   3  19
TORSDOF 7
