REMARK  Name = ZINC20365212
REMARK  2 active torsions:
REMARK  status: ('A' for Active; 'I' for Inactive)
REMARK    1  A    between atoms: C_1  and  N_2
REMARK    2  A    between atoms: C_20  and  C_23
REMARK                            x       y       z     vdW  Elec       q    Type
REMARK                         _______ _______ _______ _____ _____    ______ ____
ROOT
ATOM      1  C   UNL     1      -4.649   4.906   4.537  0.00  0.00    +0.154 C 
ATOM      2  N   UNL     1      -3.606   3.943   4.173  0.00  0.00    -0.291 N 
ATOM      3  C   UNL     1      -3.253   3.834   2.871  0.00  0.00    +0.263 A 
ATOM      4  O   UNL     1      -3.775   4.510   2.001  0.00  0.00    -0.267 OA
ATOM      5  C   UNL     1      -2.229   2.876   2.578  0.00  0.00    +0.074 A 
ATOM      6  C   UNL     1      -1.673   2.567   1.273  0.00  0.00    -0.020 A 
ATOM      7  C   UNL     1      -0.707   1.619   1.231  0.00  0.00    +0.013 A 
ATOM      8  S   UNL     1      -0.491   1.099   2.912  0.00  0.00    -0.074 S 
ATOM      9  C   UNL     1      -1.693   2.148   3.668  0.00  0.00    +0.092 A 
ATOM     10  N   UNL     1      -2.084   2.303   4.927  0.00  0.00    -0.329 N 
ATOM     11  C   UNL     1      -3.036   3.200   5.161  0.00  0.00    +0.161 A 
ATOM     12  S   UNL     1      -3.583   3.436   6.819  0.00  0.00    -0.013 S 
ATOM     13  C   UNL     1       0.011   1.130   0.011  0.00  0.00    +0.149 C 
ATOM     14  N   UNL     1      -0.737   1.580  -1.178  0.00  0.00    -0.309 N 
ATOM     15  C   UNL     1      -1.046   3.013  -1.083  0.00  0.00    +0.111 C 
ATOM     16  C   UNL     1      -2.120   3.249  -0.018  0.00  0.00    +0.056 C 
ATOM     17  C   UNL     1      -0.033   1.298  -2.344  0.00  0.00    +0.140 A 
ATOM     18  C   UNL     1      -0.570   0.416  -3.278  0.00  0.00    +0.081 A 
ATOM     19  C   UNL     1       0.139   0.149  -4.437  0.00  0.00    +0.037 A 
ATOM     20  C   UNL     1       1.369   0.767  -4.617  0.00  0.00    +0.074 A 
ATOM     21  C   UNL     1       1.844   1.626  -3.647  0.00  0.00    +0.125 A 
ATOM     22  N   UNL     1       1.144   1.867  -2.554  0.00  0.00    -0.238 NA
ATOM     23 CL   UNL     1      -2.110  -0.334  -2.997  0.00  0.00    -0.080 Cl
ATOM     24  H   UNL     1      -1.622   1.702   5.724  0.00  0.00    +0.168 HD
ENDROOT
BRANCH  20  25
ATOM     25  C   UNL     1       2.179   0.502  -5.861  0.00  0.00    +0.419 C 
ATOM     26  F   UNL     1       3.369   1.236  -5.808  0.00  0.00    -0.166 F 
ATOM     27  F   UNL     1       2.476  -0.862  -5.942  0.00  0.00    -0.166 F 
ATOM     28  F   UNL     1       1.443   0.887  -6.987  0.00  0.00    -0.166 F 
ENDBRANCH  20  25
TORSDOF 1
