REMARK  Name = ZINC63557550
REMARK  8 active torsions:
REMARK  status: ('A' for Active; 'I' for Inactive)
REMARK    1  A    between atoms: C_1  and  C_2
REMARK    2  A    between atoms: C_5  and  O_30
REMARK    3  A    between atoms: C_6  and  N_8
REMARK    4  A    between atoms: C_9  and  C_11
REMARK    5  A    between atoms: N_16  and  C_18
REMARK    6  A    between atoms: C_18  and  C_19
REMARK    7  A    between atoms: C_19  and  C_20
REMARK    8  A    between atoms: O_30  and  C_31
REMARK                            x       y       z     vdW  Elec       q    Type
REMARK                         _______ _______ _______ _____ _____    ______ ____
ROOT
ATOM      1  C   UNL     1       0.279  -2.894   4.860  0.00  0.00    +0.101 C 
ATOM      2  C   UNL     1       1.602  -3.693   4.901  0.00  0.00    +0.110 C 
ATOM      3  C   UNL     1       2.051  -3.595   6.342  0.00  0.00    +0.216 C 
ATOM      4  O   UNL     1       2.886  -4.305   6.860  0.00  0.00    -0.276 OA
ATOM      5  N   UNL     1       1.389  -2.605   6.966  0.00  0.00    -0.300 N 
ATOM      6  C   UNL     1       0.454  -1.931   6.056  0.00  0.00    +0.121 C 
ENDROOT
BRANCH   1   8
ATOM      7  N   UNL     1       0.050  -2.795   2.399  0.00  0.00    -0.282 N 
ATOM      8  C   UNL     1       0.149  -2.130   3.568  0.00  0.00    +0.222 C 
ATOM      9  O   UNL     1       0.134  -0.917   3.579  0.00  0.00    -0.275 OA
ATOM     10  H   UNL     1      -0.002  -3.763   2.395  0.00  0.00    +0.155 HD
BRANCH   7  16
ATOM     11  C   UNL     1      -1.308   1.189  -0.143  0.00  0.00    +0.044 C 
ATOM     12  C   UNL     1      -0.628  -0.153  -0.071  0.00  0.00    -0.048 A 
ATOM     13  C   UNL     1      -0.030  -0.685  -1.199  0.00  0.00    +0.007 A 
ATOM     14  C   UNL     1       0.595  -1.917  -1.139  0.00  0.00    +0.048 A 
ATOM     15  C   UNL     1       0.625  -2.622   0.054  0.00  0.00    +0.141 A 
ATOM     16  C   UNL     1       0.024  -2.086   1.191  0.00  0.00    +0.076 A 
ATOM     17  C   UNL     1      -0.597  -0.847   1.124  0.00  0.00    +0.030 A 
BRANCH  15  18
ATOM     18  O   UNL     1       1.238  -3.833   0.114  0.00  0.00    -0.493 OA
ATOM     19  C   UNL     1       1.833  -4.320  -1.091  0.00  0.00    +0.277 C 
ENDBRANCH  15  18
ENDBRANCH   7  16
ENDBRANCH   1   8
BRANCH   5  20
ATOM     20  C   UNL     1       1.575  -2.244   8.374  0.00  0.00    +0.112 C 
BRANCH  20  21
ATOM     21  C   UNL     1       2.677  -1.189   8.488  0.00  0.00    +0.052 C 
BRANCH  21  22
ATOM     22  C   UNL     1       2.869  -0.818   9.936  0.00  0.00    -0.040 C 
ATOM     23  C   UNL     1       3.780  -1.332  10.793  0.00  0.00    +0.000 A 
ATOM     24  C   UNL     1       4.824  -2.352  10.640  0.00  0.00    +0.030 A 
ATOM     25  C   UNL     1       5.599  -2.664  11.704  0.00  0.00    +0.042 A 
ATOM     26  C   UNL     1       5.429  -2.038  12.948  0.00  0.00    +0.022 A 
ATOM     27  C   UNL     1       4.491  -1.092  13.166  0.00  0.00    +0.027 A 
ATOM     28  C   UNL     1       3.622  -0.686  12.116  0.00  0.00    +0.043 A 
ATOM     29  N   UNL     1       2.650   0.193  12.078  0.00  0.00    -0.380 N 
ATOM     30  C   UNL     1       2.086   0.209  10.723  0.00  0.00    +0.144 C 
ATOM     31 CL   UNL     1       6.835  -3.869  11.527  0.00  0.00    -0.084 Cl
ATOM     32  H   UNL     1       2.356   0.744  12.820  0.00  0.00    +0.160 HD
ENDBRANCH  21  22
ENDBRANCH  20  21
ENDBRANCH   5  20
TORSDOF 6
