REMARK  Name = ZINC40814459
REMARK  5 active torsions:
REMARK  status: ('A' for Active; 'I' for Inactive)
REMARK    1  A    between atoms: C_1  and  C_2
REMARK    2  A    between atoms: C_6  and  C_7
REMARK    3  A    between atoms: N_9  and  C_10
REMARK    4  A    between atoms: N_22  and  N_23
REMARK    5  A    between atoms: C_24  and  C_26
REMARK                            x       y       z     vdW  Elec       q    Type
REMARK                         _______ _______ _______ _____ _____    ______ ____
ROOT
ATOM      1  C   UNL     1      -0.005   1.502   0.010  0.00  0.00    +0.048 C 
ATOM      2  C   UNL     1       0.021  -0.004   0.002  0.00  0.00    +0.009 A 
ATOM      3  C   UNL     1       0.039  -0.839  -1.123  0.00  0.00    +0.042 A 
ATOM      4  C   UNL     1       0.060  -2.138  -0.673  0.00  0.00    +0.115 A 
ATOM      5  O   UNL     1       0.058  -2.112   0.658  0.00  0.00    -0.454 OA
ATOM      6  C   UNL     1       0.039  -0.831   1.091  0.00  0.00    +0.193 A 
ATOM      7  C   UNL     1       0.077  -3.327  -1.599  0.00  0.00    +0.075 C 
ATOM      8  C   UNL     1      -0.440  -2.905  -2.977  0.00  0.00    +0.014 C 
ATOM      9  C   UNL     1       0.330  -1.685  -3.493  0.00  0.00    +0.058 C 
ATOM     10  C   UNL     1       0.040  -0.513  -2.566  0.00  0.00    +0.070 C 
ATOM     11  N   UNL     1      -0.189   0.685  -3.010  0.00  0.00    -0.184 NA
ENDROOT
BRANCH   6  12
ATOM     12  C   UNL     1       0.035  -0.400   2.493  0.00  0.00    +0.284 C 
ATOM     13  O   UNL     1       0.014   0.786   2.765  0.00  0.00    -0.266 OA
ATOM     14  N   UNL     1       0.054  -1.317   3.480  0.00  0.00    -0.278 N 
ATOM     15  H   UNL     1      -0.011  -2.261   3.266  0.00  0.00    +0.155 HD
BRANCH  14  16
ATOM     16  C   UNL     1       0.167  -0.909   4.813  0.00  0.00    +0.054 A 
ATOM     17  C   UNL     1       0.759   0.309   5.120  0.00  0.00    +0.044 A 
ATOM     18  C   UNL     1       0.869   0.710   6.438  0.00  0.00    +0.043 A 
ATOM     19  C   UNL     1       0.390  -0.101   7.452  0.00  0.00    +0.021 A 
ATOM     20  C   UNL     1      -0.200  -1.315   7.150  0.00  0.00    +0.023 A 
ATOM     21  C   UNL     1      -0.319  -1.718   5.833  0.00  0.00    +0.062 A 
ATOM     22 CL   UNL     1      -1.067  -3.239   5.455  0.00  0.00    -0.082 Cl
ATOM     23 CL   UNL     1       1.608   2.233   6.822  0.00  0.00    -0.083 Cl
ENDBRANCH  14  16
ENDBRANCH   6  12
BRANCH  11  24
ATOM     24  N   UNL     1      -0.176   0.936  -4.388  0.00  0.00    -0.200 N 
ATOM     25  C   UNL     1      -0.414   2.180  -4.848  0.00  0.00    +0.299 C 
ATOM     26  O   UNL     1      -0.641   3.086  -4.066  0.00  0.00    -0.265 OA
ATOM     27  H   UNL     1       0.005   0.215  -5.011  0.00  0.00    +0.178 HD
BRANCH  25  28
ATOM     28  C   UNL     1      -0.400   2.443  -6.290  0.00  0.00    +0.191 A 
ATOM     29  C   UNL     1      -0.619   3.652  -6.888  0.00  0.00    +0.054 A 
ATOM     30  C   UNL     1      -0.511   3.443  -8.272  0.00  0.00    +0.042 A 
ATOM     31  C   UNL     1      -0.235   2.133  -8.456  0.00  0.00    +0.196 A 
ATOM     32  O   UNL     1      -0.164   1.535  -7.260  0.00  0.00    -0.458 OA
ENDBRANCH  25  28
ENDBRANCH  11  24
TORSDOF 4
