REMARK  Name = ZINC49526425
REMARK  5 active torsions:
REMARK  status: ('A' for Active; 'I' for Inactive)
REMARK    1  A    between atoms: C_1  and  C_2
REMARK    2  A    between atoms: C_7  and  C_8
REMARK    3  A    between atoms: C_8  and  C_10
REMARK    4  A    between atoms: C_8  and  N_11
REMARK    5  A    between atoms: C_12  and  C_17
REMARK                            x       y       z     vdW  Elec       q    Type
REMARK                         _______ _______ _______ _____ _____    ______ ____
ROOT
ATOM      1  N   UNL     1      -1.272  -0.585   3.093  0.00  0.00    -0.294 N 
ATOM      2  C   UNL     1      -2.608  -0.320   2.896  0.00  0.00    +0.166 A 
ATOM      3  N   UNL     1      -3.254  -0.804   3.932  0.00  0.00    -0.128 NA
ATOM      4  N   UNL     1      -2.425  -1.346   4.751  0.00  0.00    -0.121 NA
ATOM      5  C   UNL     1      -1.199  -1.246   4.285  0.00  0.00    +0.203 A 
ATOM      6  S   UNL     1       0.265  -1.849   5.058  0.00  0.00    -0.009 SA
ENDROOT
BRANCH   2   7
ATOM      7  C   UNL     1      -3.203   0.379   1.738  0.00  0.00    +0.022 A 
ATOM      8  C   UNL     1      -2.419   1.185   0.903  0.00  0.00    +0.031 A 
ATOM      9  C   UNL     1      -3.016   1.818  -0.167  0.00  0.00    +0.111 A 
ATOM     10  N   UNL     1      -4.305   1.672  -0.408  0.00  0.00    -0.263 NA
ATOM     11  C   UNL     1      -5.080   0.922   0.353  0.00  0.00    +0.111 A 
ATOM     12  C   UNL     1      -4.565   0.249   1.441  0.00  0.00    +0.031 A 
ENDBRANCH   2   7
BRANCH   1  13
ATOM     13  C   UNL     1      -0.160  -0.236   2.205  0.00  0.00    +0.118 C 
ATOM     14  C   UNL     1       1.159  -0.676   2.844  0.00  0.00    +0.036 C 
BRANCH  13  21
ATOM     15  C   UNL     1      -0.944  -3.016   2.133  0.00  0.00    +0.044 C 
ATOM     16  C   UNL     1      -0.710  -2.265   0.847  0.00  0.00    -0.045 A 
ATOM     17  C   UNL     1      -0.877  -2.905  -0.367  0.00  0.00    +0.004 A 
ATOM     18  C   UNL     1      -0.663  -2.217  -1.546  0.00  0.00    +0.000 A 
ATOM     19  C   UNL     1      -0.282  -0.888  -1.511  0.00  0.00    +0.000 A 
ATOM     20  C   UNL     1      -0.117  -0.248  -0.297  0.00  0.00    +0.006 A 
ATOM     21  C   UNL     1      -0.335  -0.936   0.882  0.00  0.00    -0.022 A 
ENDBRANCH  13  21
ENDBRANCH   1  13
TORSDOF 3
