REMARK  Name = ZINC36564041
REMARK  19 active torsions:
REMARK  status: ('A' for Active; 'I' for Inactive)
REMARK    1  A    between atoms: C_1  and  C_2
REMARK    2  A    between atoms: C_2  and  C_3
REMARK    3  A    between atoms: C_3  and  C_4
REMARK    4  A    between atoms: C_4  and  C_5
REMARK    5  A    between atoms: C_5  and  C_6
REMARK    6  A    between atoms: C_7  and  C_8
REMARK    7  A    between atoms: N_10  and  C_11
REMARK    8  A    between atoms: N_10  and  C_14
REMARK    9  A    between atoms: C_11  and  C_12
REMARK   10  A    between atoms: C_12  and  C_13
REMARK   11  A    between atoms: C_14  and  C_16
REMARK   12  A    between atoms: C_14  and  C_25
REMARK   13  A    between atoms: C_19  and  O_24
REMARK   14  A    between atoms: C_20  and  O_22
REMARK   15  A    between atoms: O_22  and  C_23
REMARK   16  A    between atoms: N_27  and  C_28
REMARK   17  A    between atoms: C_28  and  C_29
REMARK   18  A    between atoms: C_29  and  C_30
REMARK   19  A    between atoms: C_30  and  C_31
REMARK                            x       y       z     vdW  Elec       q    Type
REMARK                         _______ _______ _______ _____ _____    ______ ____
ROOT
ATOM      1  C   UNL     1       0.019  -8.783  -5.055  0.00  0.00    +0.193 C 
ENDROOT
BRANCH   1   2
ATOM      2  C   UNL     1      -1.407  -8.533  -4.634  0.00  0.00    -0.015 A 
ATOM      3  C   UNL     1      -1.843  -7.241  -4.408  0.00  0.00    +0.010 A 
ATOM      4  C   UNL     1      -3.150  -7.007  -4.021  0.00  0.00    +0.049 A 
ATOM      5  C   UNL     1      -4.025  -8.069  -3.860  0.00  0.00    +0.158 A 
ATOM      6  C   UNL     1      -3.586  -9.369  -4.088  0.00  0.00    +0.162 A 
ATOM      7  C   UNL     1      -2.276  -9.597  -4.480  0.00  0.00    +0.055 A 
BRANCH   6   8
ATOM      8  O   UNL     1      -4.442 -10.415  -3.932  0.00  0.00    -0.491 OA
ATOM      9  C   UNL     1      -3.922 -11.722  -4.183  0.00  0.00    +0.277 C 
ENDBRANCH   6   8
BRANCH   5  10
ATOM     10  O   UNL     1      -5.311  -7.840  -3.479  0.00  0.00    -0.503 OA
ATOM     11  H   UNL     1      -5.921  -7.706  -4.217  0.00  0.00    +0.292 HD
ENDBRANCH   5  10
ENDBRANCH   1   2
BRANCH   1  12
ATOM     12  C   UNL     1       0.839  -7.542  -4.811  0.00  0.00    +0.238 C 
ATOM     13  O   UNL     1       1.163  -7.242  -3.682  0.00  0.00    -0.273 OA
ATOM     14  N   UNL     1       1.212  -6.766  -5.848  0.00  0.00    -0.313 N 
ATOM     15  H   UNL     1       0.953  -7.007  -6.752  0.00  0.00    +0.149 HD
BRANCH  14  16
ATOM     16  C   UNL     1       2.010  -5.561  -5.611  0.00  0.00    +0.104 C 
BRANCH  16  17
ATOM     17  C   UNL     1       2.296  -4.868  -6.945  0.00  0.00    +0.018 C 
BRANCH  17  18
ATOM     18  C   UNL     1       3.128  -3.608  -6.697  0.00  0.00    -0.002 C 
ATOM     19  C   UNL     1       3.414  -2.916  -8.031  0.00  0.00    +0.004 C 
ENDBRANCH  17  18
ENDBRANCH  16  17
ENDBRANCH  14  16
ENDBRANCH   1  12
BRANCH   1  22
ATOM     20  C   UNL     1       1.000 -11.008  -4.903  0.00  0.00    +0.240 C 
ATOM     21  O   UNL     1       0.929 -11.090  -6.114  0.00  0.00    -0.271 OA
ATOM     22  N   UNL     1       0.571  -9.894  -4.277  0.00  0.00    -0.282 N 
BRANCH  20  24
ATOM     23  C   UNL     1       1.978 -13.223  -4.739  0.00  0.00    -0.022 C 
ATOM     24  C   UNL     1       1.554 -12.123  -4.121  0.00  0.00    +0.063 C 
BRANCH  23  25
ATOM     25  C   UNL     1       2.545 -14.366  -3.938  0.00  0.00    +0.027 C 
BRANCH  25  26
ATOM     26  C   UNL     1       1.782 -15.649  -4.269  0.00  0.00    +0.004 C 
BRANCH  26  27
ATOM     27  C   UNL     1       2.358 -16.810  -3.456  0.00  0.00    +0.000 C 
BRANCH  27  29
ATOM     28  C   UNL     1       2.171 -19.255  -2.974  0.00  0.00    +0.004 C 
ATOM     29  C   UNL     1       1.595 -18.094  -3.787  0.00  0.00    -0.003 C 
ENDBRANCH  27  29
ENDBRANCH  26  27
ENDBRANCH  25  26
ENDBRANCH  23  25
ENDBRANCH  20  24
BRANCH  22  30
ATOM     30  C   UNL     1       0.656  -9.795  -2.817  0.00  0.00    +0.109 C 
BRANCH  30  31
ATOM     31  C   UNL     1       2.117  -9.605  -2.404  0.00  0.00    +0.016 C 
ATOM     32  C   UNL     1       2.189  -9.313  -0.904  0.00  0.00    +0.005 C 
ENDBRANCH  30  31
ENDBRANCH  22  30
ENDBRANCH   1  22
TORSDOF 15
