REMARK  Name = ZINC19534367
REMARK  8 active torsions:
REMARK  status: ('A' for Active; 'I' for Inactive)
REMARK    1  A    between atoms: C_1  and  C_2
REMARK    2  A    between atoms: C_2  and  C_4
REMARK    3  A    between atoms: C_2  and  N_18
REMARK    4  A    between atoms: N_6  and  C_7
REMARK    5  A    between atoms: C_10  and  O_13
REMARK    6  A    between atoms: O_13  and  C_14
REMARK    7  A    between atoms: N_21  and  S_24
REMARK    8  A    between atoms: S_24  and  C_27
REMARK                            x       y       z     vdW  Elec       q    Type
REMARK                         _______ _______ _______ _____ _____    ______ ____
ROOT
ATOM      1  C   UNL     1      -1.452  -0.189   0.105  0.00  0.00    -0.004 C 
ATOM      2  C   UNL     1       0.049   0.101   0.043  0.00  0.00    +0.017 C 
ENDROOT
BRANCH   2   3
ATOM      3  N   UNL     1       0.728  -0.591   1.147  0.00  0.00    +0.389 N 
ATOM      4  C   UNL     1       0.840  -2.031   0.875  0.00  0.00    -0.060 C 
ATOM      5  C   UNL     1       1.708  -2.685   1.956  0.00  0.00    +0.091 C 
ATOM      6  N   UNL     1       1.150  -2.342   3.273  0.00  0.00    -0.180 NA
ATOM      7  C   UNL     1       0.880  -0.927   3.568  0.00  0.00    +0.091 C 
ATOM      8  C   UNL     1       0.045  -0.342   2.424  0.00  0.00    -0.060 C 
ATOM      9  H   UNL     1       1.747  -0.185   1.227  0.00  0.00    -0.081 HD
BRANCH   6  10
ATOM     10  S   UNL     1       0.835  -3.519   4.395  0.00  0.00    +0.061 S 
ATOM     11  O   UNL     1       1.676  -4.619   4.076  0.00  0.00    -0.153 OA
ATOM     12  O   UNL     1       0.860  -2.885   5.667  0.00  0.00    -0.153 OA
BRANCH  10  13
ATOM     13  C   UNL     1      -0.821  -4.058   4.133  0.00  0.00    +0.108 A 
ATOM     14  C   UNL     1      -1.863  -3.439   4.800  0.00  0.00    +0.029 A 
ATOM     15  C   UNL     1      -3.164  -3.858   4.592  0.00  0.00    +0.005 A 
ATOM     16  C   UNL     1      -3.424  -4.903   3.725  0.00  0.00    +0.038 A 
ATOM     17  C   UNL     1      -2.381  -5.527   3.061  0.00  0.00    +0.125 A 
ATOM     18  C   UNL     1      -1.079  -5.103   3.267  0.00  0.00    +0.066 A 
ATOM     19  F   UNL     1      -2.634  -6.549   2.214  0.00  0.00    -0.205 F 
ENDBRANCH  10  13
ENDBRANCH   6  10
ENDBRANCH   2   3
BRANCH   2  20
ATOM     20  C   UNL     1       0.279   1.585   0.165  0.00  0.00    +0.203 C 
ATOM     21  O   UNL     1       0.838   2.035   1.143  0.00  0.00    -0.277 OA
ATOM     22  N   UNL     1      -0.137   2.414  -0.814  0.00  0.00    -0.287 N 
ATOM     23  H   UNL     1      -0.713   2.017  -1.663  0.00  0.00    +0.155 HD
BRANCH  22  24
ATOM     24  C   UNL     1       0.165   3.781  -0.750  0.00  0.00    +0.034 A 
ATOM     25  C   UNL     1       0.191   4.429   0.478  0.00  0.00    +0.027 A 
ATOM     26  C   UNL     1       0.493   5.775   0.541  0.00  0.00    +0.048 A 
ATOM     27  C   UNL     1       0.759   6.482  -0.623  0.00  0.00    +0.130 A 
ATOM     28  C   UNL     1       0.728   5.836  -1.850  0.00  0.00    +0.048 A 
ATOM     29  C   UNL     1       0.431   4.489  -1.914  0.00  0.00    +0.027 A 
BRANCH  27  30
ATOM     30  O   UNL     1       1.051   7.808  -0.560  0.00  0.00    -0.406 OA
BRANCH  30  31
ATOM     31  C   UNL     1       1.065   8.409   0.737  0.00  0.00    +0.575 C 
ATOM     32  F   UNL     1       2.025   7.775   1.533  0.00  0.00    -0.133 F 
ATOM     33  F   UNL     1       1.381   9.767   0.618  0.00  0.00    -0.133 F 
ATOM     34  F   UNL     1      -0.196   8.274   1.327  0.00  0.00    -0.133 F 
ENDBRANCH  30  31
ENDBRANCH  27  30
ENDBRANCH  22  24
ENDBRANCH   2  20
TORSDOF 7
