REMARK  Name = ZINC09009507
REMARK  8 active torsions:
REMARK  status: ('A' for Active; 'I' for Inactive)
REMARK    1  A    between atoms: C_1  and  C_2
REMARK    2  A    between atoms: C_7  and  C_8
REMARK    3  A    between atoms: C_14  and  C_15
REMARK    4  A    between atoms: C_17  and  C_31
REMARK    5  A    between atoms: N_18  and  C_21
REMARK    6  A    between atoms: C_19  and  C_20
REMARK    7  A    between atoms: C_23  and  N_28
REMARK    8  A    between atoms: C_26  and  C_27
REMARK                            x       y       z     vdW  Elec       q    Type
REMARK                         _______ _______ _______ _____ _____    ______ ____
ROOT
ATOM      1  C   UNL     1      -3.381   1.806   3.398  0.00  0.00    +0.130 C 
ATOM      2  N   UNL     1      -2.748   2.920   3.679  0.00  0.00    -0.164 NA
ATOM      3  N   UNL     1      -1.922   3.009   4.779  0.00  0.00    -0.152 N 
ATOM      4  C   UNL     1      -1.269   4.177   5.227  0.00  0.00    +0.153 C 
ATOM      5  N   UNL     1      -1.674   5.384   4.931  0.00  0.00    -0.283 NA
ATOM      6  C   UNL     1      -0.073   3.899   6.070  0.00  0.00    +0.081 C 
ATOM      7  C   UNL     1       1.033   4.724   6.057  0.00  0.00    +0.026 C 
ATOM      8  C   UNL     1      -0.135   2.688   6.924  0.00  0.00    +0.273 C 
ATOM      9  O   UNL     1       0.532   2.604   7.942  0.00  0.00    -0.268 OA
ATOM     10  N   UNL     1      -0.949   1.684   6.543  0.00  0.00    -0.152 NA
ATOM     11  C   UNL     1      -1.745   1.858   5.519  0.00  0.00    +0.181 C 
ATOM     12  S   UNL     1      -2.844   0.723   4.714  0.00  0.00    -0.033 S 
ATOM     13  H   UNL     1      -2.432   5.510   4.340  0.00  0.00    +0.188 HD
ENDROOT
BRANCH   1  20
ATOM     14  C   UNL     1      -3.979   3.880   1.471  0.00  0.00    +0.044 C 
ATOM     15  C   UNL     1      -4.604   2.514   1.346  0.00  0.00    -0.041 A 
ATOM     16  C   UNL     1      -5.465   2.241   0.302  0.00  0.00    +0.004 A 
ATOM     17  C   UNL     1      -6.039   0.988   0.186  0.00  0.00    +0.000 A 
ATOM     18  C   UNL     1      -5.755   0.001   1.113  0.00  0.00    +0.001 A 
ATOM     19  C   UNL     1      -4.896   0.262   2.161  0.00  0.00    +0.011 A 
ATOM     20  C   UNL     1      -4.309   1.522   2.280  0.00  0.00    +0.012 A 
ENDBRANCH   1  20
BRANCH   7  21
ATOM     21  C   UNL     1       1.120   5.778   5.113  0.00  0.00    -0.003 A 
ATOM     22  C   UNL     1       0.534   5.811   3.765  0.00  0.00    +0.031 A 
ATOM     23  C   UNL     1       0.869   6.998   3.234  0.00  0.00    +0.022 A 
ATOM     24  N   UNL     1       1.614   7.703   4.139  0.00  0.00    -0.317 N 
ATOM     25  C   UNL     1       1.771   6.990   5.273  0.00  0.00    +0.028 A 
ATOM     26  C   UNL     1       2.526   7.434   6.500  0.00  0.00    +0.064 C 
ATOM     27  C   UNL     1       0.486   7.478   1.858  0.00  0.00    +0.064 C 
BRANCH  24  28
ATOM     28  C   UNL     1       2.136   8.985   3.921  0.00  0.00    +0.052 A 
ATOM     29  C   UNL     1       1.393  10.106   4.268  0.00  0.00    +0.059 A 
ATOM     30  C   UNL     1       1.910  11.368   4.052  0.00  0.00    +0.128 A 
ATOM     31  C   UNL     1       3.166  11.516   3.491  0.00  0.00    +0.033 A 
ATOM     32  C   UNL     1       3.908  10.402   3.145  0.00  0.00    +0.007 A 
ATOM     33  C   UNL     1       3.398   9.137   3.364  0.00  0.00    -0.026 A 
ATOM     34  C   UNL     1       4.209   7.922   2.991  0.00  0.00    +0.046 C 
BRANCH  30  35
ATOM     35  N   UNL     1       1.120  12.564   4.421  0.00  0.00    +0.056 N 
ATOM     36  O   UNL     1       0.022  12.435   4.910  0.00  0.00    -0.126 OA
ATOM     37  O   UNL     1       1.572  13.669   4.232  0.00  0.00    -0.126 OA
ENDBRANCH  30  35
ENDBRANCH  24  28
ENDBRANCH   7  21
TORSDOF 4
