REMARK  Name = ZINC19107166
REMARK  6 active torsions:
REMARK  status: ('A' for Active; 'I' for Inactive)
REMARK    1  A    between atoms: C_5  and  N_7
REMARK    2  A    between atoms: C_8  and  C_10
REMARK    3  A    between atoms: C_10  and  S_11
REMARK    4  A    between atoms: S_11  and  C_12
REMARK    5  A    between atoms: C_15  and  C_18
REMARK    6  A    between atoms: N_16  and  N_17
REMARK                            x       y       z     vdW  Elec       q    Type
REMARK                         _______ _______ _______ _____ _____    ______ ____
ROOT
ATOM      1  C   UNL     1       0.022  -0.823  -1.091  0.00  0.00    +0.209 A 
ATOM      2  N   UNL     1       0.055  -2.060  -0.650  0.00  0.00    -0.121 NA
ATOM      3  N   UNL     1       0.076  -2.070   0.635  0.00  0.00    -0.127 NA
ATOM      4  C   UNL     1       0.064  -0.840   1.093  0.00  0.00    +0.183 A 
ATOM      5  N   UNL     1       0.032  -0.003   0.001  0.00  0.00    -0.224 N 
ENDROOT
BRANCH   4   6
ATOM      6  C   UNL     1       0.081  -0.431   2.513  0.00  0.00    +0.039 A 
ATOM      7  C   UNL     1       0.072   0.923   2.853  0.00  0.00    +0.014 A 
ATOM      8  C   UNL     1       0.083   1.299   4.180  0.00  0.00    +0.021 A 
ATOM      9  C   UNL     1       0.114   0.336   5.175  0.00  0.00    +0.042 A 
ATOM     10  C   UNL     1       0.129  -1.008   4.846  0.00  0.00    +0.040 A 
ATOM     11  C   UNL     1       0.113  -1.397   3.521  0.00  0.00    +0.053 A 
ATOM     12 CL   UNL     1       0.133  -3.083   3.109  0.00  0.00    -0.083 Cl
ATOM     13 CL   UNL     1       0.135   0.818   6.843  0.00  0.00    -0.083 Cl
ENDBRANCH   4   6
BRANCH   5  14
ATOM     14  N   UNL     1       0.010   1.363   0.009  0.00  0.00    -0.295 N 
ATOM     15  H   UNL     1       0.946   1.740  -0.005  0.00  0.00    +0.163 HD
ATOM     16  H   UNL     1      -0.534   1.720  -0.762  0.00  0.00    +0.163 HD
ENDBRANCH   5  14
BRANCH   1  17
ATOM     17  S   UNL     1      -0.022  -0.315  -2.778  0.00  0.00    -0.075 S 
BRANCH  17  18
ATOM     18  C   UNL     1      -0.013  -1.932  -3.593  0.00  0.00    +0.173 C 
BRANCH  18  20
ATOM     19  N   UNL     1      -0.048  -2.814  -5.904  0.00  0.00    -0.283 N 
ATOM     20  C   UNL     1      -0.048  -1.741  -5.087  0.00  0.00    +0.228 C 
ATOM     21  O   UNL     1      -0.077  -0.623  -5.556  0.00  0.00    -0.275 OA
ATOM     22  H   UNL     1       0.041  -3.706  -5.533  0.00  0.00    +0.155 HD
BRANCH  19  27
ATOM     23  C   UNL     1       0.269  -1.356  -9.264  0.00  0.00    +0.004 A 
ATOM     24  C   UNL     1      -0.395  -2.229 -10.059  0.00  0.00    +0.031 A 
ATOM     25  C   UNL     1      -1.001  -3.385  -9.498  0.00  0.00    +0.102 A 
ATOM     26  C   UNL     1      -0.885  -3.603  -8.060  0.00  0.00    +0.121 A 
ATOM     27  C   UNL     1      -0.177  -2.641  -7.283  0.00  0.00    +0.062 A 
ATOM     28  C   UNL     1       0.379  -1.556  -7.890  0.00  0.00    +0.025 A 
ATOM     29  N   UNL     1      -1.492  -4.722  -7.673  0.00  0.00    -0.189 NA
ATOM     30  S   UNL     1      -2.095  -5.364  -8.969  0.00  0.00    +0.117 S 
ATOM     31  N   UNL     1      -1.690  -4.354 -10.097  0.00  0.00    -0.191 NA
ENDBRANCH  19  27
ENDBRANCH  18  20
ENDBRANCH  17  18
ENDBRANCH   1  17
TORSDOF 6
