REMARK  Name = ZINC39889454
REMARK  3 active torsions:
REMARK  status: ('A' for Active; 'I' for Inactive)
REMARK    1  A    between atoms: C_1  and  C_2
REMARK    2  A    between atoms: C_3  and  C_32
REMARK    3  A    between atoms: N_28  and  C_31
REMARK                            x       y       z     vdW  Elec       q    Type
REMARK                         _______ _______ _______ _____ _____    ______ ____
ROOT
ATOM      1  C   UNL     1      -0.018   1.503   0.010  0.00  0.00    +0.066 C 
ATOM      2  C   UNL     1       0.002  -0.004   0.002  0.00  0.00    +0.050 A 
ATOM      3  C   UNL     1       0.006  -0.706  -1.158  0.00  0.00    +0.011 A 
ATOM      4  S   UNL     1       0.032  -2.379  -0.535  0.00  0.00    -0.057 S 
ATOM      5  C   UNL     1       0.035  -2.015   1.108  0.00  0.00    +0.169 A 
ATOM      6  N   UNL     1       0.023  -0.699   1.124  0.00  0.00    -0.229 NA
ATOM      7  N   UNL     1       0.052  -2.890   2.185  0.00  0.00    -0.220 N 
ATOM      8  C   UNL     1       0.076  -4.239   2.115  0.00  0.00    +0.289 C 
ATOM      9  O   UNL     1       0.088  -4.882   1.084  0.00  0.00    -0.266 OA
ATOM     10  C   UNL     1       0.086  -4.816   3.470  0.00  0.00    +0.200 A 
ATOM     11  C   UNL     1       0.071  -3.789   4.374  0.00  0.00    +0.085 A 
ATOM     12  C   UNL     1       0.080  -4.054   5.816  0.00  0.00    +0.199 A 
ATOM     13  O   UNL     1      -0.101  -3.188   6.654  0.00  0.00    -0.287 OA
ATOM     14  C   UNL     1       0.332  -5.477   6.159  0.00  0.00    +0.064 A 
ATOM     15  C   UNL     1       0.561  -5.854   7.482  0.00  0.00    +0.015 A 
ATOM     16  C   UNL     1       0.797  -7.167   7.781  0.00  0.00    +0.001 A 
ATOM     17  C   UNL     1       0.809  -8.122   6.774  0.00  0.00    +0.004 A 
ATOM     18  C   UNL     1       0.581  -7.768   5.463  0.00  0.00    +0.047 A 
ATOM     19  C   UNL     1       0.335  -6.435   5.133  0.00  0.00    +0.139 A 
ATOM     20  O   UNL     1       0.102  -6.111   3.841  0.00  0.00    -0.450 OA
ATOM     21  C   UNL     1       0.054  -2.515   3.604  0.00  0.00    +0.180 C 
ATOM     22  C   UNL     1       1.210  -1.627   3.932  0.00  0.00    +0.011 A 
ATOM     23  C   UNL     1       2.571  -1.825   3.845  0.00  0.00    +0.008 A 
ATOM     24  C   UNL     1       3.390  -0.772   4.238  0.00  0.00    +0.000 A 
ATOM     25  C   UNL     1       2.860   0.418   4.693  0.00  0.00    +0.002 A 
ATOM     26  C   UNL     1       1.492   0.626   4.783  0.00  0.00    +0.024 A 
ATOM     27  C   UNL     1       0.660  -0.424   4.393  0.00  0.00    +0.042 A 
ATOM     28  N   UNL     1      -0.723  -0.492   4.381  0.00  0.00    -0.272 N 
ATOM     29  C   UNL     1      -1.167  -1.685   3.932  0.00  0.00    +0.253 C 
ATOM     30  O   UNL     1      -2.325  -2.026   3.815  0.00  0.00    -0.272 OA
ATOM     31  C   UNL     1      -1.600   0.602   4.804  0.00  0.00    +0.138 C 
ATOM     32  C   UNL     1      -0.008  -0.211  -2.582  0.00  0.00    +0.053 C 
ENDROOT
TORSDOF 0
