REMARK  Name = ZINC59247897
REMARK  10 active torsions:
REMARK  status: ('A' for Active; 'I' for Inactive)
REMARK    1  A    between atoms: C_1  and  C_2
REMARK    2  A    between atoms: C_7  and  N_8
REMARK    3  A    between atoms: C_9  and  C_11
REMARK    4  A    between atoms: C_11  and  C_32
REMARK    5  A    between atoms: C_12  and  C_13
REMARK    6  A    between atoms: C_15  and  C_31
REMARK    7  A    between atoms: N_16  and  C_19
REMARK    8  A    between atoms: C_17  and  C_18
REMARK    9  A    between atoms: C_21  and  C_28
REMARK   10  A    between atoms: C_23  and  C_25
REMARK                            x       y       z     vdW  Elec       q    Type
REMARK                         _______ _______ _______ _____ _____    ______ ____
ROOT
ATOM      1  C   UNL     1      -0.100  -2.075   5.935  0.00  0.00    -0.003 A 
ATOM      2  C   UNL     1       0.007  -2.958   4.764  0.00  0.00    +0.031 A 
ATOM      3  C   UNL     1      -0.019  -4.216   5.234  0.00  0.00    +0.022 A 
ATOM      4  N   UNL     1      -0.133  -4.186   6.596  0.00  0.00    -0.317 N 
ATOM      5  C   UNL     1      -0.177  -2.913   7.036  0.00  0.00    +0.028 A 
ATOM      6  C   UNL     1      -0.293  -2.477   8.473  0.00  0.00    +0.064 C 
ATOM      7  C   UNL     1       0.063  -5.463   4.392  0.00  0.00    +0.064 C 
ENDROOT
BRANCH   4   8
ATOM      8  C   UNL     1      -0.189  -5.319   7.419  0.00  0.00    +0.048 A 
ATOM      9  C   UNL     1      -1.342  -5.594   8.139  0.00  0.00    +0.041 A 
ATOM     10  C   UNL     1      -1.403  -6.723   8.961  0.00  0.00    +0.066 A 
ATOM     11  C   UNL     1      -0.302  -7.573   9.056  0.00  0.00    +0.030 A 
ATOM     12  C   UNL     1       0.855  -7.294   8.330  0.00  0.00    +0.066 A 
ATOM     13  C   UNL     1       0.906  -6.166   7.507  0.00  0.00    +0.041 A 
BRANCH  12  14
ATOM     14  C   UNL     1       2.023  -8.191   8.428  0.00  0.00    +0.387 C 
ATOM     15  O   UNL     1       1.977  -9.180   9.146  0.00  0.00    -0.241 OA
ATOM     16  O   UNL     1       3.038  -7.945   7.791  0.00  0.00    -0.241 OA
ENDBRANCH  12  14
BRANCH  10  17
ATOM     17  C   UNL     1      -2.630  -7.013   9.728  0.00  0.00    +0.387 C 
ATOM     18  O   UNL     1      -3.595  -6.266   9.644  0.00  0.00    -0.241 OA
ATOM     19  O   UNL     1      -2.682  -8.001  10.447  0.00  0.00    -0.241 OA
ENDBRANCH  10  17
ENDBRANCH   4   8
BRANCH   1  21
ATOM     20  C   UNL     1       0.766   0.044   5.136  0.00  0.00    +0.114 C 
ATOM     21  C   UNL     1      -0.114  -0.657   5.938  0.00  0.00    +0.033 C 
BRANCH  20  23
ATOM     22  N   UNL     1       2.612  -0.012   3.541  0.00  0.00    -0.281 N 
ATOM     23  C   UNL     1       1.850  -0.664   4.442  0.00  0.00    +0.259 C 
ATOM     24  O   UNL     1       2.060  -1.839   4.679  0.00  0.00    -0.269 OA
ATOM     25  H   UNL     1       2.489   0.940   3.401  0.00  0.00    +0.155 HD
BRANCH  22  32
ATOM     26  C   UNL     1       3.127   0.814   0.868  0.00  0.00    +0.045 C 
ATOM     27  C   UNL     1       3.863  -0.338   1.502  0.00  0.00    -0.029 A 
ATOM     28  C   UNL     1       4.824  -1.023   0.784  0.00  0.00    +0.005 A 
ATOM     29  C   UNL     1       5.500  -2.080   1.365  0.00  0.00    +0.000 A 
ATOM     30  C   UNL     1       5.216  -2.454   2.666  0.00  0.00    +0.002 A 
ATOM     31  C   UNL     1       4.257  -1.773   3.389  0.00  0.00    +0.023 A 
ATOM     32  C   UNL     1       3.580  -0.707   2.810  0.00  0.00    +0.037 A 
ENDBRANCH  22  32
ENDBRANCH  20  23
BRANCH  20  33
ATOM     33  C   UNL     1       0.622   1.460   4.982  0.00  0.00    +0.104 C 
ATOM     34  N   UNL     1       0.507   2.584   4.860  0.00  0.00    -0.191 NA
ENDBRANCH  20  33
ENDBRANCH   1  21
TORSDOF 7
