REMARK  Name = ZINC32985025
REMARK  5 active torsions:
REMARK  status: ('A' for Active; 'I' for Inactive)
REMARK    1  A    between atoms: C_4  and  N_7
REMARK    2  A    between atoms: C_8  and  C_10
REMARK    3  A    between atoms: C_12  and  S_16
REMARK    4  A    between atoms: S_16  and  N_19
REMARK    5  A    between atoms: N_19  and  C_20
REMARK                            x       y       z     vdW  Elec       q    Type
REMARK                         _______ _______ _______ _____ _____    ______ ____
ROOT
ATOM      1  C   UNL     1       4.930  -2.703   0.151  0.00  0.00    +0.122 A 
ATOM      2  C   UNL     1       5.120  -4.071   0.247  0.00  0.00    +0.083 A 
ATOM      3  C   UNL     1       6.504  -4.249   0.309  0.00  0.00    +0.220 A 
ATOM      4  N   UNL     1       7.063  -3.067   0.252  0.00  0.00    -0.153 NA
ATOM      5  N   UNL     1       6.176  -2.144   0.155  0.00  0.00    -0.271 N 
ATOM      6  H   UNL     1       6.363  -1.194   0.095  0.00  0.00    +0.189 HD
ENDROOT
BRANCH   1   8
ATOM      7  N   UNL     1       3.621  -0.650  -0.037  0.00  0.00    -0.280 N 
ATOM      8  C   UNL     1       3.644  -1.994   0.057  0.00  0.00    +0.266 C 
ATOM      9  O   UNL     1       2.602  -2.622   0.065  0.00  0.00    -0.268 OA
ATOM     10  H   UNL     1       4.452  -0.155  -0.111  0.00  0.00    +0.155 HD
BRANCH   7  14
ATOM     11  C   UNL     1      -0.018   1.378  -0.014  0.00  0.00    +0.000 A 
ATOM     12  C   UNL     1       1.092   1.944   0.587  0.00  0.00    +0.002 A 
ATOM     13  C   UNL     1       2.300   1.274   0.581  0.00  0.00    +0.023 A 
ATOM     14  C   UNL     1       2.399   0.030  -0.029  0.00  0.00    +0.034 A 
ATOM     15  C   UNL     1       1.283  -0.536  -0.631  0.00  0.00    +0.023 A 
ATOM     16  C   UNL     1       0.078   0.139  -0.622  0.00  0.00    +0.002 A 
ENDBRANCH   7  14
ENDBRANCH   1   8
BRANCH   3  17
ATOM     17  S   UNL     1       7.346  -5.791   0.441  0.00  0.00    +0.111 S 
ATOM     18  O   UNL     1       7.619  -5.987   1.822  0.00  0.00    -0.147 OA
ATOM     19  O   UNL     1       6.605  -6.726  -0.330  0.00  0.00    -0.147 OA
BRANCH  17  20
ATOM     20  N   UNL     1       8.811  -5.614  -0.310  0.00  0.00    -0.096 NA
BRANCH  20  21
ATOM     21  C   UNL     1       9.704  -6.688  -0.362  0.00  0.00    +0.074 A 
ATOM     22  C   UNL     1       9.361  -7.906   0.211  0.00  0.00    +0.028 A 
ATOM     23  C   UNL     1      10.245  -8.965   0.158  0.00  0.00    +0.017 A 
ATOM     24  C   UNL     1      11.472  -8.814  -0.465  0.00  0.00    +0.018 A 
ATOM     25  C   UNL     1      11.816  -7.602  -1.037  0.00  0.00    +0.017 A 
ATOM     26  C   UNL     1      10.933  -6.541  -0.993  0.00  0.00    +0.028 A 
ATOM     27 BR   UNL     1      12.680 -10.267  -0.534  0.00  0.00    -0.050 Br
ENDBRANCH  20  21
ENDBRANCH  17  20
ENDBRANCH   3  17
TORSDOF 5
