REMARK  Name = ZINC06510195
REMARK  6 active torsions:
REMARK  status: ('A' for Active; 'I' for Inactive)
REMARK    1  A    between atoms: C_10  and  N_54
REMARK    2  A    between atoms: C_12  and  C_13
REMARK    3  A    between atoms: C_12  and  N_54
REMARK    4  A    between atoms: C_13  and  C_14
REMARK    5  A    between atoms: N_16  and  C_17
REMARK    6  A    between atoms: C_18  and  C_27
REMARK                            x       y       z     vdW  Elec       q    Type
REMARK                         _______ _______ _______ _____ _____    ______ ____
ROOT
ATOM      1  C   UNL     1      -1.416  -0.504   0.293  0.00  0.00    +0.216 C 
ATOM      2  O   UNL     1      -2.336   0.279   0.406  0.00  0.00    -0.276 OA
ATOM      3  N   UNL     1      -1.655  -1.830   0.308  0.00  0.00    -0.279 N 
ATOM      4  H   UNL     1      -0.919  -2.456   0.217  0.00  0.00    +0.155 HD
ENDROOT
BRANCH   3   5
ATOM      5  C   UNL     1      -2.953  -2.300   0.452  0.00  0.00    +0.090 A 
ATOM      6  C   UNL     1      -3.394  -3.613   0.490  0.00  0.00    +0.084 A 
ATOM      7  C   UNL     1      -4.822  -3.844   0.655  0.00  0.00    -0.018 A 
ATOM      8  C   UNL     1      -5.573  -2.725   0.745  0.00  0.00    -0.004 A 
ATOM      9  S   UNL     1      -4.414  -1.389   0.636  0.00  0.00    -0.077 S 
ATOM     10  C   UNL     1      -7.058  -2.629   0.902  0.00  0.00    +0.043 C 
ATOM     11  C   UNL     1      -7.507  -3.558   2.038  0.00  0.00    +0.005 C 
ATOM     12  C   UNL     1      -7.805  -4.934   1.448  0.00  0.00    +0.001 C 
ATOM     13  C   UNL     1      -6.873  -5.214   0.271  0.00  0.00    +0.005 C 
ATOM     14  C   UNL     1      -5.421  -5.243   0.735  0.00  0.00    +0.037 C 
BRANCH   6  15
ATOM     15  C   UNL     1      -2.476  -4.706   0.370  0.00  0.00    +0.102 C 
ATOM     16  N   UNL     1      -1.748  -5.573   0.276  0.00  0.00    -0.191 NA
ENDBRANCH   6  15
ENDBRANCH   3   5
BRANCH   1  17
ATOM     17  C   UNL     1      -0.007   0.007   0.137  0.00  0.00    +0.077 C 
BRANCH  17  18
ATOM     18  C   UNL     1      -0.014   1.537   0.153  0.00  0.00    -0.073 C 
BRANCH  18  19
ATOM     19  N   UNL     1       1.368   2.028  -0.000  0.00  0.00    +0.384 N 
ATOM     20  H   UNL     1       1.920   1.746   0.818  0.00  0.00    -0.085 HD
ATOM     21  H   UNL     1       1.781   1.621  -0.848  0.00  0.00    -0.085 HD
BRANCH  19  31
ATOM     22  C   UNL     1       5.123   4.893   1.416  0.00  0.00    +0.000 A 
ATOM     23  C   UNL     1       4.428   3.884   2.057  0.00  0.00    +0.000 A 
ATOM     24  C   UNL     1       3.223   3.450   1.545  0.00  0.00    +0.002 A 
ATOM     25  C   UNL     1       2.702   4.017   0.389  0.00  0.00    -0.058 A 
ATOM     26  C   UNL     1       3.396   5.019  -0.251  0.00  0.00    -0.046 A 
ATOM     27  C   UNL     1       4.608   5.456   0.267  0.00  0.00    +0.004 A 
ATOM     28  C   UNL     1       2.895   5.674  -1.512  0.00  0.00    +0.035 C 
ATOM     29  C   UNL     1       1.404   5.404  -1.702  0.00  0.00    +0.003 C 
ATOM     30  C   UNL     1       1.165   3.896  -1.571  0.00  0.00    -0.011 C 
ATOM     31  C   UNL     1       1.379   3.499  -0.112  0.00  0.00    -0.041 C 
ENDBRANCH  19  31
ENDBRANCH  18  19
ENDBRANCH  17  18
ENDBRANCH   1  17
TORSDOF 6
