REMARK  Name = ZINC04925329
REMARK  21 active torsions:
REMARK  status: ('A' for Active; 'I' for Inactive)
REMARK    1  A    between atoms: C_1  and  C_2
REMARK    2  A    between atoms: C_2  and  C_3
REMARK    3  A    between atoms: C_3  and  C_4
REMARK    4  A    between atoms: C_4  and  C_5
REMARK    5  A    between atoms: C_5  and  C_7
REMARK    6  A    between atoms: C_5  and  C_9
REMARK    7  A    between atoms: C_7  and  C_8
REMARK    8  A    between atoms: N_11  and  C_12
REMARK    9  A    between atoms: N_11  and  C_17
REMARK   10  A    between atoms: C_12  and  C_13
REMARK   11  A    between atoms: C_13  and  C_14
REMARK   12  A    between atoms: C_14  and  O_15
REMARK   13  A    between atoms: O_15  and  C_16
REMARK   14  A    between atoms: C_17  and  C_18
REMARK   15  A    between atoms: N_20  and  C_21
REMARK   16  A    between atoms: N_20  and  C_25
REMARK   17  A    between atoms: C_21  and  C_22
REMARK   18  A    between atoms: C_22  and  O_23
REMARK   19  A    between atoms: O_23  and  C_24
REMARK   20  A    between atoms: C_25  and  C_26
REMARK   21  A    between atoms: N_30  and  C_31
REMARK                            x       y       z     vdW  Elec       q    Type
REMARK                         _______ _______ _______ _____ _____    ______ ____
ROOT
ATOM      1  C   UNL     1      -0.470   5.898   4.189  0.00  0.00    +0.219 C 
ATOM      2  O   UNL     1      -1.581   6.186   4.581  0.00  0.00    -0.275 OA
ATOM      3  N   UNL     1       0.107   4.747   4.585  0.00  0.00    -0.292 N 
ENDROOT
BRANCH   3   4
ATOM      4  C   UNL     1       1.490   4.450   4.200  0.00  0.00    +0.203 C 
BRANCH   4   5
ATOM      5  C   UNL     1       1.495   3.656   2.919  0.00  0.00    +0.233 C 
ATOM      6  O   UNL     1       0.448   3.367   2.381  0.00  0.00    -0.274 OA
ATOM      7  N   UNL     1       2.664   3.268   2.373  0.00  0.00    -0.292 N 
BRANCH   7   8
ATOM      8  C   UNL     1       2.670   2.497   1.127  0.00  0.00    +0.161 C 
BRANCH   8   9
ATOM      9  C   UNL     1       2.764   1.027   1.448  0.00  0.00    +0.036 A 
ATOM     10  C   UNL     1       3.896   0.295   1.480  0.00  0.00    +0.024 A 
ATOM     11  C   UNL     1       3.536  -1.024   1.820  0.00  0.00    +0.019 A 
ATOM     12  C   UNL     1       2.197  -1.048   1.983  0.00  0.00    +0.085 A 
ATOM     13  N   UNL     1       1.718   0.208   1.755  0.00  0.00    -0.352 N 
ATOM     14  C   UNL     1       0.311   0.611   1.829  0.00  0.00    +0.148 C 
ENDBRANCH   8   9
ENDBRANCH   7   8
BRANCH   7  15
ATOM     15  C   UNL     1       3.930   3.618   3.023  0.00  0.00    +0.136 C 
BRANCH  15  16
ATOM     16  C   UNL     1       4.489   4.896   2.396  0.00  0.00    +0.178 C 
BRANCH  16  17
ATOM     17  O   UNL     1       3.608   5.987   2.671  0.00  0.00    -0.381 OA
ATOM     18  C   UNL     1       4.041   7.236   2.126  0.00  0.00    +0.194 C 
ENDBRANCH  16  17
ENDBRANCH  15  16
ENDBRANCH   7  15
ENDBRANCH   4   5
ENDBRANCH   3   4
BRANCH   3  19
ATOM     19  C   UNL     1      -0.647   3.791   5.399  0.00  0.00    +0.110 C 
BRANCH  19  20
ATOM     20  C   UNL     1      -0.532   4.176   6.875  0.00  0.00    +0.047 C 
BRANCH  20  21
ATOM     21  C   UNL     1      -1.215   3.111   7.735  0.00  0.00    +0.161 C 
BRANCH  21  22
ATOM     22  O   UNL     1      -1.107   3.471   9.114  0.00  0.00    -0.383 OA
ATOM     23  C   UNL     1      -1.717   2.537  10.008  0.00  0.00    +0.193 C 
ENDBRANCH  21  22
ENDBRANCH  20  21
ENDBRANCH  19  20
ENDBRANCH   3  19
BRANCH   1  24
ATOM     24  C   UNL     1       0.265   6.829   3.260  0.00  0.00    +0.075 C 
BRANCH  24  25
ATOM     25  C   UNL     1       0.074   6.364   1.815  0.00  0.00    +0.009 C 
ATOM     26  C   UNL     1      -1.418   6.356   1.474  0.00  0.00    +0.004 C 
ENDBRANCH  24  25
BRANCH  24  27
ATOM     27  C   UNL     1      -0.288   8.247   3.416  0.00  0.00    +0.013 C 
BRANCH  27  28
ATOM     28  C   UNL     1       0.541   9.214   2.567  0.00  0.00    +0.000 C 
BRANCH  28  30
ATOM     29  C   UNL     1       0.898  11.614   1.972  0.00  0.00    +0.004 C 
ATOM     30  C   UNL     1       0.070  10.648   2.821  0.00  0.00    -0.003 C 
ENDBRANCH  28  30
ENDBRANCH  27  28
ENDBRANCH  24  27
ENDBRANCH   1  24
TORSDOF 16
