REMARK  Name = ZINC09272141
REMARK  3 active torsions:
REMARK  status: ('A' for Active; 'I' for Inactive)
REMARK    1  A    between atoms: C_15  and  C_17
REMARK    2  A    between atoms: C_17  and  C_19
REMARK    3  A    between atoms: N_28  and  C_31
REMARK                            x       y       z     vdW  Elec       q    Type
REMARK                         _______ _______ _______ _____ _____    ______ ____
ROOT
ATOM      1  C   UNL     1      -2.689   2.936  -3.132  0.00  0.00    +0.001 A 
ATOM      2  C   UNL     1      -3.276   2.694  -1.903  0.00  0.00    +0.000 A 
ATOM      3  C   UNL     1      -2.543   2.114  -0.881  0.00  0.00    +0.006 A 
ATOM      4  C   UNL     1      -1.225   1.776  -1.087  0.00  0.00    -0.021 A 
ATOM      5  C   UNL     1      -0.623   2.013  -2.329  0.00  0.00    -0.019 A 
ATOM      6  C   UNL     1      -1.369   2.599  -3.352  0.00  0.00    +0.008 A 
ATOM      7  C   UNL     1       0.790   1.644  -2.555  0.00  0.00    +0.022 C 
ATOM      8  C   UNL     1       1.592   1.418  -1.496  0.00  0.00    +0.054 C 
ATOM      9  C   UNL     1      -0.399   1.149   0.005  0.00  0.00    +0.100 C 
ATOM     10  C   UNL     1      -0.784   1.673   1.394  0.00  0.00    +0.113 C 
ATOM     11  C   UNL     1       0.576   1.874   2.113  0.00  0.00    +0.116 C 
ATOM     12  C   UNL     1       1.586   2.081   0.976  0.00  0.00    +0.141 C 
ATOM     13  C   UNL     1       0.773   0.517   2.754  0.00  0.00    +0.232 C 
ATOM     14  O   UNL     1       1.828   0.056   3.133  0.00  0.00    -0.274 OA
ATOM     15  N   UNL     1      -0.423  -0.089   2.831  0.00  0.00    -0.210 N 
ATOM     16  C   UNL     1      -1.409   0.557   2.188  0.00  0.00    +0.232 C 
ATOM     17  O   UNL     1      -2.588   0.284   2.239  0.00  0.00    -0.274 OA
ATOM     18  N   UNL     1       1.039   1.209  -0.098  0.00  0.00    -0.384 NA
ATOM     19  H   UNL     1       1.354   0.264   0.150  0.00  0.00    +0.127 HD
ENDROOT
BRANCH  15  20
ATOM     20  C   UNL     1      -0.626  -1.292   3.522  0.00  0.00    +0.044 A 
ATOM     21  C   UNL     1      -0.495  -1.330   4.904  0.00  0.00    +0.025 A 
ATOM     22  C   UNL     1      -0.701  -2.515   5.583  0.00  0.00    +0.022 A 
ATOM     23  C   UNL     1      -1.024  -3.666   4.887  0.00  0.00    +0.041 A 
ATOM     24  C   UNL     1      -1.149  -3.632   3.509  0.00  0.00    +0.022 A 
ATOM     25  C   UNL     1      -0.951  -2.448   2.826  0.00  0.00    +0.025 A 
ATOM     26 CL   UNL     1      -1.274  -5.156   5.743  0.00  0.00    -0.084 Cl
ENDBRANCH  15  20
BRANCH  12  27
ATOM     27  C   UNL     1       2.871   1.362   1.296  0.00  0.00    +0.183 C 
ATOM     28  O   UNL     1       3.142   0.324   0.731  0.00  0.00    -0.290 OA
BRANCH  27  29
ATOM     29  C   UNL     1       3.796   1.919   2.295  0.00  0.00    +0.019 A 
ATOM     30  C   UNL     1       3.488   3.119   2.946  0.00  0.00    +0.013 A 
ATOM     31  C   UNL     1       4.357   3.632   3.885  0.00  0.00    +0.020 A 
ATOM     32  C   UNL     1       5.537   2.968   4.177  0.00  0.00    +0.041 A 
ATOM     33  C   UNL     1       5.851   1.782   3.533  0.00  0.00    +0.020 A 
ATOM     34  C   UNL     1       4.989   1.254   2.595  0.00  0.00    +0.013 A 
ATOM     35 CL   UNL     1       6.629   3.625   5.356  0.00  0.00    -0.084 Cl
ENDBRANCH  27  29
ENDBRANCH  12  27
TORSDOF 3
