REMARK  Name = ZINC25047335
REMARK  6 active torsions:
REMARK  status: ('A' for Active; 'I' for Inactive)
REMARK    1  A    between atoms: C_1  and  C_2
REMARK    2  A    between atoms: C_11  and  S_22
REMARK    3  A    between atoms: C_13  and  C_15
REMARK    4  A    between atoms: C_15  and  N_16
REMARK    5  A    between atoms: S_22  and  C_23
REMARK    6  A    between atoms: C_26  and  C_29
REMARK                            x       y       z     vdW  Elec       q    Type
REMARK                         _______ _______ _______ _____ _____    ______ ____
ROOT
ATOM      1  C   UNL     1       3.571   2.081   1.278  0.00  0.00    +0.008 C 
ATOM      2  C   UNL     1       2.215   1.386   1.134  0.00  0.00    -0.009 C 
ATOM      3  C   UNL     1       1.420   2.038  -0.001  0.00  0.00    +0.008 C 
ATOM      4  C   UNL     1      -0.019   1.522   0.010  0.00  0.00    +0.037 C 
ATOM      5  C   UNL     1       0.002  -0.004   0.002  0.00  0.00    -0.025 A 
ATOM      6  C   UNL     1       1.119  -0.678   0.360  0.00  0.00    -0.004 A 
ATOM      7  S   UNL     1       0.699  -2.396   0.205  0.00  0.00    -0.073 S 
ATOM      8  C   UNL     1      -0.969  -2.212  -0.336  0.00  0.00    +0.113 A 
ATOM      9  C   UNL     1      -1.148  -0.806  -0.381  0.00  0.00    +0.043 A 
ATOM     10  C   UNL     1      -2.427  -0.334  -0.794  0.00  0.00    +0.115 A 
ATOM     11  N   UNL     1      -3.323  -1.273  -1.094  0.00  0.00    -0.223 NA
ATOM     12  C   UNL     1      -3.084  -2.567  -1.028  0.00  0.00    +0.145 A 
ATOM     13  N   UNL     1      -1.915  -3.073  -0.652  0.00  0.00    -0.223 NA
ATOM     14  C   UNL     1       2.429  -0.096   0.794  0.00  0.00    +0.046 C 
ENDROOT
BRANCH  12  15
ATOM     15  C   UNL     1      -4.192  -3.519  -1.398  0.00  0.00    +0.160 C 
BRANCH  15  16
ATOM     16  N   UNL     1      -4.980  -3.841  -0.201  0.00  0.00    -0.291 NA
ATOM     17  C   UNL     1      -4.180  -4.605   0.768  0.00  0.00    +0.113 C 
ATOM     18  C   UNL     1      -5.019  -4.867   2.021  0.00  0.00    +0.175 C 
ATOM     19  O   UNL     1      -6.219  -5.552   1.651  0.00  0.00    -0.377 OA
ATOM     20  C   UNL     1      -7.023  -4.836   0.709  0.00  0.00    +0.175 C 
ATOM     21  C   UNL     1      -6.204  -4.574  -0.557  0.00  0.00    +0.113 C 
ENDBRANCH  15  16
ENDBRANCH  12  15
BRANCH  10  22
ATOM     22  S   UNL     1      -2.801   1.385  -0.899  0.00  0.00    -0.048 S 
BRANCH  22  23
ATOM     23  C   UNL     1      -4.475   1.301  -1.445  0.00  0.00    +0.121 A 
ATOM     24  C   UNL     1      -5.190   2.476  -1.661  0.00  0.00    +0.074 A 
ATOM     25  C   UNL     1      -6.502   2.394  -2.094  0.00  0.00    +0.036 A 
ATOM     26  C   UNL     1      -7.059   1.137  -2.287  0.00  0.00    +0.074 A 
ATOM     27  C   UNL     1      -6.293   0.014  -2.049  0.00  0.00    +0.124 A 
ATOM     28  N   UNL     1      -5.043   0.121  -1.641  0.00  0.00    -0.246 NA
ATOM     29 CL   UNL     1      -4.445   4.021  -1.396  0.00  0.00    -0.081 Cl
BRANCH  26  30
ATOM     30  C   UNL     1      -8.486   1.000  -2.753  0.00  0.00    +0.419 C 
ATOM     31  F   UNL     1      -8.810  -0.356  -2.872  0.00  0.00    -0.166 F 
ATOM     32  F   UNL     1      -9.340   1.604  -1.823  0.00  0.00    -0.166 F 
ATOM     33  F   UNL     1      -8.633   1.625  -3.996  0.00  0.00    -0.166 F 
ENDBRANCH  26  30
ENDBRANCH  22  23
ENDBRANCH  10  22
TORSDOF 5
