REMARK  Name = ZINC36276380
REMARK  6 active torsions:
REMARK  status: ('A' for Active; 'I' for Inactive)
REMARK    1  A    between atoms: C_5  and  N_7
REMARK    2  A    between atoms: C_8  and  C_10
REMARK    3  A    between atoms: C_10  and  O_11
REMARK    4  A    between atoms: O_11  and  C_12
REMARK    5  A    between atoms: C_19  and  C_21
REMARK    6  A    between atoms: C_24  and  N_27
REMARK                            x       y       z     vdW  Elec       q    Type
REMARK                         _______ _______ _______ _____ _____    ______ ____
ROOT
ATOM      1  C   UNL     1      -1.367  -6.123   0.400  0.00  0.00    +0.162 A 
ATOM      2  C   UNL     1      -0.274  -6.939   0.405  0.00  0.00    +0.051 A 
ATOM      3  C   UNL     1      -0.445  -8.329   0.512  0.00  0.00    +0.022 A 
ATOM      4  C   UNL     1      -1.682  -8.858   0.609  0.00  0.00    +0.093 A 
ATOM      5  N   UNL     1      -2.788  -8.054   0.604  0.00  0.00    -0.305 N 
ATOM      6  C   UNL     1      -2.656  -6.693   0.508  0.00  0.00    +0.159 A 
ATOM      7  N   UNL     1      -3.866  -6.155   0.534  0.00  0.00    -0.337 N 
ATOM      8  C   UNL     1      -4.779  -7.131   0.651  0.00  0.00    +0.065 A 
ATOM      9  C   UNL     1      -4.125  -8.326   0.687  0.00  0.00    +0.119 A 
ATOM     10  H   UNL     1      -4.061  -5.206   0.477  0.00  0.00    +0.167 HD
ENDROOT
BRANCH   8  11
ATOM     11  C   UNL     1      -6.250  -6.944   0.716  0.00  0.00    -0.000 A 
ATOM     12  C   UNL     1      -6.793  -5.662   0.649  0.00  0.00    +0.012 A 
ATOM     13  C   UNL     1      -8.160  -5.489   0.709  0.00  0.00    +0.023 A 
ATOM     14  C   UNL     1      -8.996  -6.593   0.836  0.00  0.00    +0.025 A 
ATOM     15  C   UNL     1      -8.456  -7.872   0.903  0.00  0.00    +0.023 A 
ATOM     16  C   UNL     1      -7.090  -8.049   0.838  0.00  0.00    +0.012 A 
BRANCH  14  17
ATOM     17  N   UNL     1     -10.379  -6.416   0.897  0.00  0.00    -0.358 N 
ATOM     18  H   UNL     1     -10.757  -5.524   0.851  0.00  0.00    +0.142 HD
ATOM     19  H   UNL     1     -10.963  -7.186   0.986  0.00  0.00    +0.142 HD
ENDBRANCH  14  17
ENDBRANCH   8  11
BRANCH   1  20
ATOM     20  O   UNL     1      -1.218  -4.776   0.297  0.00  0.00    -0.479 OA
BRANCH  20  21
ATOM     21  C   UNL     1       0.117  -4.277   0.192  0.00  0.00    +0.325 C 
BRANCH  21  23
ATOM     22  N   UNL     1       1.236  -2.081  -0.022  0.00  0.00    -0.280 N 
ATOM     23  C   UNL     1       0.085  -2.774   0.087  0.00  0.00    +0.255 C 
ATOM     24  O   UNL     1      -0.977  -2.187   0.102  0.00  0.00    -0.272 OA
ATOM     25  H   UNL     1       2.079  -2.552  -0.115  0.00  0.00    +0.155 HD
BRANCH  22  30
ATOM     26  C   UNL     1       0.153   1.372   0.637  0.00  0.00    +0.002 A 
ATOM     27  C   UNL     1       1.173   2.087   0.036  0.00  0.00    +0.003 A 
ATOM     28  C   UNL     1       2.214   1.423  -0.585  0.00  0.00    +0.040 A 
ATOM     29  C   UNL     1       2.239   0.040  -0.607  0.00  0.00    +0.144 A 
ATOM     30  C   UNL     1       1.215  -0.681  -0.002  0.00  0.00    +0.069 A 
ATOM     31  C   UNL     1       0.172  -0.009   0.620  0.00  0.00    +0.026 A 
ATOM     32  F   UNL     1       3.256  -0.609  -1.214  0.00  0.00    -0.204 F 
ENDBRANCH  22  30
ENDBRANCH  21  23
ENDBRANCH  20  21
ENDBRANCH   1  20
TORSDOF 6
