REMARK  Name = ZINC33039640
REMARK  5 active torsions:
REMARK  status: ('A' for Active; 'I' for Inactive)
REMARK    1  A    between atoms: C_1  and  N_2
REMARK    2  A    between atoms: C_13  and  S_15
REMARK    3  A    between atoms: S_15  and  C_16
REMARK    4  A    between atoms: C_16  and  C_17
REMARK    5  A    between atoms: N_19  and  C_20
REMARK                            x       y       z     vdW  Elec       q    Type
REMARK                         _______ _______ _______ _____ _____    ______ ____
ROOT
ATOM      1  C   UNL     1      -1.728   7.651  -1.672  0.00  0.00    +0.157 C 
ATOM      2  N   UNL     1      -1.581   6.545  -0.722  0.00  0.00    -0.205 N 
ATOM      3  C   UNL     1      -2.679   5.763  -0.353  0.00  0.00    +0.062 A 
ATOM      4  C   UNL     1      -3.934   6.363  -0.325  0.00  0.00    +0.045 A 
ATOM      5  C   UNL     1      -5.048   5.631   0.034  0.00  0.00    +0.043 A 
ATOM      6  C   UNL     1      -4.921   4.292   0.369  0.00  0.00    +0.021 A 
ATOM      7  C   UNL     1      -3.686   3.685   0.345  0.00  0.00    +0.013 A 
ATOM      8  C   UNL     1      -2.546   4.413  -0.017  0.00  0.00    +0.025 A 
ATOM      9  C   UNL     1      -1.244   3.711  -0.027  0.00  0.00    +0.104 A 
ATOM     10  C   UNL     1      -0.041   4.421  -0.039  0.00  0.00    +0.153 A 
ATOM     11  C   UNL     1       1.153   3.740  -0.044  0.00  0.00    +0.144 A 
ATOM     12  N   UNL     1       1.128   2.413  -0.039  0.00  0.00    -0.228 NA
ATOM     13  C   UNL     1      -0.024   1.756  -0.029  0.00  0.00    +0.189 A 
ATOM     14  N   UNL     1      -1.193   2.380  -0.029  0.00  0.00    -0.220 NA
ATOM     15  S   UNL     1      -0.102   6.184  -0.048  0.00  0.00    +0.078 S 
ATOM     16  O   UNL     1      -0.147   6.606   1.308  0.00  0.00    -0.150 OA
ATOM     17  O   UNL     1       0.893   6.630  -0.960  0.00  0.00    -0.150 OA
ATOM     18 CL   UNL     1      -6.610   6.388   0.065  0.00  0.00    -0.083 Cl
ENDROOT
BRANCH  13  19
ATOM     19  S   UNL     1       0.001  -0.005  -0.025  0.00  0.00    -0.077 S 
BRANCH  19  20
ATOM     20  C   UNL     1       1.788  -0.295  -0.036  0.00  0.00    +0.173 C 
BRANCH  20  21
ATOM     21  C   UNL     1       2.056  -1.778  -0.035  0.00  0.00    +0.228 C 
ATOM     22  O   UNL     1       1.131  -2.562  -0.026  0.00  0.00    -0.275 OA
ATOM     23  N   UNL     1       3.325  -2.232  -0.042  0.00  0.00    -0.282 N 
ATOM     24  H   UNL     1       4.163  -1.524  -0.123  0.00  0.00    +0.155 HD
BRANCH  23  25
ATOM     25  C   UNL     1       3.577  -3.607   0.054  0.00  0.00    +0.072 A 
ATOM     26  C   UNL     1       2.708  -4.515  -0.533  0.00  0.00    +0.064 A 
ATOM     27  C   UNL     1       2.962  -5.872  -0.441  0.00  0.00    +0.125 A 
ATOM     28  C   UNL     1       4.076  -6.324   0.246  0.00  0.00    +0.041 A 
ATOM     29  C   UNL     1       4.941  -5.421   0.837  0.00  0.00    +0.043 A 
ATOM     30  C   UNL     1       4.695  -4.064   0.743  0.00  0.00    +0.145 A 
ATOM     31  F   UNL     1       5.540  -3.182   1.321  0.00  0.00    -0.204 F 
ATOM     32  F   UNL     1       2.119  -6.757  -1.017  0.00  0.00    -0.205 F 
ENDBRANCH  23  25
ENDBRANCH  20  21
ENDBRANCH  19  20
ENDBRANCH  13  19
TORSDOF 4
