REMARK  Name = ZINC06149410
REMARK  14 active torsions:
REMARK  status: ('A' for Active; 'I' for Inactive)
REMARK    1  A    between atoms: C_1  and  C_2
REMARK    2  A    between atoms: C_2  and  C_3
REMARK    3  A    between atoms: C_3  and  C_4
REMARK    4  A    between atoms: C_3  and  C_5
REMARK    5  A    between atoms: C_3  and  N_6
REMARK    6  A    between atoms: C_7  and  C_11
REMARK    7  A    between atoms: C_11  and  C_13
REMARK    8  A    between atoms: C_11  and  N_69
REMARK    9  A    between atoms: C_17  and  C_26
REMARK   10  A    between atoms: C_19  and  C_25
REMARK   11  A    between atoms: C_27  and  C_28
REMARK   12  A    between atoms: C_27  and  N_69
REMARK   13  A    between atoms: C_33  and  C_34
REMARK   14  A    between atoms: C_33  and  N_69
REMARK                            x       y       z     vdW  Elec       q    Type
REMARK                         _______ _______ _______ _____ _____    ______ ____
ROOT
ATOM      1  C   UNL     1      -0.300  -0.120   0.048  0.00  0.00    +0.040 C 
ENDROOT
BRANCH   1   2
ATOM      2  C   UNL     1       0.442  -0.367   1.336  0.00  0.00    +0.011 A 
ATOM      3  C   UNL     1       1.299  -1.414   1.432  0.00  0.00    +0.017 A 
ATOM      4  C   UNL     1       2.008  -1.623   2.696  0.00  0.00    -0.001 A 
ATOM      5  C   UNL     1       2.907  -2.683   2.854  0.00  0.00    +0.013 A 
ATOM      6  C   UNL     1       3.549  -2.855   4.048  0.00  0.00    -0.050 A 
ATOM      7  C   UNL     1       3.316  -1.987   5.106  0.00  0.00    +0.008 A 
ATOM      8  C   UNL     1       2.435  -0.935   4.973  0.00  0.00    -0.026 A 
ATOM      9  C   UNL     1       1.770  -0.741   3.766  0.00  0.00    +0.052 A 
ATOM     10  N   UNL     1       0.882   0.301   3.606  0.00  0.00    -0.322 N 
ATOM     11  H   UNL     1       0.714   0.927   4.367  0.00  0.00    +0.169 HD
ATOM     12  C   UNL     1       0.239   0.489   2.440  0.00  0.00    +0.251 A 
ATOM     13  O   UNL     1      -0.538   1.421   2.333  0.00  0.00    -0.268 OA
ATOM     14  C   UNL     1       2.193  -0.000   6.129  0.00  0.00    +0.046 C 
ATOM     15  C   UNL     1       4.517  -3.997   4.218  0.00  0.00    +0.044 C 
ENDBRANCH   1   2
BRANCH   1  17
ATOM     16  N   UNL     1      -2.548  -1.288  -0.248  0.00  0.00    -0.225 N 
ATOM     17  C   UNL     1      -1.777  -0.317   0.274  0.00  0.00    +0.143 A 
ATOM     18  N   UNL     1      -2.559   0.422   1.022  0.00  0.00    -0.115 NA
ATOM     19  N   UNL     1      -3.750  -0.065   0.956  0.00  0.00    -0.023 NA
ATOM     20  N   UNL     1      -3.746  -1.101   0.192  0.00  0.00    -0.043 NA
BRANCH  16  21
ATOM     21  C   UNL     1      -2.109  -2.358  -1.148  0.00  0.00    +0.061 C 
ATOM     22  C   UNL     1      -1.563  -1.746  -2.440  0.00  0.00    +0.036 C 
ATOM     23  C   UNL     1      -1.010  -3.178  -0.468  0.00  0.00    +0.036 C 
BRANCH  21  25
ATOM     24  C   UNL     1      -2.836  -4.385  -2.416  0.00  0.00    +0.006 C 
ATOM     25  C   UNL     1      -3.295  -3.268  -1.476  0.00  0.00    +0.026 C 
ENDBRANCH  21  25
ENDBRANCH  16  21
ENDBRANCH   1  17
BRANCH   1  26
ATOM     26  N   UNL     1      -0.063   1.273  -0.384  0.00  0.00    +0.397 N 
ATOM     27  H   UNL     1      -0.428   1.911   0.332  0.00  0.00    -0.079 HD
BRANCH  26  28
ATOM     28  C   UNL     1       1.387   1.512  -0.545  0.00  0.00    -0.001 C 
BRANCH  28  29
ATOM     29  C   UNL     1       1.974   0.548  -1.544  0.00  0.00    +0.089 A 
ATOM     30  C   UNL     1       2.159   0.788  -2.854  0.00  0.00    +0.042 A 
ATOM     31  C   UNL     1       2.730  -0.380  -3.409  0.00  0.00    +0.041 A 
ATOM     32  C   UNL     1       2.861  -1.265  -2.404  0.00  0.00    +0.195 A 
ATOM     33  O   UNL     1       2.406  -0.695  -1.275  0.00  0.00    -0.470 OA
ENDBRANCH  28  29
ENDBRANCH  26  28
BRANCH  26  34
ATOM     34  C   UNL     1      -0.762   1.532  -1.660  0.00  0.00    -0.034 C 
BRANCH  34  35
ATOM     35  C   UNL     1      -0.818   3.021  -1.888  0.00  0.00    -0.027 A 
ATOM     36  C   UNL     1       0.007   3.803  -2.627  0.00  0.00    +0.009 A 
ATOM     37  C   UNL     1      -0.239   5.161  -2.694  0.00  0.00    +0.008 A 
ATOM     38  C   UNL     1      -1.298   5.671  -2.019  0.00  0.00    +0.045 A 
ATOM     39  S   UNL     1      -1.991   4.211  -1.261  0.00  0.00    -0.103 S 
ENDBRANCH  34  35
ENDBRANCH  26  34
ENDBRANCH   1  26
TORSDOF 9
