REMARK  Name = ZINC03249014
REMARK  10 active torsions:
REMARK  status: ('A' for Active; 'I' for Inactive)
REMARK    1  A    between atoms: C_1  and  O_2
REMARK    2  A    between atoms: O_2  and  C_3
REMARK    3  A    between atoms: C_8  and  N_9
REMARK    4  A    between atoms: C_10  and  C_12
REMARK    5  A    between atoms: C_15  and  N_18
REMARK    6  A    between atoms: C_19  and  C_21
REMARK    7  A    between atoms: C_21  and  S_22
REMARK    8  A    between atoms: S_22  and  C_23
REMARK    9  A    between atoms: C_26  and  C_35
REMARK   10  A    between atoms: N_27  and  C_28
REMARK                            x       y       z     vdW  Elec       q    Type
REMARK                         _______ _______ _______ _____ _____    ______ ____
ROOT
ATOM      1  N   UNL     1      -2.671  -7.021  -3.800  0.00  0.00    -0.285 N 
ATOM      2  C   UNL     1      -2.725  -8.366  -3.726  0.00  0.00    +0.227 C 
ATOM      3  O   UNL     1      -2.111  -8.951  -2.859  0.00  0.00    -0.275 OA
ATOM      4  H   UNL     1      -3.100  -6.558  -4.537  0.00  0.00    +0.155 HD
ENDROOT
BRANCH   1   8
ATOM      5  C   UNL     1      -0.661  -4.853  -0.866  0.00  0.00    +0.037 A 
ATOM      6  C   UNL     1      -1.335  -6.031  -0.529  0.00  0.00    +0.015 A 
ATOM      7  C   UNL     1      -1.998  -6.744  -1.501  0.00  0.00    +0.024 A 
ATOM      8  C   UNL     1      -1.998  -6.295  -2.818  0.00  0.00    +0.033 A 
ATOM      9  C   UNL     1      -1.329  -5.124  -3.157  0.00  0.00    +0.024 A 
ATOM     10  C   UNL     1      -0.668  -4.402  -2.188  0.00  0.00    +0.015 A 
BRANCH   5  12
ATOM     11  N   UNL     1       0.058  -4.523   1.449  0.00  0.00    -0.279 N 
ATOM     12  C   UNL     1       0.052  -4.086   0.174  0.00  0.00    +0.248 C 
ATOM     13  O   UNL     1       0.633  -3.059  -0.120  0.00  0.00    -0.270 OA
ATOM     14  H   UNL     1      -0.338  -5.380   1.670  0.00  0.00    +0.155 HD
BRANCH  11  20
ATOM     15  C   UNL     1       1.056  -4.328   3.645  0.00  0.00    +0.141 A 
ATOM     16  C   UNL     1       1.633  -3.549   4.635  0.00  0.00    +0.047 A 
ATOM     17  C   UNL     1       1.786  -2.188   4.442  0.00  0.00    +0.004 A 
ATOM     18  C   UNL     1       1.365  -1.601   3.263  0.00  0.00    +0.002 A 
ATOM     19  C   UNL     1       0.789  -2.372   2.271  0.00  0.00    +0.027 A 
ATOM     20  C   UNL     1       0.637  -3.739   2.455  0.00  0.00    +0.076 A 
BRANCH  15  22
ATOM     21  C   UNL     1       1.359  -6.202   5.079  0.00  0.00    +0.277 C 
ATOM     22  O   UNL     1       0.906  -5.666   3.833  0.00  0.00    -0.493 OA
ENDBRANCH  15  22
ENDBRANCH  11  20
ENDBRANCH   5  12
ENDBRANCH   1   8
BRANCH   2  23
ATOM     23  C   UNL     1      -3.549  -9.143  -4.720  0.00  0.00    +0.173 C 
BRANCH  23  24
ATOM     24  S   UNL     1      -3.420 -10.916  -4.359  0.00  0.00    -0.076 S 
BRANCH  24  25
ATOM     25  C   UNL     1      -4.424 -11.676  -5.591  0.00  0.00    +0.197 A 
ATOM     26  N   UNL     1      -5.093 -11.061  -6.541  0.00  0.00    -0.122 NA
ATOM     27  N   UNL     1      -5.720 -11.918  -7.266  0.00  0.00    -0.128 NA
ATOM     28  C   UNL     1      -5.491 -13.133  -6.824  0.00  0.00    +0.169 A 
ATOM     29  N   UNL     1      -4.649 -13.017  -5.740  0.00  0.00    -0.270 N 
BRANCH  29  30
ATOM     30  C   UNL     1      -4.133 -14.057  -4.953  0.00  0.00    +0.051 A 
ATOM     31  C   UNL     1      -3.255 -14.979  -5.507  0.00  0.00    +0.029 A 
ATOM     32  C   UNL     1      -2.748 -16.002  -4.730  0.00  0.00    +0.040 A 
ATOM     33  C   UNL     1      -3.114 -16.108  -3.399  0.00  0.00    +0.124 A 
ATOM     34  C   UNL     1      -3.989 -15.189  -2.844  0.00  0.00    +0.040 A 
ATOM     35  C   UNL     1      -4.494 -14.162  -3.616  0.00  0.00    +0.029 A 
ATOM     36  F   UNL     1      -2.618 -17.110  -2.641  0.00  0.00    -0.205 F 
ENDBRANCH  29  30
BRANCH  28  37
ATOM     37  C   UNL     1      -6.032 -14.388  -7.387  0.00  0.00    +0.020 A 
ATOM     38  C   UNL     1      -5.974 -15.570  -6.647  0.00  0.00    +0.011 A 
ATOM     39  C   UNL     1      -6.480 -16.738  -7.178  0.00  0.00    +0.001 A 
ATOM     40  C   UNL     1      -7.044 -16.740  -8.442  0.00  0.00    +0.000 A 
ATOM     41  C   UNL     1      -7.104 -15.572  -9.181  0.00  0.00    +0.001 A 
ATOM     42  C   UNL     1      -6.607 -14.396  -8.659  0.00  0.00    +0.011 A 
ENDBRANCH  28  37
ENDBRANCH  24  25
ENDBRANCH  23  24
ENDBRANCH   2  23
TORSDOF 9
