REMARK  Name = ZINC39361321
REMARK  6 active torsions:
REMARK  status: ('A' for Active; 'I' for Inactive)
REMARK    1  A    between atoms: C_1  and  C_2
REMARK    2  A    between atoms: C_5  and  N_8
REMARK    3  A    between atoms: C_13  and  C_27
REMARK    4  A    between atoms: C_30  and  O_35
REMARK    5  A    between atoms: C_31  and  O_33
REMARK    6  A    between atoms: O_33  and  C_34
REMARK                            x       y       z     vdW  Elec       q    Type
REMARK                         _______ _______ _______ _____ _____    ______ ____
ROOT
ATOM      1  N   UNL     1       0.382  -4.163  -0.129  0.00  0.00    -0.209 N 
ATOM      2  C   UNL     1       0.326  -4.890   1.002  0.00  0.00    +0.231 C 
ATOM      3  O   UNL     1       0.430  -4.464   2.133  0.00  0.00    -0.274 OA
ATOM      4  C   UNL     1       0.110  -6.337   0.607  0.00  0.00    +0.107 C 
ATOM      5  C   UNL     1       0.842  -7.279   1.531  0.00  0.00    +0.052 C 
ATOM      6  C   UNL     1       2.322  -6.892   1.585  0.00  0.00    +0.114 C 
ATOM      7  C   UNL     1       2.903  -7.328   0.233  0.00  0.00    +0.080 C 
ATOM      8  N   UNL     1       3.964  -8.070   0.339  0.00  0.00    -0.197 NA
ATOM      9  C   UNL     1       4.475  -8.524   1.496  0.00  0.00    +0.132 C 
ATOM     10  S   UNL     1       5.961  -9.329   1.769  0.00  0.00    -0.026 S 
ATOM     11  S   UNL     1       3.205  -8.052   2.710  0.00  0.00    -0.090 S 
ATOM     12  S   UNL     1       2.195  -6.904  -1.208  0.00  0.00    -0.098 S 
ATOM     13  C   UNL     1       0.535  -6.365  -0.849  0.00  0.00    +0.151 C 
ATOM     14  C   UNL     1       0.388  -4.901  -1.252  0.00  0.00    +0.240 C 
ATOM     15  O   UNL     1       0.296  -4.478  -2.384  0.00  0.00    -0.274 OA
ENDROOT
BRANCH   1  20
ATOM     16  C   UNL     1       0.548   1.510  -0.155  0.00  0.00    +0.044 C 
ATOM     17  C   UNL     1       0.504   0.004  -0.148  0.00  0.00    -0.050 A 
ATOM     18  C   UNL     1       0.647  -0.697  -1.332  0.00  0.00    +0.005 A 
ATOM     19  C   UNL     1       0.607  -2.077  -1.329  0.00  0.00    +0.024 A 
ATOM     20  C   UNL     1       0.423  -2.762  -0.135  0.00  0.00    +0.044 A 
ATOM     21  C   UNL     1       0.280  -2.057   1.052  0.00  0.00    +0.024 A 
ATOM     22  C   UNL     1       0.326  -0.676   1.043  0.00  0.00    +0.005 A 
ENDBRANCH   1  20
BRANCH   5  23
ATOM     23  C   UNL     1       0.710  -8.690   1.018  0.00  0.00    -0.038 A 
ATOM     24  C   UNL     1       1.336  -9.727   1.684  0.00  0.00    +0.008 A 
ATOM     25  C   UNL     1       1.218 -11.023   1.217  0.00  0.00    +0.049 A 
ATOM     26  C   UNL     1       0.470 -11.285   0.081  0.00  0.00    +0.158 A 
ATOM     27  C   UNL     1      -0.161 -10.241  -0.589  0.00  0.00    +0.162 A 
ATOM     28  C   UNL     1      -0.042  -8.945  -0.114  0.00  0.00    +0.053 A 
BRANCH  27  29
ATOM     29  O   UNL     1      -0.896 -10.492  -1.705  0.00  0.00    -0.491 OA
ATOM     30  C   UNL     1      -1.515  -9.372  -2.341  0.00  0.00    +0.277 C 
ENDBRANCH  27  29
BRANCH  26  31
ATOM     31  O   UNL     1       0.353 -12.559  -0.380  0.00  0.00    -0.503 OA
ATOM     32  H   UNL     1      -0.400 -13.042  -0.013  0.00  0.00    +0.292 HD
ENDBRANCH  26  31
ENDBRANCH   5  23
TORSDOF 4
