REMARK  Name = ZINC20432513
REMARK  4 active torsions:
REMARK  status: ('A' for Active; 'I' for Inactive)
REMARK    1  A    between atoms: C_3  and  N_9
REMARK    2  A    between atoms: C_6  and  N_7
REMARK    3  A    between atoms: N_9  and  S_10
REMARK    4  A    between atoms: S_10  and  C_13
REMARK                            x       y       z     vdW  Elec       q    Type
REMARK                         _______ _______ _______ _____ _____    ______ ____
ROOT
ATOM      1  N   UNL     1      -4.872   3.687   0.047  0.00  0.00    -0.096 NA
ENDROOT
BRANCH   1   4
ATOM      2  C   UNL     1      -1.335   2.774  -0.383  0.00  0.00    +0.025 A 
ATOM      3  C   UNL     1      -2.475   3.534  -0.210  0.00  0.00    +0.030 A 
ATOM      4  C   UNL     1      -3.716   2.917  -0.133  0.00  0.00    +0.093 A 
ATOM      5  C   UNL     1      -3.811   1.534  -0.234  0.00  0.00    +0.067 A 
ATOM      6  C   UNL     1      -2.671   0.775  -0.412  0.00  0.00    +0.044 A 
ATOM      7  C   UNL     1      -1.430   1.393  -0.489  0.00  0.00    +0.026 A 
ATOM      8 CL   UNL     1      -5.362   0.761  -0.137  0.00  0.00    -0.081 Cl
BRANCH   7   9
ATOM      9  N   UNL     1      -0.274   0.624  -0.668  0.00  0.00    -0.358 N 
ATOM     10  H   UNL     1      -0.349  -0.470  -0.752  0.00  0.00    +0.142 HD
ATOM     11  H   UNL     1       0.710   1.114  -0.725  0.00  0.00    +0.142 HD
ENDBRANCH   7   9
ENDBRANCH   1   4
BRANCH   1  12
ATOM     12  S   UNL     1      -4.991   5.180  -0.661  0.00  0.00    +0.092 S 
ATOM     13  O   UNL     1      -6.310   5.645  -0.408  0.00  0.00    -0.148 OA
ATOM     14  O   UNL     1      -3.837   5.909  -0.267  0.00  0.00    -0.148 OA
BRANCH  12  15
ATOM     15  C   UNL     1      -4.866   4.942  -2.402  0.00  0.00    +0.113 A 
ATOM     16  C   UNL     1      -3.630   4.981  -3.018  0.00  0.00    +0.049 A 
ATOM     17  C   UNL     1      -3.530   4.789  -4.385  0.00  0.00    +0.044 A 
ATOM     18  C   UNL     1      -4.670   4.568  -5.136  0.00  0.00    +0.040 A 
ATOM     19  C   UNL     1      -5.909   4.534  -4.520  0.00  0.00    +0.044 A 
ATOM     20  C   UNL     1      -6.006   4.721  -3.153  0.00  0.00    +0.049 A 
ATOM     21 CL   UNL     1      -7.340   4.256  -5.462  0.00  0.00    -0.083 Cl
ATOM     22 CL   UNL     1      -1.976   4.831  -5.157  0.00  0.00    -0.083 Cl
ENDBRANCH  12  15
ENDBRANCH   1  12
TORSDOF 4
