REMARK  Name = ZINC43616008
REMARK  4 active torsions:
REMARK  status: ('A' for Active; 'I' for Inactive)
REMARK    1  A    between atoms: C_1  and  C_2
REMARK    2  A    between atoms: C_7  and  C_8
REMARK    3  A    between atoms: C_10  and  C_13
REMARK    4  A    between atoms: C_13  and  C_14
REMARK                            x       y       z     vdW  Elec       q    Type
REMARK                         _______ _______ _______ _____ _____    ______ ____
ROOT
ATOM      1  C   UNL     1       0.242   0.018   2.479  0.00  0.00    +0.221 A 
ATOM      2  N   UNL     1       0.468  -0.539   3.682  0.00  0.00    -0.190 NA
ATOM      3  C   UNL     1       0.511   0.384   4.600  0.00  0.00    +0.229 A 
ATOM      4  O   UNL     1       0.313   1.573   4.016  0.00  0.00    -0.338 OA
ATOM      5  N   UNL     1       0.144   1.315   2.630  0.00  0.00    -0.054 NA
ENDROOT
BRANCH   1  12
ATOM      6  C   UNL     1      -0.498   1.455   0.080  0.00  0.00    +0.046 C 
ATOM      7  C   UNL     1      -0.229  -0.027   0.036  0.00  0.00    -0.021 A 
ATOM      8  C   UNL     1      -0.326  -0.723  -1.158  0.00  0.00    +0.007 A 
ATOM      9  C   UNL     1      -0.068  -2.086  -1.152  0.00  0.00    +0.020 A 
ATOM     10  C   UNL     1       0.276  -2.706   0.036  0.00  0.00    +0.111 A 
ATOM     11  N   UNL     1       0.360  -2.020   1.157  0.00  0.00    -0.251 NA
ATOM     12  C   UNL     1       0.128  -0.715   1.192  0.00  0.00    +0.114 A 
ENDBRANCH   1  12
BRANCH   3  13
ATOM     13  C   UNL     1       0.743   0.152   6.071  0.00  0.00    +0.114 C 
BRANCH  13  14
ATOM     14  C   UNL     1       2.244   0.210   6.365  0.00  0.00    +0.118 C 
ATOM     15 CL   UNL     1       2.522  -0.066   8.125  0.00  0.00    -0.125 Cl
ENDBRANCH  13  14
ENDBRANCH   3  13
TORSDOF 3
