REMARK  Name = ZINC08691477
REMARK  3 active torsions:
REMARK  status: ('A' for Active; 'I' for Inactive)
REMARK    1  A    between atoms: C_13  and  C_26
REMARK    2  A    between atoms: C_15  and  C_17
REMARK    3  A    between atoms: C_17  and  C_19
REMARK                            x       y       z     vdW  Elec       q    Type
REMARK                         _______ _______ _______ _____ _____    ______ ____
ROOT
ATOM      1  C   UNL     1      -0.017   1.375   0.010  0.00  0.00    +0.001 A 
ATOM      2  C   UNL     1       1.168   2.090   0.002  0.00  0.00    +0.000 A 
ATOM      3  C   UNL     1       2.383   1.426  -0.010  0.00  0.00    +0.006 A 
ATOM      4  C   UNL     1       2.415   0.051  -0.017  0.00  0.00    -0.016 A 
ATOM      5  C   UNL     1       1.223  -0.683  -0.014  0.00  0.00    -0.000 A 
ATOM      6  C   UNL     1       0.002  -0.004   0.002  0.00  0.00    +0.010 A 
ATOM      7  C   UNL     1       1.248  -2.159  -0.036  0.00  0.00    +0.138 C 
ATOM      8  N   UNL     1       2.344  -2.796   0.283  0.00  0.00    -0.191 NA
ATOM      9  N   UNL     1       3.456  -2.009   0.610  0.00  0.00    -0.235 N 
ATOM     10  C   UNL     1       3.723  -0.698  -0.024  0.00  0.00    +0.146 C 
ATOM     11  C   UNL     1       4.777  -0.001   0.834  0.00  0.00    +0.132 C 
ATOM     12  C   UNL     1       4.838  -0.824   2.137  0.00  0.00    +0.108 C 
ATOM     13  C   UNL     1       4.486  -2.250   1.625  0.00  0.00    +0.176 C 
ATOM     14  C   UNL     1       6.120   0.028   0.154  0.00  0.00    +0.180 C 
ATOM     15  O   UNL     1       6.753  -0.929  -0.236  0.00  0.00    -0.291 OA
ATOM     16  C   UNL     1       6.512   1.435   0.054  0.00  0.00    +0.029 A 
ATOM     17  C   UNL     1       7.670   1.994  -0.494  0.00  0.00    +0.012 A 
ATOM     18  C   UNL     1       7.785   3.377  -0.455  0.00  0.00    +0.001 A 
ATOM     19  C   UNL     1       6.806   4.178   0.098  0.00  0.00    +0.001 A 
ATOM     20  C   UNL     1       5.645   3.650   0.649  0.00  0.00    +0.012 A 
ATOM     21  C   UNL     1       5.505   2.259   0.623  0.00  0.00    +0.029 A 
ATOM     22  C   UNL     1       4.406   1.429   1.121  0.00  0.00    +0.180 C 
ATOM     23  O   UNL     1       3.393   1.819   1.661  0.00  0.00    -0.291 OA
ENDROOT
BRANCH  12  24
ATOM     24  C   UNL     1       6.222  -0.790   2.733  0.00  0.00    +0.112 A 
ATOM     25  C   UNL     1       6.541  -0.325   3.954  0.00  0.00    +0.045 A 
ATOM     26  C   UNL     1       7.938  -0.483   4.101  0.00  0.00    +0.041 A 
ATOM     27  C   UNL     1       8.389  -1.035   2.960  0.00  0.00    +0.195 A 
ATOM     28  O   UNL     1       7.344  -1.225   2.138  0.00  0.00    -0.467 OA
ENDBRANCH  12  24
BRANCH  13  29
ATOM     29  C   UNL     1       3.939  -3.095   2.746  0.00  0.00    +0.186 C 
ATOM     30  O   UNL     1       2.743  -3.268   2.846  0.00  0.00    -0.290 OA
BRANCH  29  31
ATOM     31  C   UNL     1       4.854  -3.711   3.717  0.00  0.00    +0.020 A 
ATOM     32  C   UNL     1       6.235  -3.509   3.607  0.00  0.00    +0.014 A 
ATOM     33  C   UNL     1       7.088  -4.088   4.521  0.00  0.00    +0.039 A 
ATOM     34  C   UNL     1       6.581  -4.871   5.548  0.00  0.00    +0.123 A 
ATOM     35  C   UNL     1       5.213  -5.075   5.662  0.00  0.00    +0.039 A 
ATOM     36  C   UNL     1       4.349  -4.496   4.759  0.00  0.00    +0.014 A 
ATOM     37  F   UNL     1       7.422  -5.437   6.440  0.00  0.00    -0.205 F 
ENDBRANCH  29  31
ENDBRANCH  13  29
TORSDOF 3
