REMARK  Name = ZINC63738745
REMARK  6 active torsions:
REMARK  status: ('A' for Active; 'I' for Inactive)
REMARK    1  A    between atoms: C_1  and  C_2
REMARK    2  A    between atoms: C_2  and  C_4
REMARK    3  A    between atoms: C_2  and  C_24
REMARK    4  A    between atoms: C_10  and  C_12
REMARK    5  A    between atoms: C_18  and  O_22
REMARK    6  A    between atoms: O_22  and  C_23
REMARK                            x       y       z     vdW  Elec       q    Type
REMARK                         _______ _______ _______ _____ _____    ______ ____
ROOT
ATOM      1  C   UNL     1       0.847  -0.517   1.173  0.00  0.00    +0.004 C 
ATOM      2  C   UNL     1       0.871  -2.047   1.158  0.00  0.00    +0.023 C 
ATOM      3  C   UNL     1       1.747  -2.551   2.310  0.00  0.00    +0.108 C 
ATOM      4  N   UNL     1       1.258  -1.967   3.566  0.00  0.00    -0.300 N 
ATOM      5  C   UNL     1       1.110  -0.508   3.657  0.00  0.00    +0.108 C 
ATOM      6  C   UNL     1       0.241  -0.027   2.490  0.00  0.00    +0.023 C 
ATOM      7  C   UNL     1       0.951  -2.755   4.616  0.00  0.00    +0.242 C 
ATOM      8  O   UNL     1       1.077  -3.958   4.528  0.00  0.00    -0.273 OA
ENDROOT
BRANCH   7   9
ATOM      9  C   UNL     1       0.450  -2.141   5.898  0.00  0.00    +0.190 C 
ATOM     10  C   UNL     1       1.508  -1.237   6.490  0.00  0.00    +0.016 C 
ATOM     11  C   UNL     1       1.807  -1.752   7.703  0.00  0.00    -0.003 A 
ATOM     12  C   UNL     1       2.746  -1.337   8.753  0.00  0.00    +0.013 A 
ATOM     13  C   UNL     1       2.829  -2.069   9.885  0.00  0.00    +0.046 A 
ATOM     14  C   UNL     1       2.039  -3.217  10.082  0.00  0.00    +0.122 A 
ATOM     15  C   UNL     1       1.151  -3.659   9.156  0.00  0.00    +0.071 A 
ATOM     16  C   UNL     1       0.986  -2.963   7.932  0.00  0.00    +0.047 A 
ATOM     17  N   UNL     1       0.206  -3.187   6.897  0.00  0.00    -0.370 N 
ATOM     18  H   UNL     1      -0.423  -3.919   6.809  0.00  0.00    +0.161 HD
BRANCH  14  19
ATOM     19  O   UNL     1       2.170  -3.908  11.242  0.00  0.00    -0.495 OA
ATOM     20  C   UNL     1       3.115  -3.410  12.190  0.00  0.00    +0.277 C 
ENDBRANCH  14  19
ENDBRANCH   7   9
BRANCH   1  22
ATOM     21  C   UNL     1      -0.022   1.521   0.017  0.00  0.00    +0.017 C 
ATOM     22  C   UNL     1       0.001  -0.009   0.003  0.00  0.00    +0.075 C 
BRANCH  22  23
ATOM     23  C   UNL     1       0.597  -0.491  -1.294  0.00  0.00    +0.219 C 
ATOM     24  O   UNL     1       1.778  -0.759  -1.356  0.00  0.00    -0.275 OA
ATOM     25  N   UNL     1      -0.183  -0.625  -2.385  0.00  0.00    -0.301 N 
ATOM     26  C   UNL     1      -1.586  -0.191  -2.360  0.00  0.00    +0.113 C 
ATOM     27  C   UNL     1      -2.471  -1.359  -2.805  0.00  0.00    +0.084 C 
ATOM     28  C   UNL     1      -1.991  -1.869  -4.165  0.00  0.00    +0.173 C 
ATOM     29  C   UNL     1      -0.548  -2.365  -4.056  0.00  0.00    +0.084 C 
ATOM     30  C   UNL     1       0.356  -1.201  -3.625  0.00  0.00    +0.113 C 
ATOM     31  O   UNL     1      -2.066  -0.812  -5.130  0.00  0.00    -0.346 OA
ATOM     32  C   UNL     1      -2.981  -1.236  -6.161  0.00  0.00    +0.191 C 
ATOM     33  C   UNL     1      -3.822  -2.329  -5.455  0.00  0.00    +0.191 C 
ATOM     34  O   UNL     1      -2.836  -2.950  -4.595  0.00  0.00    -0.346 OA
ENDBRANCH  22  23
ENDBRANCH   1  22
TORSDOF 4
