REMARK  Name = ZINC46577367
REMARK  9 active torsions:
REMARK  status: ('A' for Active; 'I' for Inactive)
REMARK    1  A    between atoms: C_1  and  N_2
REMARK    2  A    between atoms: N_2  and  C_3
REMARK    3  A    between atoms: C_3  and  C_4
REMARK    4  A    between atoms: C_7  and  C_10
REMARK    5  A    between atoms: N_12  and  C_13
REMARK    6  A    between atoms: C_13  and  C_14
REMARK    7  A    between atoms: C_18  and  C_20
REMARK    8  A    between atoms: C_21  and  C_22
REMARK    9  A    between atoms: C_25  and  N_28
REMARK                            x       y       z     vdW  Elec       q    Type
REMARK                         _______ _______ _______ _____ _____    ______ ____
ROOT
ATOM      1  C   UNL     1       0.029   1.461   0.009  0.00  0.00    +0.132 C 
ATOM      2  N   UNL     1       0.032  -0.004   0.002  0.00  0.00    -0.297 N 
ATOM      3  C   UNL     1       0.015  -0.671  -1.169  0.00  0.00    +0.239 C 
ATOM      4  O   UNL     1       0.018  -1.889  -1.175  0.00  0.00    -0.271 OA
ENDROOT
BRANCH   3   5
ATOM      5  C   UNL     1      -0.007   0.067  -2.432  0.00  0.00    +0.068 C 
ATOM      6  C   UNL     1      -0.024  -0.602  -3.604  0.00  0.00    +0.013 C 
BRANCH   6   7
ATOM      7  C   UNL     1      -0.046   0.140  -4.873  0.00  0.00    -0.025 A 
ATOM      8  C   UNL     1      -0.044   1.539  -4.868  0.00  0.00    +0.010 A 
ATOM      9  C   UNL     1      -0.065   2.230  -6.058  0.00  0.00    +0.024 A 
ATOM     10  C   UNL     1      -0.088   1.538  -7.266  0.00  0.00    +0.036 A 
ATOM     11  C   UNL     1      -0.091   0.147  -7.275  0.00  0.00    +0.024 A 
ATOM     12  C   UNL     1      -0.064  -0.552  -6.090  0.00  0.00    +0.010 A 
BRANCH  10  13
ATOM     13  N   UNL     1      -0.109   2.242  -8.470  0.00  0.00    -0.271 N 
ATOM     14  C   UNL     1      -0.019   1.618  -9.795  0.00  0.00    +0.114 C 
ATOM     15  C   UNL     1      -0.514   2.692 -10.790  0.00  0.00    +0.029 C 
ATOM     16  C   UNL     1      -0.215   3.998 -10.019  0.00  0.00    +0.098 C 
ATOM     17  C   UNL     1      -0.220   3.578  -8.565  0.00  0.00    +0.220 C 
ATOM     18  O   UNL     1      -0.308   4.337  -7.623  0.00  0.00    -0.275 OA
ENDBRANCH  10  13
ENDBRANCH   6   7
ENDBRANCH   3   5
BRANCH   2  19
ATOM     19  C   UNL     1       0.054  -0.743   1.266  0.00  0.00    +0.142 C 
BRANCH  19  20
ATOM     20  C   UNL     1      -1.359  -1.000   1.723  0.00  0.00    -0.030 A 
ATOM     21  C   UNL     1      -2.000  -0.079   2.532  0.00  0.00    +0.006 A 
ATOM     22  C   UNL     1      -3.293  -0.308   2.953  0.00  0.00    +0.013 A 
ATOM     23  C   UNL     1      -3.955  -1.472   2.561  0.00  0.00    +0.037 A 
ATOM     24  C   UNL     1      -3.303  -2.398   1.744  0.00  0.00    +0.013 A 
ATOM     25  C   UNL     1      -2.012  -2.154   1.326  0.00  0.00    +0.006 A 
BRANCH  23  26
ATOM     26  C   UNL     1      -5.342  -1.725   3.009  0.00  0.00    +0.244 C 
ATOM     27  O   UNL     1      -5.907  -0.917   3.721  0.00  0.00    -0.270 OA
ATOM     28  N   UNL     1      -5.978  -2.850   2.629  0.00  0.00    -0.303 N 
ATOM     29  H   UNL     1      -5.527  -3.494   2.061  0.00  0.00    +0.149 HD
BRANCH  28  30
ATOM     30  C   UNL     1      -7.352  -3.100   3.073  0.00  0.00    +0.217 C 
BRANCH  30  31
ATOM     31  C   UNL     1      -7.836  -4.436   2.505  0.00  0.00    +0.405 C 
ATOM     32  F   UNL     1      -7.005  -5.465   2.959  0.00  0.00    -0.169 F 
ATOM     33  F   UNL     1      -9.148  -4.674   2.929  0.00  0.00    -0.169 F 
ATOM     34  F   UNL     1      -7.799  -4.389   1.107  0.00  0.00    -0.169 F 
ENDBRANCH  30  31
ENDBRANCH  28  30
ENDBRANCH  23  26
ENDBRANCH  19  20
ENDBRANCH   2  19
TORSDOF 8
