REMARK  Name = ZINC12245508
REMARK  7 active torsions:
REMARK  status: ('A' for Active; 'I' for Inactive)
REMARK    1  A    between atoms: C_3  and  C_11
REMARK    2  A    between atoms: C_5  and  C_7
REMARK    3  A    between atoms: N_13  and  C_14
REMARK    4  A    between atoms: C_18  and  N_20
REMARK    5  A    between atoms: C_23  and  N_54
REMARK    6  A    between atoms: C_26  and  C_27
REMARK    7  A    between atoms: C_26  and  N_54
REMARK                            x       y       z     vdW  Elec       q    Type
REMARK                         _______ _______ _______ _____ _____    ______ ____
ROOT
ATOM      1  C   UNL     1       1.015   7.406   0.119  0.00  0.00    +0.035 A 
ATOM      2  C   UNL     1      -0.221   8.032   0.224  0.00  0.00    +0.023 A 
ATOM      3  C   UNL     1      -0.294   9.408   0.326  0.00  0.00    +0.004 A 
ATOM      4  C   UNL     1       0.861  10.166   0.313  0.00  0.00    +0.023 A 
ATOM      5  C   UNL     1       2.100   9.547   0.202  0.00  0.00    +0.031 A 
ATOM      6  C   UNL     1       2.176   8.164   0.105  0.00  0.00    +0.046 A 
ENDROOT
BRANCH   5   7
ATOM      7  N   UNL     1       3.267  10.314   0.189  0.00  0.00    -0.330 N 
ATOM      8  C   UNL     1       4.065  10.037  -1.012  0.00  0.00    +0.103 C 
ATOM      9  C   UNL     1       5.399  10.783  -0.922  0.00  0.00    +0.003 C 
ATOM     10  C   UNL     1       5.131  12.286  -0.800  0.00  0.00    -0.068 C 
ATOM     11  C   UNL     1       4.257  12.542   0.431  0.00  0.00    +0.003 C 
ATOM     12  C   UNL     1       2.957  11.745   0.302  0.00  0.00    +0.103 C 
BRANCH  10  13
ATOM     13  N   UNL     1       6.410  13.004  -0.645  0.00  0.00    +0.385 N 
ATOM     14  H   UNL     1       7.059  12.426  -0.100  0.00  0.00    -0.085 HD
ATOM     15  H   UNL     1       6.243  13.889  -0.153  0.00  0.00    -0.085 HD
BRANCH  13  16
ATOM     16  C   UNL     1       7.001  13.286  -1.967  0.00  0.00    -0.022 C 
BRANCH  16  17
ATOM     17  C   UNL     1       8.304  14.019  -1.778  0.00  0.00    +0.067 A 
ATOM     18  C   UNL     1       9.598  13.450  -1.734  0.00  0.00    +0.065 A 
ATOM     19  C   UNL     1      10.417  14.513  -1.549  0.00  0.00    +0.230 A 
ATOM     20  O   UNL     1       9.628  15.595  -1.495  0.00  0.00    -0.363 OA
ATOM     21  N   UNL     1       8.462  15.303  -1.629  0.00  0.00    -0.085 NA
ENDBRANCH  16  17
ENDBRANCH  13  16
ENDBRANCH  10  13
ENDBRANCH   5   7
BRANCH   1  24
ATOM     22  C   UNL     1       2.112   5.349   0.594  0.00  0.00    +0.248 C 
ATOM     23  O   UNL     1       3.017   5.967   1.122  0.00  0.00    -0.270 OA
ATOM     24  N   UNL     1       1.088   6.013   0.022  0.00  0.00    -0.281 N 
ATOM     25  H   UNL     1       0.401   5.523  -0.458  0.00  0.00    +0.155 HD
BRANCH  22  28
ATOM     26  C   UNL     1       1.128   1.780  -0.036  0.00  0.00    +0.001 A 
ATOM     27  C   UNL     1       1.099   3.160  -0.026  0.00  0.00    +0.013 A 
ATOM     28  C   UNL     1       2.136   3.872   0.579  0.00  0.00    +0.038 A 
ATOM     29  C   UNL     1       3.196   3.182   1.171  0.00  0.00    +0.025 A 
ATOM     30  C   UNL     1       3.209   1.802   1.160  0.00  0.00    +0.056 A 
ATOM     31  C   UNL     1       2.180   1.103   0.553  0.00  0.00    +0.012 A 
BRANCH  30  32
ATOM     32  C   UNL     1       4.348   1.056   1.805  0.00  0.00    +0.417 C 
ATOM     33  F   UNL     1       4.144  -0.321   1.662  0.00  0.00    -0.166 F 
ATOM     34  F   UNL     1       5.550   1.416   1.187  0.00  0.00    -0.166 F 
ATOM     35  F   UNL     1       4.408   1.380   3.164  0.00  0.00    -0.166 F 
ENDBRANCH  30  32
ENDBRANCH  22  28
ENDBRANCH   1  24
TORSDOF 7
