REMARK  Name = ZINC36582149
REMARK  18 active torsions:
REMARK  status: ('A' for Active; 'I' for Inactive)
REMARK    1  A    between atoms: C_1  and  C_2
REMARK    2  A    between atoms: C_2  and  C_3
REMARK    3  A    between atoms: C_3  and  C_4
REMARK    4  A    between atoms: C_4  and  C_5
REMARK    5  A    between atoms: C_5  and  C_6
REMARK    6  A    between atoms: C_7  and  C_8
REMARK    7  A    between atoms: N_10  and  C_11
REMARK    8  A    between atoms: N_10  and  C_27
REMARK    9  A    between atoms: C_11  and  C_13
REMARK   10  A    between atoms: C_11  and  C_18
REMARK   11  A    between atoms: C_13  and  C_14
REMARK   12  A    between atoms: C_13  and  C_16
REMARK   13  A    between atoms: C_14  and  C_15
REMARK   14  A    between atoms: C_16  and  C_17
REMARK   15  A    between atoms: N_20  and  C_21
REMARK   16  A    between atoms: C_27  and  C_28
REMARK   17  A    between atoms: C_27  and  C_29
REMARK   18  A    between atoms: C_27  and  C_30
REMARK                            x       y       z     vdW  Elec       q    Type
REMARK                         _______ _______ _______ _____ _____    ______ ____
ROOT
ATOM      1  C   UNL     1       4.474  -7.682   3.297  0.00  0.00    +0.166 C 
ENDROOT
BRANCH   1   2
ATOM      2  C   UNL     1       3.859  -8.513   2.201  0.00  0.00    +0.234 C 
ATOM      3  O   UNL     1       3.884  -8.118   1.054  0.00  0.00    -0.274 OA
ATOM      4  N   UNL     1       3.280  -9.694   2.494  0.00  0.00    -0.311 N 
ATOM      5  H   UNL     1       3.218  -9.988   3.417  0.00  0.00    +0.149 HD
BRANCH   4   6
ATOM      6  C   UNL     1       2.745 -10.535   1.420  0.00  0.00    +0.073 C 
ATOM      7  C   UNL     1       1.322 -10.088   1.083  0.00  0.00    +0.022 C 
ATOM      8  C   UNL     1       0.763 -10.966  -0.039  0.00  0.00    +0.002 C 
ATOM      9  C   UNL     1       0.745 -12.426   0.418  0.00  0.00    +0.000 C 
ATOM     10  C   UNL     1       2.169 -12.873   0.755  0.00  0.00    +0.002 C 
ATOM     11  C   UNL     1       2.727 -11.995   1.877  0.00  0.00    +0.022 C 
ENDBRANCH   4   6
ENDBRANCH   1   2
BRANCH   1  14
ATOM     12  C   UNL     1       4.904  -5.297   3.043  0.00  0.00    +0.240 C 
ATOM     13  O   UNL     1       4.347  -5.068   4.100  0.00  0.00    -0.271 OA
ATOM     14  N   UNL     1       5.215  -6.565   2.706  0.00  0.00    -0.281 N 
BRANCH  14  15
ATOM     15  C   UNL     1       6.293  -6.825   1.749  0.00  0.00    +0.030 C 
ATOM     16  C   UNL     1       6.756  -5.504   1.131  0.00  0.00    +0.031 C 
ATOM     17  C   UNL     1       7.466  -7.490   2.470  0.00  0.00    +0.031 C 
ATOM     18  C   UNL     1       5.781  -7.752   0.644  0.00  0.00    +0.031 C 
ENDBRANCH  14  15
BRANCH  12  20
ATOM     19  C   UNL     1       4.915  -2.942   2.457  0.00  0.00    -0.022 C 
ATOM     20  C   UNL     1       5.240  -4.191   2.134  0.00  0.00    +0.063 C 
BRANCH  19  21
ATOM     21  C   UNL     1       5.259  -1.809   1.525  0.00  0.00    +0.027 C 
BRANCH  21  22
ATOM     22  C   UNL     1       3.991  -1.019   1.194  0.00  0.00    +0.004 C 
BRANCH  22  23
ATOM     23  C   UNL     1       4.340   0.132   0.248  0.00  0.00    +0.000 C 
BRANCH  23  25
ATOM     24  C   UNL     1       3.422   2.073  -1.029  0.00  0.00    +0.004 C 
ATOM     25  C   UNL     1       3.073   0.922  -0.083  0.00  0.00    -0.003 C 
ENDBRANCH  23  25
ENDBRANCH  22  23
ENDBRANCH  21  22
ENDBRANCH  19  21
ENDBRANCH  12  20
ENDBRANCH   1  14
BRANCH   1  26
ATOM     26  C   UNL     1       5.430  -8.550   4.119  0.00  0.00    +0.018 C 
BRANCH  26  27
ATOM     27  C   UNL     1       5.522  -8.000   5.543  0.00  0.00    +0.002 C 
ATOM     28  C   UNL     1       6.065  -6.570   5.504  0.00  0.00    +0.004 C 
ENDBRANCH  26  27
BRANCH  26  29
ATOM     29  C   UNL     1       4.907  -9.987   4.160  0.00  0.00    +0.002 C 
ATOM     30  C   UNL     1       5.159 -10.660   2.809  0.00  0.00    +0.004 C 
ENDBRANCH  26  29
ENDBRANCH   1  26
TORSDOF 12
