REMARK  Name = ZINC33058821
REMARK  8 active torsions:
REMARK  status: ('A' for Active; 'I' for Inactive)
REMARK    1  A    between atoms: C_1  and  C_2
REMARK    2  A    between atoms: C_5  and  C_8
REMARK    3  A    between atoms: C_9  and  C_10
REMARK    4  A    between atoms: C_11  and  S_16
REMARK    5  A    between atoms: C_12  and  C_15
REMARK    6  A    between atoms: S_16  and  N_19
REMARK    7  A    between atoms: C_22  and  C_25
REMARK    8  A    between atoms: N_27  and  C_28
REMARK                            x       y       z     vdW  Elec       q    Type
REMARK                         _______ _______ _______ _____ _____    ______ ____
ROOT
ATOM      1  N   UNL     1      -1.765   9.677   4.678  0.00  0.00    -0.176 NA
ATOM      2  C   UNL     1      -0.898  10.224   3.626  0.00  0.00    +0.110 C 
ATOM      3  C   UNL     1      -1.145   9.447   2.329  0.00  0.00    +0.030 C 
ATOM      4  C   UNL     1      -0.949   7.952   2.590  0.00  0.00    +0.078 C 
ATOM      5  C   UNL     1      -1.960   7.478   3.637  0.00  0.00    +0.030 C 
ATOM      6  C   UNL     1      -1.721   8.233   4.948  0.00  0.00    +0.110 C 
ENDROOT
BRANCH   4   7
ATOM      7  C   UNL     1      -1.158   7.187   1.308  0.00  0.00    +0.220 C 
ATOM      8  O   UNL     1      -1.437   7.779   0.287  0.00  0.00    -0.275 OA
ATOM      9  N   UNL     1      -1.036   5.845   1.296  0.00  0.00    -0.285 N 
ATOM     10  H   UNL     1      -0.873   5.300   2.238  0.00  0.00    +0.155 HD
BRANCH   9  11
ATOM     11  C   UNL     1      -1.116   5.146   0.087  0.00  0.00    +0.037 A 
ATOM     12  C   UNL     1      -0.805   5.787  -1.101  0.00  0.00    +0.023 A 
ATOM     13  C   UNL     1      -0.884   5.094  -2.294  0.00  0.00    +0.002 A 
ATOM     14  C   UNL     1      -1.275   3.771  -2.294  0.00  0.00    +0.004 A 
ATOM     15  C   UNL     1      -1.589   3.123  -1.106  0.00  0.00    -0.042 A 
ATOM     16  C   UNL     1      -1.507   3.807   0.085  0.00  0.00    -0.023 A 
ATOM     17  C   UNL     1      -1.818   3.165   1.412  0.00  0.00    +0.037 C 
ATOM     18  C   UNL     1      -2.622   1.882   1.213  0.00  0.00    +0.005 C 
ATOM     19  C   UNL     1      -1.895   1.010   0.183  0.00  0.00    +0.005 C 
ATOM     20  C   UNL     1      -2.013   1.680  -1.185  0.00  0.00    +0.035 C 
ENDBRANCH   9  11
ENDBRANCH   4   7
BRANCH   1  21
ATOM     21  S   UNL     1      -2.771  10.667   5.543  0.00  0.00    +0.066 S 
ATOM     22  O   UNL     1      -3.025  10.011   6.777  0.00  0.00    -0.153 OA
ATOM     23  O   UNL     1      -2.213  11.972   5.475  0.00  0.00    -0.153 OA
BRANCH  21  25
ATOM     24  C   UNL     1      -5.398   9.909   4.833  0.00  0.00    +0.187 A 
ATOM     25  C   UNL     1      -4.307  10.730   4.681  0.00  0.00    +0.174 A 
ATOM     26  C   UNL     1      -4.705  11.638   3.681  0.00  0.00    +0.107 A 
ATOM     27  N   UNL     1      -5.916  11.304   3.333  0.00  0.00    -0.081 NA
ATOM     28  O   UNL     1      -6.321  10.352   3.958  0.00  0.00    -0.353 OA
ATOM     29  C   UNL     1      -3.889  12.774   3.120  0.00  0.00    +0.071 C 
BRANCH  24  31
ATOM     30  C   UNL     1      -6.671   8.065   5.790  0.00  0.00    +0.011 C 
ATOM     31  C   UNL     1      -5.530   8.780   5.758  0.00  0.00    +0.051 C 
BRANCH  30  36
ATOM     32  C   UNL     1      -7.188   3.636   9.419  0.00  0.00    +0.044 C 
ATOM     33  C   UNL     1      -7.053   4.797   8.469  0.00  0.00    -0.050 A 
ATOM     34  C   UNL     1      -8.103   5.125   7.629  0.00  0.00    +0.004 A 
ATOM     35  C   UNL     1      -7.986   6.186   6.755  0.00  0.00    +0.008 A 
ATOM     36  C   UNL     1      -6.803   6.931   6.720  0.00  0.00    -0.025 A 
ATOM     37  C   UNL     1      -5.745   6.590   7.568  0.00  0.00    +0.008 A 
ATOM     38  C   UNL     1      -5.879   5.530   8.439  0.00  0.00    +0.004 A 
ENDBRANCH  30  36
ENDBRANCH  24  31
ENDBRANCH  21  25
ENDBRANCH   1  21
TORSDOF 6
