REMARK  Name = ZINC64058022
REMARK  4 active torsions:
REMARK  status: ('A' for Active; 'I' for Inactive)
REMARK    1  A    between atoms: C_1  and  C_2
REMARK    2  A    between atoms: C_4  and  C_7
REMARK    3  A    between atoms: C_22  and  C_24
REMARK    4  A    between atoms: C_28  and  C_30
REMARK                            x       y       z     vdW  Elec       q    Type
REMARK                         _______ _______ _______ _____ _____    ______ ____
ROOT
ATOM      1  C   UNL     1      -1.547  -3.612   0.878  0.00  0.00    +0.269 C 
ATOM      2  O   UNL     1      -2.759  -3.536   0.922  0.00  0.00    -0.268 OA
ATOM      3  N   UNL     1      -0.959  -4.722   0.390  0.00  0.00    -0.287 N 
ATOM      4  C   UNL     1       0.496  -4.877   0.492  0.00  0.00    +0.113 C 
ATOM      5  C   UNL     1       1.091  -5.071  -0.915  0.00  0.00    +0.052 C 
ATOM      6  C   UNL     1       0.216  -6.078  -1.619  0.00  0.00    -0.035 C 
ATOM      7  C   UNL     1       0.512  -7.204  -2.257  0.00  0.00    -0.001 A 
ATOM      8  C   UNL     1       1.801  -7.822  -2.606  0.00  0.00    +0.010 A 
ATOM      9  C   UNL     1       1.738  -9.013  -3.259  0.00  0.00    +0.001 A 
ATOM     10  C   UNL     1       0.536  -9.642  -3.596  0.00  0.00    +0.002 A 
ATOM     11  C   UNL     1      -0.695  -9.142  -3.322  0.00  0.00    +0.026 A 
ATOM     12  C   UNL     1      -0.758  -7.889  -2.644  0.00  0.00    +0.043 A 
ATOM     13  N   UNL     1      -1.786  -7.179  -2.284  0.00  0.00    -0.375 N 
ATOM     14  C   UNL     1      -1.300  -5.936  -1.684  0.00  0.00    +0.131 C 
ATOM     15  C   UNL     1      -1.784  -5.768  -0.235  0.00  0.00    +0.133 C 
ATOM     16  H   UNL     1      -2.716  -7.430  -2.393  0.00  0.00    +0.160 HD
ENDROOT
BRANCH   1  20
ATOM     17  C   UNL     1      -0.167   0.776   3.028  0.00  0.00    +0.089 C 
ATOM     18  C   UNL     1      -0.124  -0.550   2.313  0.00  0.00    +0.135 A 
ATOM     19  C   UNL     1      -1.183  -1.335   2.044  0.00  0.00    +0.080 A 
ATOM     20  C   UNL     1      -0.715  -2.484   1.363  0.00  0.00    +0.168 A 
ATOM     21  N   UNL     1       0.585  -2.373   1.238  0.00  0.00    -0.073 NA
ATOM     22  O   UNL     1       0.976  -1.148   1.831  0.00  0.00    -0.359 OA
ENDBRANCH   1  20
BRANCH  15  23
ATOM     23  C   UNL     1      -3.232  -5.352  -0.222  0.00  0.00    -0.024 A 
ATOM     24  C   UNL     1      -3.650  -4.283  -0.993  0.00  0.00    +0.005 A 
ATOM     25  C   UNL     1      -4.979  -3.901  -0.982  0.00  0.00    +0.001 A 
ATOM     26  C   UNL     1      -5.889  -4.588  -0.200  0.00  0.00    +0.012 A 
ATOM     27  C   UNL     1      -5.471  -5.657   0.570  0.00  0.00    +0.055 A 
ATOM     28  C   UNL     1      -4.143  -6.042   0.555  0.00  0.00    +0.018 A 
BRANCH  27  29
ATOM     29  C   UNL     1      -6.463  -6.405   1.423  0.00  0.00    +0.417 C 
ATOM     30  F   UNL     1      -7.732  -5.837   1.269  0.00  0.00    -0.166 F 
ATOM     31  F   UNL     1      -6.501  -7.746   1.025  0.00  0.00    -0.166 F 
ATOM     32  F   UNL     1      -6.076  -6.327   2.765  0.00  0.00    -0.166 F 
ENDBRANCH  27  29
ENDBRANCH  15  23
TORSDOF 3
