REMARK  Name = ZINC12132772
REMARK  5 active torsions:
REMARK  status: ('A' for Active; 'I' for Inactive)
REMARK    1  A    between atoms: C_1  and  C_2
REMARK    2  A    between atoms: C_3  and  C_10
REMARK    3  A    between atoms: C_10  and  N_54
REMARK    4  A    between atoms: C_17  and  C_19
REMARK    5  A    between atoms: N_21  and  C_22
REMARK                            x       y       z     vdW  Elec       q    Type
REMARK                         _______ _______ _______ _____ _____    ______ ____
ROOT
ATOM      1  C   UNL     1      -2.776   8.224   1.595  0.00  0.00    -0.078 C 
ATOM      2  C   UNL     1      -2.370   8.280   0.118  0.00  0.00    -0.011 C 
ATOM      3  C   UNL     1      -0.933   8.805   0.026  0.00  0.00    -0.021 C 
ATOM      4  C   UNL     1      -0.678  10.110   0.787  0.00  0.00    -0.011 C 
ATOM      5  C   UNL     1      -1.185   9.946   2.224  0.00  0.00    -0.078 C 
ATOM      6  C   UNL     1      -0.174   8.581  -1.280  0.00  0.00    +0.020 C 
ATOM      7  C   UNL     1       0.198   7.780  -0.030  0.00  0.00    +0.082 C 
ATOM      8  N   UNL     1      -2.615   9.571   2.186  0.00  0.00    +0.383 N 
ATOM      9  H   UNL     1      -3.121  10.250   1.605  0.00  0.00    -0.081 HD
ENDROOT
BRANCH   7  10
ATOM     10  C   UNL     1      -0.182   6.322   0.002  0.00  0.00    +0.221 C 
ATOM     11  O   UNL     1      -0.794   5.835  -0.925  0.00  0.00    -0.275 OA
ATOM     12  N   UNL     1       0.159   5.560   1.060  0.00  0.00    -0.285 N 
ATOM     13  H   UNL     1       0.582   5.965   1.833  0.00  0.00    +0.155 HD
BRANCH  12  14
ATOM     14  C   UNL     1      -0.098   4.183   1.042  0.00  0.00    +0.037 A 
ATOM     15  C   UNL     1      -0.414   3.520   2.221  0.00  0.00    +0.027 A 
ATOM     16  C   UNL     1      -0.672   2.163   2.205  0.00  0.00    +0.051 A 
ATOM     17  C   UNL     1      -0.608   1.457   1.014  0.00  0.00    +0.166 A 
ATOM     18  C   UNL     1      -0.291   2.119  -0.170  0.00  0.00    +0.168 A 
ATOM     19  C   UNL     1      -0.037   3.480  -0.153  0.00  0.00    +0.072 A 
ATOM     20  O   UNL     1      -0.298   1.213  -1.191  0.00  0.00    -0.453 OA
ATOM     21  C   UNL     1      -0.219  -0.079  -0.560  0.00  0.00    +0.466 C 
ATOM     22  O   UNL     1      -0.813   0.136   0.734  0.00  0.00    -0.453 OA
ENDBRANCH  12  14
ENDBRANCH   7  10
BRANCH   8  23
ATOM     23  C   UNL     1      -3.179   9.592   3.550  0.00  0.00    -0.022 C 
BRANCH  23  26
ATOM     24  C   UNL     1      -0.912  11.012   5.144  0.00  0.00    +0.067 C 
ATOM     25  C   UNL     1      -2.222  11.631   4.730  0.00  0.00    +0.059 A 
ATOM     26  C   UNL     1      -3.199  11.017   4.042  0.00  0.00    +0.030 A 
ATOM     27  N   UNL     1      -4.230  11.934   3.861  0.00  0.00    -0.299 N 
ATOM     28  C   UNL     1      -5.479  11.976   3.280  0.00  0.00    +0.100 A 
ATOM     29  C   UNL     1      -6.212  13.087   3.318  0.00  0.00    +0.067 A 
ATOM     30  S   UNL     1      -5.149  14.200   4.223  0.00  0.00    -0.058 S 
ATOM     31  C   UNL     1      -3.796  13.076   4.480  0.00  0.00    +0.178 A 
ATOM     32  N   UNL     1      -2.611  12.889   4.986  0.00  0.00    -0.226 NA
ENDBRANCH  23  26
ENDBRANCH   8  23
TORSDOF 4
