REMARK  Name = ZINC33774838
REMARK  6 active torsions:
REMARK  status: ('A' for Active; 'I' for Inactive)
REMARK    1  A    between atoms: C_1  and  C_2
REMARK    2  A    between atoms: C_7  and  C_8
REMARK    3  A    between atoms: N_25  and  C_28
REMARK    4  A    between atoms: C_30  and  C_37
REMARK    5  A    between atoms: C_33  and  O_34
REMARK    6  A    between atoms: O_34  and  C_35
REMARK                            x       y       z     vdW  Elec       q    Type
REMARK                         _______ _______ _______ _____ _____    ______ ____
ROOT
ATOM      1  C   UNL     1      -0.018   1.503   0.010  0.00  0.00    +0.044 C 
ATOM      2  C   UNL     1       0.002  -0.004   0.002  0.00  0.00    -0.046 A 
ATOM      3  C   UNL     1       0.006  -0.685  -1.202  0.00  0.00    +0.004 A 
ATOM      4  C   UNL     1       0.024  -2.069  -1.209  0.00  0.00    +0.005 A 
ATOM      5  C   UNL     1       0.039  -2.764  -0.021  0.00  0.00    -0.027 A 
ATOM      6  C   UNL     1       0.037  -2.090   1.196  0.00  0.00    +0.039 A 
ATOM      7  C   UNL     1       0.023  -0.697   1.195  0.00  0.00    -0.026 A 
ATOM      8  C   UNL     1       0.025   0.056   2.500  0.00  0.00    +0.046 C 
ATOM      9  N   UNL     1       0.055  -3.001   2.254  0.00  0.00    -0.286 N 
ATOM     10  C   UNL     1       0.068  -4.277   1.824  0.00  0.00    +0.212 C 
ATOM     11  O   UNL     1       0.084  -5.274   2.516  0.00  0.00    -0.277 OA
ATOM     12  C   UNL     1       0.058  -4.228   0.320  0.00  0.00    +0.053 C 
ATOM     13  C   UNL     1       1.289  -4.926  -0.268  0.00  0.00    +0.089 C 
ATOM     14  C   UNL     1       0.772  -5.611  -1.563  0.00  0.00    +0.074 C 
ATOM     15  C   UNL     1      -0.723  -5.250  -1.642  0.00  0.00    -0.054 C 
ATOM     16  N   UNL     1      -1.117  -4.925  -0.232  0.00  0.00    +0.395 N 
ATOM     17  C   UNL     1      -1.267  -6.236   0.442  0.00  0.00    -0.076 C 
ATOM     18  C   UNL     1      -1.897  -7.163  -0.618  0.00  0.00    -0.020 C 
ATOM     19  C   UNL     1      -1.530  -6.509  -2.008  0.00  0.00    -0.016 C 
ATOM     20  C   UNL     1       0.932  -7.085  -1.266  0.00  0.00    +0.229 C 
ATOM     21  O   UNL     1       0.642  -7.987  -2.022  0.00  0.00    -0.275 OA
ATOM     22  N   UNL     1       1.444  -7.238  -0.040  0.00  0.00    -0.206 N 
ATOM     23  C   UNL     1       1.693  -6.082   0.618  0.00  0.00    +0.230 C 
ATOM     24  O   UNL     1       2.160  -5.981   1.732  0.00  0.00    -0.275 OA
ATOM     25  H   UNL     1       0.058  -2.745   3.189  0.00  0.00    +0.155 HD
ATOM     26  H   UNL     1      -1.954  -4.362  -0.188  0.00  0.00    -0.079 HD
ENDROOT
BRANCH  22  27
ATOM     27  C   UNL     1       1.708  -8.497   0.521  0.00  0.00    +0.086 A 
ATOM     28  C   UNL     1       2.950  -9.090   0.344  0.00  0.00    +0.032 A 
ATOM     29  C   UNL     1       3.208 -10.330   0.897  0.00  0.00    -0.030 A 
ATOM     30  C   UNL     1       2.230 -10.984   1.626  0.00  0.00    +0.047 A 
ATOM     31  C   UNL     1       0.990 -10.398   1.806  0.00  0.00    +0.067 A 
ATOM     32  C   UNL     1       0.726  -9.152   1.260  0.00  0.00    +0.143 A 
ATOM     33 CL   UNL     1       2.561 -12.542   2.317  0.00  0.00    -0.083 Cl
ATOM     34  C   UNL     1       4.558 -10.972   0.704  0.00  0.00    +0.045 C 
BRANCH  32  35
ATOM     35  O   UNL     1      -0.490  -8.573   1.441  0.00  0.00    -0.493 OA
ATOM     36  C   UNL     1      -1.448  -9.302   2.210  0.00  0.00    +0.277 C 
ENDBRANCH  32  35
ENDBRANCH  22  27
TORSDOF 2
