REMARK  Name = ZINC03013544
REMARK  6 active torsions:
REMARK  status: ('A' for Active; 'I' for Inactive)
REMARK    1  A    between atoms: N_15  and  C_17
REMARK    2  A    between atoms: C_20  and  C_33
REMARK    3  A    between atoms: C_22  and  N_23
REMARK    4  A    between atoms: C_24  and  C_26
REMARK    5  A    between atoms: N_35  and  C_36
REMARK    6  A    between atoms: C_36  and  C_37
REMARK                            x       y       z     vdW  Elec       q    Type
REMARK                         _______ _______ _______ _____ _____    ______ ____
ROOT
ATOM      1  C   UNL     1      -0.004   1.023  -2.276  0.00  0.00    +0.051 A 
ATOM      2  C   UNL     1       0.032  -0.356  -2.452  0.00  0.00    +0.026 A 
ATOM      3  C   UNL     1       0.360  -0.888  -3.679  0.00  0.00    +0.015 A 
ATOM      4  C   UNL     1       0.668  -0.044  -4.749  0.00  0.00    +0.039 A 
ATOM      5  C   UNL     1       0.637   1.343  -4.574  0.00  0.00    +0.038 A 
ATOM      6  C   UNL     1       0.303   1.873  -3.342  0.00  0.00    +0.056 A 
ENDROOT
BRANCH   1  19
ATOM      7  C   UNL     1       0.609   5.875   0.319  0.00  0.00    +0.007 A 
ATOM      8  C   UNL     1      -0.540   5.098   0.129  0.00  0.00    +0.022 A 
ATOM      9  C   UNL     1      -0.575   3.805   0.546  0.00  0.00    +0.027 A 
ATOM     10  N   UNL     1       0.476   3.267   1.206  0.00  0.00    -0.312 N 
ATOM     11  C   UNL     1       1.631   3.967   1.322  0.00  0.00    +0.251 A 
ATOM     12  O   UNL     1       2.620   3.429   1.792  0.00  0.00    -0.268 OA
ATOM     13  C   UNL     1       1.700   5.304   0.907  0.00  0.00    +0.070 A 
ATOM     14  C   UNL     1       0.423   1.962   1.870  0.00  0.00    +0.130 C 
ATOM     15  C   UNL     1      -0.716   1.098   1.356  0.00  0.00    +0.027 C 
ATOM     16  C   UNL     1      -2.003   1.926   1.313  0.00  0.00    +0.018 C 
ATOM     17  C   UNL     1      -1.823   3.007   0.241  0.00  0.00    +0.053 C 
ATOM     18  C   UNL     1      -1.605   2.306  -1.110  0.00  0.00    +0.114 C 
ATOM     19  N   UNL     1      -0.342   1.557  -1.036  0.00  0.00    -0.328 N 
ATOM     20  C   UNL     1      -0.407   0.509  -0.012  0.00  0.00    +0.110 C 
ENDBRANCH   1  19
BRANCH   6  21
ATOM     21  N   UNL     1       0.271   3.262  -3.163  0.00  0.00    -0.280 N 
ATOM     22  C   UNL     1       0.062   4.074  -4.218  0.00  0.00    +0.248 C 
ATOM     23  O   UNL     1      -0.201   3.600  -5.307  0.00  0.00    -0.270 OA
ATOM     24  H   UNL     1       0.399   3.640  -2.278  0.00  0.00    +0.155 HD
BRANCH  22  25
ATOM     25  C   UNL     1       0.152   5.539  -4.053  0.00  0.00    +0.037 A 
ATOM     26  C   UNL     1       0.448   6.086  -2.803  0.00  0.00    +0.016 A 
ATOM     27  C   UNL     1       0.536   7.454  -2.655  0.00  0.00    +0.039 A 
ATOM     28  C   UNL     1       0.321   8.286  -3.743  0.00  0.00    +0.123 A 
ATOM     29  C   UNL     1       0.021   7.748  -4.986  0.00  0.00    +0.039 A 
ATOM     30  C   UNL     1      -0.064   6.382  -5.145  0.00  0.00    +0.016 A 
ATOM     31  F   UNL     1       0.403   9.626  -3.592  0.00  0.00    -0.205 F 
ENDBRANCH  22  25
ENDBRANCH   6  21
BRANCH   4  32
ATOM     32  C   UNL     1       1.025  -0.615  -6.062  0.00  0.00    +0.244 C 
ATOM     33  O   UNL     1       1.293   0.121  -6.992  0.00  0.00    -0.270 OA
ATOM     34  N   UNL     1       1.054  -1.952  -6.229  0.00  0.00    -0.304 N 
ATOM     35  H   UNL     1       0.840  -2.538  -5.487  0.00  0.00    +0.149 HD
BRANCH  34  36
ATOM     36  C   UNL     1       1.408  -2.519  -7.533  0.00  0.00    +0.179 C 
BRANCH  36  37
ATOM     37  C   UNL     1       1.367  -4.023  -7.455  0.00  0.00    +0.122 A 
ATOM     38  C   UNL     1       0.294  -4.795  -7.706  0.00  0.00    +0.046 A 
ATOM     39  C   UNL     1       0.699  -6.135  -7.513  0.00  0.00    +0.041 A 
ATOM     40  C   UNL     1       1.995  -6.103  -7.156  0.00  0.00    +0.195 A 
ATOM     41  O   UNL     1       2.396  -4.821  -7.128  0.00  0.00    -0.466 OA
ENDBRANCH  36  37
ENDBRANCH  34  36
ENDBRANCH   4  32
TORSDOF 6
