REMARK  Name = ZINC05210986
REMARK  9 active torsions:
REMARK  status: ('A' for Active; 'I' for Inactive)
REMARK    1  A    between atoms: C_1  and  C_2
REMARK    2  A    between atoms: C_5  and  C_8
REMARK    3  A    between atoms: C_11  and  S_14
REMARK    4  A    between atoms: S_14  and  C_15
REMARK    5  A    between atoms: C_15  and  C_17
REMARK    6  A    between atoms: C_15  and  C_18
REMARK    7  A    between atoms: N_20  and  C_21
REMARK    8  A    between atoms: C_24  and  S_27
REMARK    9  A    between atoms: S_27  and  N_30
REMARK                            x       y       z     vdW  Elec       q    Type
REMARK                         _______ _______ _______ _____ _____    ______ ____
ROOT
ATOM      1  C   UNL     1       0.119  -6.965   3.435  0.00  0.00    +0.137 C 
ATOM      2  C   UNL     1      -1.192  -6.209   3.661  0.00  0.00    +0.029 C 
ENDROOT
BRANCH   1   3
ATOM      3  C   UNL     1       0.254  -8.055   4.468  0.00  0.00    +0.230 C 
ATOM      4  O   UNL     1      -0.019  -9.201   4.179  0.00  0.00    -0.274 OA
ATOM      5  N   UNL     1       0.680  -7.756   5.711  0.00  0.00    -0.285 N 
ATOM      6  H   UNL     1       0.962  -6.852   5.923  0.00  0.00    +0.155 HD
BRANCH   5   7
ATOM      7  C   UNL     1       0.713  -8.748   6.697  0.00  0.00    +0.034 A 
ATOM      8  C   UNL     1       0.422  -8.429   8.016  0.00  0.00    +0.025 A 
ATOM      9  C   UNL     1       0.457  -9.411   8.987  0.00  0.00    +0.030 A 
ATOM     10  C   UNL     1       0.780 -10.712   8.645  0.00  0.00    +0.105 A 
ATOM     11  C   UNL     1       1.071 -11.033   7.332  0.00  0.00    +0.030 A 
ATOM     12  C   UNL     1       1.032 -10.056   6.356  0.00  0.00    +0.025 A 
BRANCH  10  13
ATOM     13  S   UNL     1       0.823 -11.962   9.886  0.00  0.00    +0.056 S 
ATOM     14  O   UNL     1       1.684 -12.984   9.404  0.00  0.00    -0.153 OA
ATOM     15  O   UNL     1       1.046 -11.299  11.123  0.00  0.00    -0.153 OA
BRANCH  13  16
ATOM     16  N   UNL     1      -0.694 -12.621   9.970  0.00  0.00    -0.204 NA
ATOM     17  H   UNL     1      -1.398 -12.293   9.388  0.00  0.00    +0.144 HD
ATOM     18  H   UNL     1      -0.879 -13.334  10.600  0.00  0.00    +0.144 HD
ENDBRANCH  13  16
ENDBRANCH  10  13
ENDBRANCH   5   7
ENDBRANCH   1   3
BRANCH   1  19
ATOM     19  S   UNL     1       0.116  -7.701   1.777  0.00  0.00    -0.074 S 
BRANCH  19  23
ATOM     20  C   UNL     1       0.086  -4.264  -0.029  0.00  0.00    +0.182 A 
ATOM     21  N   UNL     1       0.096  -5.047   1.059  0.00  0.00    -0.201 NA
ATOM     22  H   UNL     1       0.098  -7.152  -1.210  0.00  0.00    +0.191 HD
ATOM     23  C   UNL     1       0.102  -6.311   0.695  0.00  0.00    +0.185 A 
ATOM     24  N   UNL     1       0.096  -6.356  -0.656  0.00  0.00    -0.253 N 
ATOM     25  N   UNL     1       0.080  -5.024  -1.100  0.00  0.00    -0.152 NA
BRANCH  20  30
ATOM     26  C   UNL     1       0.050   1.496  -0.009  0.00  0.00    +0.044 C 
ATOM     27  C   UNL     1       0.059  -0.011  -0.015  0.00  0.00    -0.050 A 
ATOM     28  C   UNL     1       0.059  -0.696  -1.216  0.00  0.00    +0.004 A 
ATOM     29  C   UNL     1       0.067  -2.077  -1.227  0.00  0.00    +0.012 A 
ATOM     30  C   UNL     1       0.077  -2.780  -0.024  0.00  0.00    +0.021 A 
ATOM     31  C   UNL     1       0.078  -2.085   1.184  0.00  0.00    +0.012 A 
ATOM     32  C   UNL     1       0.075  -0.705   1.183  0.00  0.00    +0.004 A 
ENDBRANCH  20  30
ENDBRANCH  19  23
ENDBRANCH   1  19
TORSDOF 7
