REMARK  Name = ZINC40781434
REMARK  7 active torsions:
REMARK  status: ('A' for Active; 'I' for Inactive)
REMARK    1  A    between atoms: C_4  and  C_7
REMARK    2  A    between atoms: C_7  and  C_8
REMARK    3  A    between atoms: C_7  and  C_14
REMARK    4  A    between atoms: N_16  and  N_17
REMARK    5  A    between atoms: C_19  and  N_32
REMARK    6  A    between atoms: C_20  and  N_24
REMARK    7  A    between atoms: N_24  and  C_25
REMARK                            x       y       z     vdW  Elec       q    Type
REMARK                         _______ _______ _______ _____ _____    ______ ____
ROOT
ATOM      1  N   UNL     1       3.996  -3.002  -1.935  0.00  0.00    -0.247 N 
ATOM      2  C   UNL     1       5.035  -3.910  -2.099  0.00  0.00    +0.161 A 
ATOM      3  C   UNL     1       5.107  -4.707  -3.244  0.00  0.00    +0.107 A 
ATOM      4  C   UNL     1       6.171  -5.602  -3.358  0.00  0.00    +0.149 A 
ATOM      5  N   UNL     1       7.071  -5.662  -2.378  0.00  0.00    -0.219 NA
ATOM      6  C   UNL     1       6.966  -4.892  -1.314  0.00  0.00    +0.225 A 
ATOM      7  N   UNL     1       5.980  -4.030  -1.170  0.00  0.00    -0.217 NA
ATOM      8  H   UNL     1       3.311  -2.921  -2.617  0.00  0.00    +0.172 HD
ENDROOT
BRANCH   1  11
ATOM      9  C   UNL     1       2.929  -1.323  -0.626  0.00  0.00    +0.241 C 
ATOM     10  O   UNL     1       2.073  -1.222  -1.479  0.00  0.00    -0.273 OA
ATOM     11  N   UNL     1       3.937  -2.204  -0.785  0.00  0.00    -0.235 N 
ATOM     12  H   UNL     1       4.622  -2.285  -0.103  0.00  0.00    +0.173 HD
BRANCH   9  13
ATOM     13  C   UNL     1       2.867  -0.465   0.611  0.00  0.00    +0.136 C 
BRANCH  13  17
ATOM     14  C   UNL     1      -0.573   2.060   0.416  0.00  0.00    +0.000 A 
ATOM     15  C   UNL     1       0.678   2.611   0.622  0.00  0.00    +0.000 A 
ATOM     16  C   UNL     1       1.791   1.794   0.685  0.00  0.00    +0.005 A 
ATOM     17  C   UNL     1       1.653   0.426   0.543  0.00  0.00    -0.031 A 
ATOM     18  C   UNL     1       0.402  -0.125   0.338  0.00  0.00    +0.005 A 
ATOM     19  C   UNL     1      -0.711   0.692   0.273  0.00  0.00    +0.000 A 
ENDBRANCH  13  17
BRANCH  13  20
ATOM     20  C   UNL     1       2.775  -1.347   1.830  0.00  0.00    -0.031 A 
ATOM     21  C   UNL     1       1.827  -2.351   1.887  0.00  0.00    +0.005 A 
ATOM     22  C   UNL     1       1.743  -3.159   3.005  0.00  0.00    +0.000 A 
ATOM     23  C   UNL     1       2.608  -2.964   4.066  0.00  0.00    +0.000 A 
ATOM     24  C   UNL     1       3.557  -1.961   4.008  0.00  0.00    +0.000 A 
ATOM     25  C   UNL     1       3.643  -1.155   2.888  0.00  0.00    +0.005 A 
ENDBRANCH  13  20
ENDBRANCH   9  13
ENDBRANCH   1  11
BRANCH   3  26
ATOM     26  N   UNL     1       4.134  -4.610  -4.252  0.00  0.00    -0.353 N 
ATOM     27  H   UNL     1       3.400  -3.983  -4.159  0.00  0.00    +0.143 HD
ATOM     28  H   UNL     1       4.197  -5.170  -5.042  0.00  0.00    +0.143 HD
ENDBRANCH   3  26
BRANCH   4  29
ATOM     29  N   UNL     1       6.290  -6.418  -4.477  0.00  0.00    -0.297 N 
ATOM     30  H   UNL     1       5.682  -6.308  -5.224  0.00  0.00    +0.154 HD
BRANCH  29  31
ATOM     31  C   UNL     1       7.286  -7.398  -4.524  0.00  0.00    +0.047 A 
ATOM     32  C   UNL     1       7.878  -7.847  -3.350  0.00  0.00    +0.024 A 
ATOM     33  C   UNL     1       8.862  -8.815  -3.401  0.00  0.00    +0.002 A 
ATOM     34  C   UNL     1       9.258  -9.338  -4.618  0.00  0.00    +0.001 A 
ATOM     35  C   UNL     1       8.671  -8.895  -5.789  0.00  0.00    +0.017 A 
ATOM     36  C   UNL     1       7.682  -7.930  -5.746  0.00  0.00    +0.039 A 
ATOM     37 BR   UNL     1       6.875  -7.329  -7.346  0.00  0.00    -0.048 Br
ENDBRANCH  29  31
ENDBRANCH   4  29
TORSDOF 7
