REMARK  Name = ZINC02282032
REMARK  3 active torsions:
REMARK  status: ('A' for Active; 'I' for Inactive)
REMARK    1  A    between atoms: C_3  and  N_27
REMARK    2  A    between atoms: C_6  and  C_7
REMARK    3  A    between atoms: C_13  and  C_15
REMARK                            x       y       z     vdW  Elec       q    Type
REMARK                         _______ _______ _______ _____ _____    ______ ____
ROOT
ATOM      1  C   UNL     1       7.307   4.355  -0.153  0.00  0.00    +0.165 C 
ATOM      2  N   UNL     1       6.051   3.581  -0.160  0.00  0.00    -0.281 N 
ATOM      3  C   UNL     1       6.191   2.132  -0.274  0.00  0.00    +0.120 C 
ATOM      4  C   UNL     1       7.505   1.648   0.405  0.00  0.00    +0.090 C 
ATOM      5  S   UNL     1       8.604   3.046  -0.104  0.00  0.00    -0.132 S 
ATOM      6  C   UNL     1       4.845   4.177  -0.072  0.00  0.00    +0.255 C 
ATOM      7  O   UNL     1       3.840   3.502   0.045  0.00  0.00    -0.270 OA
ENDROOT
BRANCH   6   8
ATOM      8  C   UNL     1       4.744   5.645  -0.118  0.00  0.00    +0.122 A 
ATOM      9  C   UNL     1       5.878   6.433  -0.018  0.00  0.00    +0.031 A 
ATOM     10  C   UNL     1       5.735   7.843  -0.069  0.00  0.00    +0.019 A 
ATOM     11  C   UNL     1       6.864   8.671   0.027  0.00  0.00    +0.026 A 
ATOM     12  C   UNL     1       6.718  10.027  -0.023  0.00  0.00    +0.019 A 
ATOM     13  C   UNL     1       5.459  10.596  -0.167  0.00  0.00    +0.019 A 
ATOM     14  C   UNL     1       4.337   9.801  -0.263  0.00  0.00    +0.048 A 
ATOM     15  C   UNL     1       4.459   8.416  -0.216  0.00  0.00    +0.139 A 
ATOM     16  O   UNL     1       3.358   7.640  -0.310  0.00  0.00    -0.422 OA
ATOM     17  C   UNL     1       3.440   6.300  -0.269  0.00  0.00    +0.350 A 
ATOM     18  O   UNL     1       2.430   5.627  -0.356  0.00  0.00    -0.244 OA
ATOM     19 BR   UNL     1       8.242  11.140   0.107  0.00  0.00    -0.050 Br
ENDBRANCH   6   8
BRANCH   1  25
ATOM     20  C   UNL     1       6.737   4.818  -2.546  0.00  0.00    +0.008 A 
ATOM     21  C   UNL     1       6.845   5.580  -3.694  0.00  0.00    +0.033 A 
ATOM     22  C   UNL     1       7.655   6.700  -3.706  0.00  0.00    +0.126 A 
ATOM     23  C   UNL     1       8.351   7.062  -2.569  0.00  0.00    +0.033 A 
ATOM     24  C   UNL     1       8.239   6.303  -1.419  0.00  0.00    +0.008 A 
ATOM     25  C   UNL     1       7.429   5.183  -1.407  0.00  0.00    -0.017 A 
BRANCH  22  26
ATOM     26  N   UNL     1       7.775   7.513  -4.938  0.00  0.00    +0.056 N 
ATOM     27  O   UNL     1       8.489   8.500  -4.948  0.00  0.00    -0.126 OA
ATOM     28  O   UNL     1       7.161   7.194  -5.940  0.00  0.00    -0.126 OA
ENDBRANCH  22  26
ENDBRANCH   1  25
TORSDOF 3
