REMARK  Name = ZINC08425740
REMARK  2 active torsions:
REMARK  status: ('A' for Active; 'I' for Inactive)
REMARK    1  A    between atoms: C_16  and  C_19
REMARK    2  A    between atoms: N_28  and  C_31
REMARK                            x       y       z     vdW  Elec       q    Type
REMARK                         _______ _______ _______ _____ _____    ______ ____
ROOT
ATOM      1  C   UNL     1      -0.017   1.377   0.010  0.00  0.00    +0.001 A 
ATOM      2  C   UNL     1       1.167   2.095   0.002  0.00  0.00    +0.001 A 
ATOM      3  C   UNL     1       2.382   1.438  -0.015  0.00  0.00    +0.012 A 
ATOM      4  C   UNL     1       2.424   0.042  -0.025  0.00  0.00    +0.031 A 
ATOM      5  C   UNL     1       1.220  -0.688  -0.014  0.00  0.00    +0.031 A 
ATOM      6  C   UNL     1       0.002  -0.004   0.002  0.00  0.00    +0.012 A 
ATOM      7  C   UNL     1       1.512  -2.134  -0.024  0.00  0.00    +0.204 C 
ATOM      8  O   UNL     1       0.699  -3.033  -0.014  0.00  0.00    -0.288 OA
ATOM      9  C   UNL     1       3.009  -2.282  -0.048  0.00  0.00    +0.206 C 
ATOM     10  C   UNL     1       3.571  -0.886  -0.047  0.00  0.00    +0.204 C 
ATOM     11  O   UNL     1       4.744  -0.582  -0.061  0.00  0.00    -0.288 OA
ATOM     12  C   UNL     1       3.517  -3.096   1.124  0.00  0.00    +0.138 C 
ATOM     13  C   UNL     1       4.825  -3.654   0.436  0.00  0.00    +0.125 C 
ATOM     14  C   UNL     1       4.307  -4.085  -0.871  0.00  0.00    +0.163 C 
ATOM     15  O   UNL     1       3.419  -2.982  -1.246  0.00  0.00    -0.348 OA
ATOM     16  C   UNL     1       5.567  -4.140   1.568  0.00  0.00    +0.233 C 
ATOM     17  O   UNL     1       6.302  -5.104   1.610  0.00  0.00    -0.274 OA
ATOM     18  N   UNL     1       5.264  -3.275   2.591  0.00  0.00    -0.210 N 
ATOM     19  C   UNL     1       4.185  -2.454   2.300  0.00  0.00    +0.234 C 
ATOM     20  O   UNL     1       3.841  -1.441   2.871  0.00  0.00    -0.274 OA
ENDROOT
BRANCH  18  21
ATOM     21  C   UNL     1       5.971  -3.224   3.801  0.00  0.00    +0.045 A 
ATOM     22  C   UNL     1       5.595  -2.323   4.788  0.00  0.00    +0.025 A 
ATOM     23  C   UNL     1       6.291  -2.274   5.980  0.00  0.00    +0.023 A 
ATOM     24  C   UNL     1       7.363  -3.123   6.192  0.00  0.00    +0.059 A 
ATOM     25  C   UNL     1       7.740  -4.023   5.209  0.00  0.00    +0.061 A 
ATOM     26  C   UNL     1       7.043  -4.079   4.017  0.00  0.00    +0.045 A 
ATOM     27 CL   UNL     1       9.085  -5.087   5.478  0.00  0.00    -0.082 Cl
ATOM     28 CL   UNL     1       8.236  -3.059   7.691  0.00  0.00    -0.082 Cl
ENDBRANCH  18  21
BRANCH  14  29
ATOM     29  C   UNL     1       5.428  -4.236  -1.867  0.00  0.00    -0.018 A 
ATOM     30  C   UNL     1       5.950  -3.120  -2.493  0.00  0.00    +0.009 A 
ATOM     31  C   UNL     1       6.979  -3.257  -3.406  0.00  0.00    +0.039 A 
ATOM     32  C   UNL     1       7.486  -4.513  -3.694  0.00  0.00    +0.123 A 
ATOM     33  C   UNL     1       6.961  -5.631  -3.066  0.00  0.00    +0.039 A 
ATOM     34  C   UNL     1       5.936  -5.490  -2.149  0.00  0.00    +0.009 A 
ATOM     35  F   UNL     1       8.490  -4.649  -4.586  0.00  0.00    -0.205 F 
ENDBRANCH  14  29
TORSDOF 2
