REMARK  Name = ZINC05316000
REMARK  7 active torsions:
REMARK  status: ('A' for Active; 'I' for Inactive)
REMARK    1  A    between atoms: N_13  and  C_14
REMARK    2  A    between atoms: C_17  and  C_20
REMARK    3  A    between atoms: C_22  and  C_23
REMARK    4  A    between atoms: C_23  and  C_25
REMARK    5  A    between atoms: N_27  and  C_28
REMARK    6  A    between atoms: C_31  and  N_36
REMARK    7  A    between atoms: C_33  and  C_34
REMARK                            x       y       z     vdW  Elec       q    Type
REMARK                         _______ _______ _______ _____ _____    ______ ____
ROOT
ATOM      1  C   UNL     1      -4.959  -0.588  -0.018  0.00  0.00    +0.190 C 
ATOM      2  O   UNL     1      -5.225   0.478   0.767  0.00  0.00    -0.287 OA
ATOM      3  C   UNL     1      -5.952  -1.125  -0.812  0.00  0.00    +0.107 C 
ENDROOT
BRANCH   1   7
ATOM      4  C   UNL     1      -1.076  -2.285  -0.044  0.00  0.00    +0.065 A 
ATOM      5  C   UNL     1      -1.353  -1.176   0.772  0.00  0.00    +0.028 A 
ATOM      6  C   UNL     1      -2.603  -0.631   0.779  0.00  0.00    +0.014 A 
ATOM      7  C   UNL     1      -3.611  -1.177  -0.027  0.00  0.00    +0.022 A 
ATOM      8  C   UNL     1      -3.336  -2.284  -0.842  0.00  0.00    +0.014 A 
ATOM      9  C   UNL     1      -2.085  -2.827  -0.856  0.00  0.00    +0.028 A 
BRANCH   4  22
ATOM     10  C   UNL     1      -2.294  -3.839   3.247  0.00  0.00    +0.001 A 
ATOM     11  C   UNL     1      -1.699  -4.256   4.425  0.00  0.00    +0.001 A 
ATOM     12  C   UNL     1      -0.324  -4.339   4.525  0.00  0.00    +0.012 A 
ATOM     13  C   UNL     1       0.470  -4.002   3.431  0.00  0.00    +0.035 A 
ATOM     14  C   UNL     1      -0.135  -3.579   2.233  0.00  0.00    +0.011 A 
ATOM     15  C   UNL     1      -1.522  -3.501   2.151  0.00  0.00    +0.011 A 
ATOM     16  C   UNL     1       0.714  -3.223   1.078  0.00  0.00    +0.076 C 
ATOM     17  C   UNL     1       2.170  -3.314   1.189  0.00  0.00    +0.083 C 
ATOM     18  C   UNL     1       2.754  -3.720   2.339  0.00  0.00    +0.228 C 
ATOM     19  O   UNL     1       4.106  -3.796   2.414  0.00  0.00    -0.284 OA
ATOM     20  C   UNL     1       1.940  -4.082   3.510  0.00  0.00    +0.233 C 
ATOM     21  O   UNL     1       2.478  -4.446   4.539  0.00  0.00    -0.283 OA
ATOM     22  N   UNL     1       0.161  -2.825  -0.052  0.00  0.00    -0.247 NA
ENDBRANCH   4  22
ENDBRANCH   1   7
BRANCH   3  23
ATOM     23  C   UNL     1      -7.238  -0.564  -0.803  0.00  0.00    +0.244 C 
ATOM     24  O   UNL     1      -7.477   0.397  -0.096  0.00  0.00    -0.282 OA
BRANCH  23  25
ATOM     25  C   UNL     1      -8.309  -1.143  -1.660  0.00  0.00    +0.288 C 
ATOM     26  O   UNL     1      -8.070  -2.102  -2.366  0.00  0.00    -0.266 OA
ATOM     27  N   UNL     1      -9.544  -0.604  -1.652  0.00  0.00    -0.278 N 
ATOM     28  H   UNL     1      -9.719   0.201  -1.139  0.00  0.00    +0.155 HD
BRANCH  27  29
ATOM     29  C   UNL     1     -10.570  -1.202  -2.379  0.00  0.00    +0.051 A 
ATOM     30  C   UNL     1     -10.297  -1.820  -3.592  0.00  0.00    +0.027 A 
ATOM     31  C   UNL     1     -11.316  -2.412  -4.311  0.00  0.00    +0.034 A 
ATOM     32  C   UNL     1     -12.615  -2.395  -3.831  0.00  0.00    +0.128 A 
ATOM     33  C   UNL     1     -12.905  -1.787  -2.629  0.00  0.00    +0.053 A 
ATOM     34  C   UNL     1     -11.884  -1.188  -1.887  0.00  0.00    +0.075 A 
BRANCH  32  35
ATOM     35  N   UNL     1     -13.698  -3.034  -4.614  0.00  0.00    +0.056 N 
ATOM     36  O   UNL     1     -13.447  -3.568  -5.669  0.00  0.00    -0.126 OA
ATOM     37  O   UNL     1     -14.833  -3.021  -4.198  0.00  0.00    -0.126 OA
ENDBRANCH  32  35
BRANCH  34  38
ATOM     38  C   UNL     1     -12.178  -0.558  -0.635  0.00  0.00    +0.101 C 
ATOM     39  N   UNL     1     -12.411  -0.059   0.358  0.00  0.00    -0.191 NA
ENDBRANCH  34  38
ENDBRANCH  27  29
ENDBRANCH  23  25
ENDBRANCH   3  23
TORSDOF 7
