REMARK  Name = ZINC40645189
REMARK  9 active torsions:
REMARK  status: ('A' for Active; 'I' for Inactive)
REMARK    1  A    between atoms: C_1  and  C_2
REMARK    2  A    between atoms: C_2  and  C_31
REMARK    3  A    between atoms: C_4  and  N_10
REMARK    4  A    between atoms: C_6  and  C_8
REMARK    5  A    between atoms: C_6  and  C_9
REMARK    6  A    between atoms: C_12  and  N_28
REMARK    7  A    between atoms: C_13  and  N_17
REMARK    8  A    between atoms: N_17  and  C_18
REMARK    9  A    between atoms: C_22  and  C_24
REMARK                            x       y       z     vdW  Elec       q    Type
REMARK                         _______ _______ _______ _____ _____    ______ ____
ROOT
ATOM      1  N   UNL     1       2.830  -1.057  -2.436  0.00  0.00    -0.324 N 
ATOM      2  C   UNL     1       3.898  -0.425  -3.054  0.00  0.00    +0.155 A 
ATOM      3  C   UNL     1       4.422  -0.924  -4.243  0.00  0.00    +0.205 A 
ATOM      4  C   UNL     1       5.494  -0.254  -4.824  0.00  0.00    +0.159 A 
ATOM      5  N   UNL     1       5.976   0.835  -4.226  0.00  0.00    -0.218 NA
ATOM      6  C   UNL     1       5.452   1.276  -3.101  0.00  0.00    +0.225 A 
ATOM      7  N   UNL     1       4.434   0.672  -2.522  0.00  0.00    -0.218 NA
ATOM      8  H   UNL     1       2.446  -1.856  -2.829  0.00  0.00    +0.148 HD
ENDROOT
BRANCH   1  12
ATOM      9  C   UNL     1      -0.032   1.071   0.149  0.00  0.00    -0.010 C 
ATOM     10  C   UNL     1       0.237  -0.433   0.264  0.00  0.00    -0.072 C 
ATOM     11  C   UNL     1       0.824  -0.954  -1.044  0.00  0.00    +0.009 C 
ATOM     12  C   UNL     1       2.282  -0.518  -1.185  0.00  0.00    +0.069 C 
ATOM     13  C   UNL     1       3.067  -1.088  -0.003  0.00  0.00    +0.009 C 
ATOM     14  C   UNL     1       2.497  -0.569   1.313  0.00  0.00    -0.072 C 
ATOM     15  N   UNL     1       1.058  -0.736   1.423  0.00  0.00    +0.386 N 
ATOM     16  C   UNL     1       2.905   0.894   1.513  0.00  0.00    -0.010 C 
ATOM     17  C   UNL     1       3.153  -1.383   2.453  0.00  0.00    -0.010 C 
ATOM     18  C   UNL     1      -1.131  -1.125   0.464  0.00  0.00    -0.010 C 
ATOM     19  H   UNL     1       0.728  -0.166   2.208  0.00  0.00    -0.084 HD
ATOM     20  H   UNL     1       0.869  -1.703   1.706  0.00  0.00    -0.084 HD
ENDBRANCH   1  12
BRANCH   3  21
ATOM     21  N   UNL     1       3.854  -2.138  -4.872  0.00  0.00    +0.063 N 
ATOM     22  O   UNL     1       2.954  -2.039  -5.674  0.00  0.00    -0.126 OA
ATOM     23  O   UNL     1       4.290  -3.228  -4.585  0.00  0.00    -0.126 OA
ENDBRANCH   3  21
BRANCH   4  24
ATOM     24  N   UNL     1       6.052  -0.711  -6.008  0.00  0.00    -0.297 N 
ATOM     25  H   UNL     1       5.648  -1.458  -6.479  0.00  0.00    +0.154 HD
BRANCH  24  26
ATOM     26  C   UNL     1       7.197  -0.098  -6.525  0.00  0.00    +0.033 A 
ATOM     27  C   UNL     1       7.351   0.045  -7.898  0.00  0.00    +0.023 A 
ATOM     28  C   UNL     1       8.483   0.652  -8.405  0.00  0.00    +0.002 A 
ATOM     29  C   UNL     1       9.463   1.117  -7.547  0.00  0.00    +0.012 A 
ATOM     30  C   UNL     1       9.312   0.977  -6.180  0.00  0.00    +0.057 A 
ATOM     31  C   UNL     1       8.180   0.376  -5.666  0.00  0.00    +0.035 A 
BRANCH  30  32
ATOM     32  C   UNL     1      10.383   1.485  -5.249  0.00  0.00    +0.417 C 
ATOM     33  F   UNL     1      11.420   2.053  -5.997  0.00  0.00    -0.166 F 
ATOM     34  F   UNL     1       9.840   2.451  -4.396  0.00  0.00    -0.166 F 
ATOM     35  F   UNL     1      10.884   0.421  -4.490  0.00  0.00    -0.166 F 
ENDBRANCH  30  32
ENDBRANCH  24  26
ENDBRANCH   4  24
TORSDOF 5
