REMARK  Name = ZINC01036307
REMARK  5 active torsions:
REMARK  status: ('A' for Active; 'I' for Inactive)
REMARK    1  A    between atoms: C_3  and  N_24
REMARK    2  A    between atoms: C_4  and  O_8
REMARK    3  A    between atoms: O_8  and  C_9
REMARK    4  A    between atoms: C_12  and  S_15
REMARK    5  A    between atoms: S_15  and  N_18
REMARK                            x       y       z     vdW  Elec       q    Type
REMARK                         _______ _______ _______ _____ _____    ______ ____
ROOT
ATOM      1  C   UNL     1       0.002  -0.004   0.002  0.00  0.00    +0.129 A 
ATOM      2  C   UNL     1      -0.017   1.383   0.010  0.00  0.00    +0.048 A 
ATOM      3  C   UNL     1       1.171   2.089   0.002  0.00  0.00    +0.032 A 
ATOM      4  C   UNL     1       2.377   1.414  -0.013  0.00  0.00    +0.106 A 
ATOM      5  C   UNL     1       2.399   0.032  -0.021  0.00  0.00    +0.032 A 
ATOM      6  C   UNL     1       1.214  -0.679  -0.013  0.00  0.00    +0.048 A 
ENDROOT
BRANCH   4   7
ATOM      7  S   UNL     1       3.890   2.317  -0.023  0.00  0.00    +0.061 S 
ATOM      8  O   UNL     1       3.606   3.592   0.538  0.00  0.00    -0.153 OA
ATOM      9  O   UNL     1       4.883   1.453   0.514  0.00  0.00    -0.153 OA
BRANCH   7  10
ATOM     10  N   UNL     1       4.296   2.577  -1.607  0.00  0.00    -0.172 NA
ATOM     11  C   UNL     1       5.133   1.615  -2.342  0.00  0.00    +0.137 C 
ATOM     12  C   UNL     1       4.428   1.280  -3.666  0.00  0.00    +0.177 C 
ATOM     13  O   UNL     1       4.109   2.496  -4.349  0.00  0.00    -0.377 OA
ATOM     14  C   UNL     1       3.197   3.341  -3.644  0.00  0.00    +0.177 C 
ATOM     15  C   UNL     1       3.834   3.779  -2.320  0.00  0.00    +0.137 C 
ENDBRANCH   7  10
ENDBRANCH   4   7
BRANCH   1  16
ATOM     16  O   UNL     1      -1.165  -0.701   0.010  0.00  0.00    -0.453 OA
BRANCH  16  20
ATOM     17  C   UNL     1      -0.960  -4.827  -0.015  0.00  0.00    +0.003 A 
ATOM     18  C   UNL     1      -0.982  -4.149   1.189  0.00  0.00    +0.026 A 
ATOM     19  C   UNL     1      -1.051  -2.763   1.203  0.00  0.00    +0.069 A 
ATOM     20  C   UNL     1      -1.097  -2.059   0.002  0.00  0.00    +0.167 A 
ATOM     21  C   UNL     1      -1.081  -2.747  -1.201  0.00  0.00    +0.085 A 
ATOM     22  C   UNL     1      -1.006  -4.129  -1.207  0.00  0.00    +0.024 A 
ATOM     23 CL   UNL     1      -1.146  -1.875  -2.701  0.00  0.00    -0.080 Cl
BRANCH  19  24
ATOM     24  N   UNL     1      -1.073  -2.074   2.421  0.00  0.00    -0.355 N 
ATOM     25  H   UNL     1      -1.120  -1.106   2.430  0.00  0.00    +0.142 HD
ATOM     26  H   UNL     1      -1.040  -2.566   3.257  0.00  0.00    +0.142 HD
ENDBRANCH  19  24
ENDBRANCH  16  20
ENDBRANCH   1  16
TORSDOF 5
