REMARK  Name = ZINC23617825
REMARK  4 active torsions:
REMARK  status: ('A' for Active; 'I' for Inactive)
REMARK    1  A    between atoms: C_1  and  N_2
REMARK    2  A    between atoms: C_11  and  C_14
REMARK    3  A    between atoms: C_14  and  N_15
REMARK    4  A    between atoms: C_18  and  C_25
REMARK                            x       y       z     vdW  Elec       q    Type
REMARK                         _______ _______ _______ _____ _____    ______ ____
ROOT
ATOM      1  N   UNL     1       2.293   3.042  -2.338  0.00  0.00    -0.324 N 
ATOM      2  C   UNL     1       3.412   2.253  -2.143  0.00  0.00    +0.131 A 
ATOM      3  C   UNL     1       3.460   1.328  -1.066  0.00  0.00    +0.055 A 
ATOM      4  C   UNL     1       2.460   1.034  -0.045  0.00  0.00    +0.002 A 
ATOM      5  C   UNL     1       2.741   0.100   0.893  0.00  0.00    +0.056 A 
ATOM      6  S   UNL     1       4.377  -0.453   0.452  0.00  0.00    -0.076 S 
ATOM      7  C   UNL     1       4.650   0.578  -0.965  0.00  0.00    +0.114 A 
ATOM      8  N   UNL     1       5.640   0.740  -1.822  0.00  0.00    -0.228 NA
ATOM      9  C   UNL     1       5.537   1.616  -2.802  0.00  0.00    +0.224 A 
ATOM     10  N   UNL     1       4.451   2.352  -2.957  0.00  0.00    -0.220 NA
ATOM     11  H   UNL     1       1.476   3.030  -1.602  0.00  0.00    +0.148 HD
ENDROOT
BRANCH   4  12
ATOM     12  C   UNL     1       1.162   1.750  -0.033  0.00  0.00    -0.017 A 
ATOM     13  C   UNL     1       0.792   2.508   1.077  0.00  0.00    +0.010 A 
ATOM     14  C   UNL     1      -0.420   3.168   1.086  0.00  0.00    +0.020 A 
ATOM     15  C   UNL     1      -1.263   3.088  -0.009  0.00  0.00    +0.041 A 
ATOM     16  C   UNL     1      -0.900   2.337  -1.115  0.00  0.00    +0.020 A 
ATOM     17  C   UNL     1       0.307   1.668  -1.131  0.00  0.00    +0.010 A 
ATOM     18 CL   UNL     1      -2.782   3.927   0.005  0.00  0.00    -0.084 Cl
ENDBRANCH   4  12
BRANCH   1  19
ATOM     19  C   UNL     1       2.196   3.895  -3.525  0.00  0.00    +0.139 C 
BRANCH  19  30
ATOM     20  C   UNL     1      -6.797   7.574  -2.884  0.00  0.00    +0.105 C 
ATOM     21  N   UNL     1      -5.497   6.889  -2.878  0.00  0.00    -0.302 NA
ATOM     22  C   UNL     1      -5.068   6.562  -4.244  0.00  0.00    +0.103 C 
ATOM     23  C   UNL     1      -3.752   5.782  -4.190  0.00  0.00    +0.122 C 
ATOM     24  N   UNL     1      -2.735   6.588  -3.500  0.00  0.00    -0.314 N 
ATOM     25  C   UNL     1      -3.165   6.915  -2.134  0.00  0.00    +0.122 C 
ATOM     26  C   UNL     1      -4.480   7.696  -2.188  0.00  0.00    +0.103 C 
ATOM     27  C   UNL     1      -1.506   5.940  -3.494  0.00  0.00    +0.099 A 
ATOM     28  C   UNL     1      -0.410   6.546  -2.886  0.00  0.00    +0.042 A 
ATOM     29  C   UNL     1       0.807   5.890  -2.887  0.00  0.00    +0.010 A 
ATOM     30  C   UNL     1       0.889   4.646  -3.499  0.00  0.00    -0.014 A 
ATOM     31  C   UNL     1      -0.236   4.107  -4.088  0.00  0.00    +0.089 A 
ATOM     32  N   UNL     1      -1.387   4.753  -4.067  0.00  0.00    -0.349 N 
ATOM     33  H   UNL     1      -2.260   4.281  -4.541  0.00  0.00    +0.167 HD
ENDBRANCH  19  30
ENDBRANCH   1  19
TORSDOF 3
