REMARK  Name = ZINC16312055
REMARK  15 active torsions:
REMARK  status: ('A' for Active; 'I' for Inactive)
REMARK    1  A    between atoms: C_1  and  C_2
REMARK    2  A    between atoms: C_5  and  N_9
REMARK    3  A    between atoms: C_7  and  C_8
REMARK    4  A    between atoms: C_13  and  N_14
REMARK    5  A    between atoms: N_14  and  C_15
REMARK    6  A    between atoms: C_18  and  S_21
REMARK    7  A    between atoms: S_21  and  N_24
REMARK    8  A    between atoms: N_24  and  C_25
REMARK    9  A    between atoms: C_25  and  C_26
REMARK   10  A    between atoms: C_25  and  C_28
REMARK   11  A    between atoms: C_25  and  C_30
REMARK   12  A    between atoms: C_26  and  O_27
REMARK   13  A    between atoms: C_28  and  O_29
REMARK   14  A    between atoms: C_30  and  O_31
REMARK   15  A    between atoms: C_32  and  C_34
REMARK                            x       y       z     vdW  Elec       q    Type
REMARK                         _______ _______ _______ _____ _____    ______ ____
ROOT
ATOM      1  C   UNL     1       2.462  -9.652  -2.873  0.00  0.00    +0.031 A 
ATOM      2  C   UNL     1       1.974 -10.258  -4.024  0.00  0.00    +0.025 A 
ATOM      3  C   UNL     1       1.957 -11.636  -4.122  0.00  0.00    +0.030 A 
ATOM      4  C   UNL     1       2.425 -12.411  -3.077  0.00  0.00    +0.105 A 
ATOM      5  C   UNL     1       2.910 -11.810  -1.930  0.00  0.00    +0.030 A 
ATOM      6  C   UNL     1       2.936 -10.433  -1.827  0.00  0.00    +0.025 A 
ENDROOT
BRANCH   4   7
ATOM      7  S   UNL     1       2.401 -14.168  -3.206  0.00  0.00    +0.059 S 
ATOM      8  O   UNL     1       2.149 -14.668  -1.900  0.00  0.00    -0.153 OA
ATOM      9  O   UNL     1       1.571 -14.482  -4.316  0.00  0.00    -0.153 OA
BRANCH   7  10
ATOM     10  N   UNL     1       3.933 -14.650  -3.610  0.00  0.00    -0.177 NA
ATOM     11  H   UNL     1       4.472 -15.140  -2.969  0.00  0.00    +0.149 HD
BRANCH  10  12
ATOM     12  C   UNL     1       4.474 -14.336  -4.935  0.00  0.00    +0.109 C 
BRANCH  12  13
ATOM     13  C   UNL     1       4.390 -12.828  -5.176  0.00  0.00    +0.184 C 
BRANCH  13  14
ATOM     14  O   UNL     1       5.022 -12.137  -4.096  0.00  0.00    -0.393 OA
ATOM     15  H   UNL     1       5.006 -11.174  -4.182  0.00  0.00    +0.209 HD
ENDBRANCH  13  14
ENDBRANCH  12  13
BRANCH  12  16
ATOM     16  C   UNL     1       5.936 -14.783  -5.007  0.00  0.00    +0.184 C 
BRANCH  16  17
ATOM     17  O   UNL     1       6.464 -14.477  -6.300  0.00  0.00    -0.393 OA
ATOM     18  H   UNL     1       7.389 -14.734  -6.417  0.00  0.00    +0.209 HD
ENDBRANCH  16  17
ENDBRANCH  12  16
BRANCH  12  19
ATOM     19  C   UNL     1       3.663 -15.070  -6.004  0.00  0.00    +0.184 C 
BRANCH  19  20
ATOM     20  O   UNL     1       3.623 -16.465  -5.698  0.00  0.00    -0.393 OA
ATOM     21  H   UNL     1       3.123 -16.993  -6.336  0.00  0.00    +0.209 HD
ENDBRANCH  19  20
ENDBRANCH  12  19
ENDBRANCH  10  12
ENDBRANCH   7  10
ENDBRANCH   4   7
BRANCH   1  22
ATOM     22  N   UNL     1       2.480  -8.258  -2.771  0.00  0.00    -0.320 N 
ATOM     23  H   UNL     1       2.824  -7.835  -1.969  0.00  0.00    +0.152 HD
BRANCH  22  28
ATOM     24  N   UNL     1       1.617  -3.936  -4.061  0.00  0.00    -0.156 N 
ATOM     25  C   UNL     1       1.577  -5.139  -4.670  0.00  0.00    +0.273 C 
ATOM     26  O   UNL     1       1.306  -5.361  -5.838  0.00  0.00    -0.268 OA
ATOM     27  C   UNL     1       1.927  -6.126  -3.641  0.00  0.00    +0.075 C 
ATOM     28  C   UNL     1       2.019  -7.500  -3.788  0.00  0.00    +0.087 C 
ATOM     29  C   UNL     1       2.158  -5.338  -2.421  0.00  0.00    +0.070 C 
ATOM     30  N   UNL     1       1.971  -4.089  -2.721  0.00  0.00    -0.176 NA
ATOM     31  C   UNL     1       2.545  -5.882  -1.071  0.00  0.00    +0.068 C 
BRANCH  24  36
ATOM     32  C   UNL     1       0.522   1.025  -6.588  0.00  0.00    +0.044 C 
ATOM     33  C   UNL     1       0.812  -0.293  -5.917  0.00  0.00    -0.047 A 
ATOM     34  C   UNL     1       0.736  -1.468  -6.642  0.00  0.00    +0.005 A 
ATOM     35  C   UNL     1       1.002  -2.677  -6.030  0.00  0.00    +0.026 A 
ATOM     36  C   UNL     1       1.347  -2.712  -4.685  0.00  0.00    +0.061 A 
ATOM     37  C   UNL     1       1.423  -1.530  -3.960  0.00  0.00    +0.029 A 
ATOM     38  C   UNL     1       1.161  -0.323  -4.579  0.00  0.00    -0.046 A 
ATOM     39  C   UNL     1       1.249   0.960  -3.795  0.00  0.00    +0.044 C 
ENDBRANCH  24  36
ENDBRANCH  22  28
ENDBRANCH   1  22
TORSDOF 12
