REMARK  Name = ZINC65301210
REMARK  7 active torsions:
REMARK  status: ('A' for Active; 'I' for Inactive)
REMARK    1  A    between atoms: C_1  and  C_2
REMARK    2  A    between atoms: C_5  and  N_8
REMARK    3  A    between atoms: C_9  and  C_11
REMARK    4  A    between atoms: N_14  and  C_17
REMARK    5  A    between atoms: C_18  and  C_27
REMARK    6  A    between atoms: C_23  and  C_26
REMARK    7  A    between atoms: C_32  and  C_35
REMARK                            x       y       z     vdW  Elec       q    Type
REMARK                         _______ _______ _______ _____ _____    ______ ____
ROOT
ATOM      1  C   UNL     1      -1.858 -10.270   3.013  0.00  0.00    +0.055 A 
ATOM      2  C   UNL     1      -3.074 -10.405   3.699  0.00  0.00    +0.074 A 
ATOM      3  C   UNL     1      -3.525 -11.676   4.077  0.00  0.00    +0.098 A 
ATOM      4  N   UNL     1      -2.816 -12.748   3.795  0.00  0.00    -0.353 N 
ATOM      5  C   UNL     1      -1.668 -12.669   3.153  0.00  0.00    +0.107 A 
ATOM      6  C   UNL     1      -1.116 -11.443   2.715  0.00  0.00    +0.050 A 
ATOM      7  C   UNL     1       0.110 -11.603   2.047  0.00  0.00    +0.058 A 
ATOM      8  N   UNL     1       0.623 -12.782   1.878  0.00  0.00    -0.213 NA
ATOM      9  S   UNL     1      -0.455 -13.841   2.603  0.00  0.00    +0.030 S 
ATOM     10  C   UNL     1       0.836 -10.392   1.522  0.00  0.00    +0.067 C 
ATOM     11  H   UNL     1      -3.146 -13.619   4.066  0.00  0.00    +0.166 HD
ENDROOT
BRANCH   2  12
ATOM     12  C   UNL     1      -3.875  -9.213   4.021  0.00  0.00    +0.250 C 
ATOM     13  O   UNL     1      -3.384  -8.307   4.667  0.00  0.00    -0.270 OA
ATOM     14  N   UNL     1      -5.153  -9.127   3.602  0.00  0.00    -0.297 N 
ATOM     15  C   UNL     1      -5.790 -10.253   2.906  0.00  0.00    +0.108 C 
ATOM     16  C   UNL     1      -6.366  -9.750   1.578  0.00  0.00    +0.022 C 
ATOM     17  C   UNL     1      -7.300  -8.567   1.848  0.00  0.00    -0.011 C 
ATOM     18  C   UNL     1      -6.509  -7.428   2.494  0.00  0.00    +0.022 C 
ATOM     19  C   UNL     1      -5.936  -7.906   3.837  0.00  0.00    +0.108 C 
ATOM     20  C   UNL     1      -7.904  -8.084   0.528  0.00  0.00    +0.007 C 
ENDBRANCH   2  12
BRANCH   1  24
ATOM     21  C   UNL     1      -1.317  -6.204   2.461  0.00  0.00    +0.078 C 
ATOM     22  C   UNL     1      -2.410  -6.995   1.737  0.00  0.00    +0.031 C 
ATOM     23  C   UNL     1      -1.884  -8.393   1.399  0.00  0.00    +0.106 C 
ATOM     24  N   UNL     1      -1.397  -9.026   2.632  0.00  0.00    -0.329 N 
ATOM     25  C   UNL     1      -0.411  -8.310   3.452  0.00  0.00    +0.106 C 
ATOM     26  C   UNL     1      -0.953  -6.913   3.768  0.00  0.00    +0.031 C 
BRANCH  21  28
ATOM     27  N   UNL     1      -2.200  -4.003   1.760  0.00  0.00    -0.285 N 
ATOM     28  C   UNL     1      -1.819  -4.816   2.765  0.00  0.00    +0.220 C 
ATOM     29  O   UNL     1      -1.880  -4.431   3.913  0.00  0.00    -0.275 OA
ATOM     30  H   UNL     1      -2.223  -4.335   0.849  0.00  0.00    +0.155 HD
BRANCH  27  35
ATOM     31  C   UNL     1      -3.670   1.365   2.860  0.00  0.00    +0.044 C 
ATOM     32  C   UNL     1      -3.280  -0.061   2.568  0.00  0.00    -0.050 A 
ATOM     33  C   UNL     1      -2.288  -0.671   3.313  0.00  0.00    +0.005 A 
ATOM     34  C   UNL     1      -1.928  -1.978   3.048  0.00  0.00    +0.023 A 
ATOM     35  C   UNL     1      -2.563  -2.679   2.032  0.00  0.00    +0.033 A 
ATOM     36  C   UNL     1      -3.559  -2.063   1.285  0.00  0.00    +0.023 A 
ATOM     37  C   UNL     1      -3.918  -0.758   1.559  0.00  0.00    +0.005 A 
ENDBRANCH  27  35
ENDBRANCH  21  28
ENDBRANCH   1  24
TORSDOF 4
