REMARK  Name = ZINC36563861
REMARK  13 active torsions:
REMARK  status: ('A' for Active; 'I' for Inactive)
REMARK    1  A    between atoms: C_1  and  C_2
REMARK    2  A    between atoms: C_2  and  C_3
REMARK    3  A    between atoms: C_3  and  C_4
REMARK    4  A    between atoms: C_4  and  C_5
REMARK    5  A    between atoms: C_5  and  C_6
REMARK    6  A    between atoms: C_7  and  C_8
REMARK    7  A    between atoms: N_10  and  C_11
REMARK    8  A    between atoms: N_10  and  C_14
REMARK    9  A    between atoms: C_11  and  C_12
REMARK   10  A    between atoms: C_12  and  C_13
REMARK   11  A    between atoms: C_14  and  C_16
REMARK   12  A    between atoms: C_14  and  C_23
REMARK   13  A    between atoms: N_25  and  C_26
REMARK                            x       y       z     vdW  Elec       q    Type
REMARK                         _______ _______ _______ _____ _____    ______ ____
ROOT
ATOM      1  C   UNL     1       3.758  -8.660   2.779  0.00  0.00    +0.192 C 
ENDROOT
BRANCH   1   2
ATOM      2  C   UNL     1       4.612  -8.351   3.982  0.00  0.00    -0.018 A 
ATOM      3  C   UNL     1       5.491  -7.285   3.950  0.00  0.00    +0.007 A 
ATOM      4  C   UNL     1       6.274  -7.001   5.053  0.00  0.00    +0.020 A 
ATOM      5  C   UNL     1       6.178  -7.784   6.189  0.00  0.00    +0.041 A 
ATOM      6  C   UNL     1       5.298  -8.851   6.221  0.00  0.00    +0.020 A 
ATOM      7  C   UNL     1       4.511  -9.130   5.119  0.00  0.00    +0.007 A 
ATOM      8 CL   UNL     1       7.162  -7.429   7.574  0.00  0.00    -0.084 Cl
ENDBRANCH   1   2
BRANCH   1   9
ATOM      9  C   UNL     1       4.537  -9.518   1.817  0.00  0.00    +0.238 C 
ATOM     10  O   UNL     1       5.429  -9.032   1.155  0.00  0.00    -0.273 OA
ATOM     11  N   UNL     1       4.243 -10.828   1.692  0.00  0.00    -0.311 N 
ATOM     12  H   UNL     1       3.529 -11.217   2.221  0.00  0.00    +0.149 HD
BRANCH  11  13
ATOM     13  C   UNL     1       5.000 -11.663   0.756  0.00  0.00    +0.073 C 
ATOM     14  C   UNL     1       4.392 -11.542  -0.642  0.00  0.00    +0.022 C 
ATOM     15  C   UNL     1       5.184 -12.414  -1.619  0.00  0.00    +0.002 C 
ATOM     16  C   UNL     1       5.127 -13.873  -1.162  0.00  0.00    +0.000 C 
ATOM     17  C   UNL     1       5.735 -13.994   0.236  0.00  0.00    +0.002 C 
ATOM     18  C   UNL     1       4.943 -13.122   1.213  0.00  0.00    +0.022 C 
ENDBRANCH  11  13
ENDBRANCH   1   9
BRANCH   1  21
ATOM     19  C   UNL     1       2.612  -6.509   2.769  0.00  0.00    +0.240 C 
ATOM     20  O   UNL     1       2.241  -6.735   3.905  0.00  0.00    -0.271 OA
ATOM     21  N   UNL     1       3.375  -7.410   2.118  0.00  0.00    -0.282 N 
BRANCH  19  23
ATOM     22  C   UNL     1       1.475  -4.366   2.748  0.00  0.00    -0.022 C 
ATOM     23  C   UNL     1       2.228  -5.254   2.105  0.00  0.00    +0.063 C 
BRANCH  22  24
ATOM     24  C   UNL     1       1.081  -3.080   2.068  0.00  0.00    +0.027 C 
BRANCH  24  25
ATOM     25  C   UNL     1      -0.442  -2.935   2.093  0.00  0.00    +0.004 C 
BRANCH  25  26
ATOM     26  C   UNL     1      -0.842  -1.629   1.403  0.00  0.00    +0.000 C 
BRANCH  26  28
ATOM     27  C   UNL     1      -2.764  -0.179   0.738  0.00  0.00    +0.004 C 
ATOM     28  C   UNL     1      -2.365  -1.484   1.429  0.00  0.00    -0.003 C 
ENDBRANCH  26  28
ENDBRANCH  25  26
ENDBRANCH  24  25
ENDBRANCH  22  24
ENDBRANCH  19  23
BRANCH  21  29
ATOM     29  C   UNL     1       3.822  -7.138   0.750  0.00  0.00    +0.109 C 
BRANCH  29  30
ATOM     30  C   UNL     1       5.082  -6.271   0.787  0.00  0.00    +0.016 C 
ATOM     31  C   UNL     1       5.503  -5.922  -0.642  0.00  0.00    +0.005 C 
ENDBRANCH  29  30
ENDBRANCH  21  29
ENDBRANCH   1  21
TORSDOF 11
