REMARK  Name = ZINC01051039
REMARK  9 active torsions:
REMARK  status: ('A' for Active; 'I' for Inactive)
REMARK    1  A    between atoms: C_1  and  C_2
REMARK    2  A    between atoms: C_2  and  C_3
REMARK    3  A    between atoms: C_11  and  C_18
REMARK    4  A    between atoms: C_13  and  N_17
REMARK    5  A    between atoms: C_14  and  C_15
REMARK    6  A    between atoms: C_21  and  N_24
REMARK    7  A    between atoms: C_30  and  C_34
REMARK    8  A    between atoms: C_30  and  C_35
REMARK    9  A    between atoms: C_32  and  C_33
REMARK                            x       y       z     vdW  Elec       q    Type
REMARK                         _______ _______ _______ _____ _____    ______ ____
ROOT
ATOM      1  C   UNL     1      -6.297   3.836  -3.573  0.00  0.00    -0.047 A 
ATOM      2  C   UNL     1      -7.469   3.148  -3.313  0.00  0.00    +0.013 A 
ATOM      3  C   UNL     1      -7.750   2.749  -2.006  0.00  0.00    -0.000 A 
ATOM      4  C   UNL     1      -6.830   3.062  -1.013  0.00  0.00    +0.049 A 
ATOM      5  C   UNL     1      -5.665   3.747  -1.269  0.00  0.00    -0.001 A 
ATOM      6  C   UNL     1      -5.394   4.138  -2.563  0.00  0.00    +0.010 A 
ATOM      7  C   UNL     1      -4.987   3.865   0.070  0.00  0.00    +0.135 C 
ATOM      8  C   UNL     1      -3.655   3.175   0.048  0.00  0.00    +0.046 C 
ATOM      9  C   UNL     1      -2.524   3.870   0.046  0.00  0.00    +0.135 C 
ATOM     10  O   UNL     1      -2.515   5.222   0.054  0.00  0.00    -0.441 OA
ATOM     11  C   UNL     1      -3.613   5.902   0.430  0.00  0.00    +0.199 C 
ATOM     12  C   UNL     1      -4.833   5.308   0.458  0.00  0.00    +0.109 C 
ATOM     13  C   UNL     1      -5.925   3.166   1.034  0.00  0.00    +0.240 C 
ATOM     14  O   UNL     1      -5.756   3.026   2.228  0.00  0.00    -0.274 OA
ATOM     15  N   UNL     1      -6.981   2.727   0.319  0.00  0.00    -0.260 N 
ATOM     16  C   UNL     1      -8.203   1.992   0.693  0.00  0.00    +0.055 C 
ATOM     17  C   UNL     1      -9.198   1.656  -0.393  0.00  0.00    +0.002 C 
ATOM     18  C   UNL     1      -8.979   2.013  -1.654  0.00  0.00    -0.043 C 
ATOM     19  C   UNL     1      -9.984   1.668  -2.722  0.00  0.00    +0.044 C 
ATOM     20  C   UNL     1      -8.934   2.817   1.754  0.00  0.00    +0.036 C 
ATOM     21  C   UNL     1      -7.771   0.680   1.350  0.00  0.00    +0.036 C 
ENDROOT
BRANCH   9  22
ATOM     22  C   UNL     1      -1.235   3.143   0.030  0.00  0.00    +0.017 A 
ATOM     23  C   UNL     1      -1.218   1.748   0.017  0.00  0.00    +0.014 A 
ATOM     24  C   UNL     1      -0.013   1.076   0.008  0.00  0.00    +0.033 A 
ATOM     25  C   UNL     1       1.177   1.782   0.000  0.00  0.00    +0.126 A 
ATOM     26  C   UNL     1       1.166   3.166   0.008  0.00  0.00    +0.033 A 
ATOM     27  C   UNL     1      -0.032   3.849   0.023  0.00  0.00    +0.014 A 
BRANCH  25  28
ATOM     28  N   UNL     1       2.466   1.055  -0.016  0.00  0.00    +0.056 N 
ATOM     29  O   UNL     1       2.478  -0.163  -0.022  0.00  0.00    -0.126 OA
ATOM     30  O   UNL     1       3.515   1.675  -0.022  0.00  0.00    -0.126 OA
ENDBRANCH  25  28
ENDBRANCH   9  22
BRANCH  11  31
ATOM     31  N   UNL     1      -3.498   7.221   0.791  0.00  0.00    -0.328 N 
ATOM     32  H   UNL     1      -2.630   7.655   0.773  0.00  0.00    +0.145 HD
ATOM     33  H   UNL     1      -4.284   7.720   1.063  0.00  0.00    +0.145 HD
ENDBRANCH  11  31
BRANCH   1  35
ATOM     34  C   UNL     1      -5.210   3.162  -5.698  0.00  0.00    +0.009 C 
ATOM     35  C   UNL     1      -5.993   4.266  -4.985  0.00  0.00    +0.032 C 
ENDBRANCH   1  35
BRANCH  12  36
ATOM     36  C   UNL     1      -5.982   6.062   0.862  0.00  0.00    +0.102 C 
ATOM     37  N   UNL     1      -6.893   6.660   1.183  0.00  0.00    -0.191 NA
ENDBRANCH  12  36
TORSDOF 5
