REMARK  Name = ZINC21127181
REMARK  6 active torsions:
REMARK  status: ('A' for Active; 'I' for Inactive)
REMARK    1  A    between atoms: C_6  and  C_7
REMARK    2  A    between atoms: C_12  and  S_16
REMARK    3  A    between atoms: S_16  and  C_17
REMARK    4  A    between atoms: C_17  and  C_18
REMARK    5  A    between atoms: N_20  and  C_21
REMARK    6  A    between atoms: C_22  and  C_29
REMARK                            x       y       z     vdW  Elec       q    Type
REMARK                         _______ _______ _______ _____ _____    ______ ____
ROOT
ATOM      1  C   UNL     1      -1.319   2.127   0.719  0.00  0.00    +0.172 C 
ENDROOT
BRANCH   1   2
ATOM      2  C   UNL     1      -0.003   1.396   0.785  0.00  0.00    +0.228 C 
ATOM      3  O   UNL     1       1.037   2.009   0.664  0.00  0.00    -0.275 OA
ATOM      4  N   UNL     1       0.019   0.062   0.974  0.00  0.00    -0.279 N 
ATOM      5  H   UNL     1      -0.924  -0.493   1.084  0.00  0.00    +0.155 HD
BRANCH   4   6
ATOM      6  C   UNL     1       1.230  -0.611   1.029  0.00  0.00    +0.084 A 
ATOM      7  C   UNL     1       1.455  -1.963   1.220  0.00  0.00    +0.068 A 
ATOM      8  C   UNL     1       2.843  -2.424   1.234  0.00  0.00    -0.023 A 
ATOM      9  C   UNL     1       3.766  -1.460   1.066  0.00  0.00    -0.004 A 
ATOM     10  S   UNL     1       2.828   0.037   0.885  0.00  0.00    -0.077 S 
ATOM     11  C   UNL     1       5.167  -2.009   1.094  0.00  0.00    +0.043 C 
ATOM     12  C   UNL     1       4.994  -3.528   0.873  0.00  0.00    +0.010 C 
ATOM     13  C   UNL     1       3.564  -3.762   1.401  0.00  0.00    +0.037 C 
BRANCH   7  14
ATOM     14  C   UNL     1       0.342  -2.901   1.397  0.00  0.00    +0.244 C 
ATOM     15  O   UNL     1      -0.158  -3.443   0.428  0.00  0.00    -0.270 OA
ATOM     16  N   UNL     1      -0.129  -3.162   2.632  0.00  0.00    -0.325 N 
ATOM     17  H   UNL     1      -0.965  -3.866   2.765  0.00  0.00    +0.145 HD
ATOM     18  H   UNL     1       0.322  -2.672   3.508  0.00  0.00    +0.145 HD
ENDBRANCH   7  14
ENDBRANCH   4   6
ENDBRANCH   1   2
BRANCH   1  19
ATOM     19  S   UNL     1      -1.017   3.892   0.459  0.00  0.00    -0.096 S 
BRANCH  19  25
ATOM     20  C   UNL     1      -2.014   6.978   0.050  0.00  0.00    +0.001 A 
ATOM     21  C   UNL     1      -2.513   8.225  -0.112  0.00  0.00    +0.056 A 
ATOM     22  S   UNL     1      -4.277   7.981  -0.026  0.00  0.00    -0.076 S 
ATOM     23  C   UNL     1      -4.306   6.226   0.223  0.00  0.00    +0.113 A 
ATOM     24  C   UNL     1      -2.942   5.868   0.239  0.00  0.00    +0.047 A 
ATOM     25  C   UNL     1      -2.677   4.484   0.422  0.00  0.00    +0.109 A 
ATOM     26  N   UNL     1      -3.691   3.646   0.570  0.00  0.00    -0.229 NA
ATOM     27  C   UNL     1      -4.947   4.052   0.548  0.00  0.00    +0.223 A 
ATOM     28  N   UNL     1      -5.255   5.323   0.378  0.00  0.00    -0.228 NA
BRANCH  20  34
ATOM     29  C   UNL     1       0.269   7.397   0.961  0.00  0.00    +0.011 A 
ATOM     30  C   UNL     1       1.630   7.173   0.952  0.00  0.00    +0.039 A 
ATOM     31  C   UNL     1       2.185   6.307   0.023  0.00  0.00    +0.123 A 
ATOM     32  C   UNL     1       1.376   5.659  -0.896  0.00  0.00    +0.039 A 
ATOM     33  C   UNL     1       0.013   5.873  -0.891  0.00  0.00    +0.011 A 
ATOM     34  C   UNL     1      -0.550   6.743   0.041  0.00  0.00    -0.016 A 
ATOM     35  F   UNL     1       3.519   6.094   0.014  0.00  0.00    -0.205 F 
ENDBRANCH  20  34
ENDBRANCH  19  25
ENDBRANCH   1  19
TORSDOF 6
