REMARK  Name = ZINC14739731
REMARK  6 active torsions:
REMARK  status: ('A' for Active; 'I' for Inactive)
REMARK    1  A    between atoms: C_1  and  C_2
REMARK    2  A    between atoms: C_12  and  C_14
REMARK    3  A    between atoms: C_18  and  S_20
REMARK    4  A    between atoms: S_20  and  N_23
REMARK    5  A    between atoms: C_25  and  C_32
REMARK    6  A    between atoms: C_28  and  C_31
REMARK                            x       y       z     vdW  Elec       q    Type
REMARK                         _______ _______ _______ _____ _____    ______ ____
ROOT
ATOM      1  C   UNL     1       1.204   3.475   0.056  0.00  0.00    +0.039 A 
ATOM      2  C   UNL     1      -0.030   4.124  -0.028  0.00  0.00    +0.014 A 
ATOM      3  C   UNL     1      -0.079   5.500  -0.093  0.00  0.00    +0.023 A 
ATOM      4  C   UNL     1       1.093   6.239  -0.085  0.00  0.00    +0.067 A 
ATOM      5  C   UNL     1       2.320   5.601  -0.008  0.00  0.00    +0.124 A 
ATOM      6  C   UNL     1       2.382   4.226   0.062  0.00  0.00    +0.043 A 
ATOM      7 CL   UNL     1       1.023   7.971  -0.174  0.00  0.00    -0.082 Cl
ENDROOT
BRANCH   1  19
ATOM      8  C   UNL     1       0.347  -6.474   0.511  0.00  0.00    +0.044 C 
ATOM      9  C   UNL     1       0.615  -4.993   0.448  0.00  0.00    -0.049 A 
ATOM     10  C   UNL     1       1.917  -4.514   0.473  0.00  0.00    +0.005 A 
ATOM     11  C   UNL     1       2.188  -3.172   0.418  0.00  0.00    +0.029 A 
ATOM     12  C   UNL     1       1.141  -2.226   0.332  0.00  0.00    +0.080 A 
ATOM     13  C   UNL     1      -0.172  -2.750   0.309  0.00  0.00    +0.041 A 
ATOM     14  C   UNL     1      -0.434  -4.096   0.366  0.00  0.00    +0.020 A 
ATOM     15  S   UNL     1      -1.164  -1.279   0.201  0.00  0.00    -0.052 S 
ATOM     16  C   UNL     1       0.181  -0.102   0.193  0.00  0.00    +0.166 A 
ATOM     17  N   UNL     1       1.236  -0.881   0.265  0.00  0.00    -0.225 NA
ATOM     18  N   UNL     1       0.125   1.280   0.123  0.00  0.00    -0.261 N 
ATOM     19  C   UNL     1       1.264   2.001   0.130  0.00  0.00    +0.250 C 
ATOM     20  O   UNL     1       2.339   1.439   0.198  0.00  0.00    -0.270 OA
ATOM     21  H   UNL     1      -0.733   1.728   0.065  0.00  0.00    +0.157 HD
ENDBRANCH   1  19
BRANCH   5  22
ATOM     22  S   UNL     1       3.804   6.550  -0.000  0.00  0.00    +0.062 S 
ATOM     23  O   UNL     1       3.615   7.594   0.945  0.00  0.00    -0.153 OA
ATOM     24  O   UNL     1       4.878   5.624   0.093  0.00  0.00    -0.153 OA
BRANCH  22  25
ATOM     25  N   UNL     1       3.931   7.273  -1.484  0.00  0.00    -0.172 NA
ATOM     26  C   UNL     1       3.476   8.657  -1.694  0.00  0.00    +0.140 C 
ATOM     27  C   UNL     1       4.610   9.436  -2.380  0.00  0.00    +0.131 C 
ATOM     28  O   UNL     1       5.030   8.722  -3.546  0.00  0.00    -0.371 OA
ATOM     29  C   UNL     1       5.576   7.429  -3.276  0.00  0.00    +0.131 C 
ATOM     30  C   UNL     1       4.497   6.550  -2.634  0.00  0.00    +0.140 C 
ATOM     31  C   UNL     1       6.047   6.789  -4.583  0.00  0.00    +0.039 C 
ATOM     32  C   UNL     1       5.790   9.583  -1.418  0.00  0.00    +0.039 C 
ENDBRANCH  22  25
ENDBRANCH   5  22
TORSDOF 3
