REMARK  Name = ZINC06684823
REMARK  5 active torsions:
REMARK  status: ('A' for Active; 'I' for Inactive)
REMARK    1  A    between atoms: C_1  and  C_2
REMARK    2  A    between atoms: C_2  and  C_3
REMARK    3  A    between atoms: C_6  and  S_17
REMARK    4  A    between atoms: N_7  and  N_8
REMARK    5  A    between atoms: C_9  and  C_10
REMARK                            x       y       z     vdW  Elec       q    Type
REMARK                         _______ _______ _______ _____ _____    ______ ____
ROOT
ATOM      1  C   UNL     1       4.299   6.384  -1.097  0.00  0.00    +0.155 A 
ATOM      2  N   UNL     1       5.355   7.012  -0.661  0.00  0.00    -0.132 NA
ATOM      3  N   UNL     1       5.373   7.009   0.624  0.00  0.00    -0.121 NA
ATOM      4  C   UNL     1       4.317   6.377   1.085  0.00  0.00    +0.209 A 
ATOM      5  N   UNL     1       3.600   5.952  -0.001  0.00  0.00    -0.191 N 
ENDROOT
BRANCH   1   7
ATOM      6  C   UNL     1       3.048   7.337  -3.015  0.00  0.00    +0.012 C 
ATOM      7  C   UNL     1       3.919   6.172  -2.540  0.00  0.00    +0.075 C 
ENDBRANCH   1   7
BRANCH   5   8
ATOM      8  N   UNL     1       2.398   5.232   0.007  0.00  0.00    -0.171 NA
ATOM      9  C   UNL     1       2.419   3.935  -0.000  0.00  0.00    +0.141 C 
BRANCH   9  10
ATOM     10  C   UNL     1       1.154   3.177   0.008  0.00  0.00    -0.003 A 
ATOM     11  C   UNL     1       1.173   1.780   0.000  0.00  0.00    +0.009 A 
ATOM     12  C   UNL     1      -0.013   1.076   0.008  0.00  0.00    +0.003 A 
ATOM     13  C   UNL     1      -1.221   1.749   0.017  0.00  0.00    +0.038 A 
ATOM     14  C   UNL     1      -1.249   3.135   0.031  0.00  0.00    +0.124 A 
ATOM     15  C   UNL     1      -0.068   3.852   0.023  0.00  0.00    +0.047 A 
ATOM     16  F   UNL     1      -2.433   3.785   0.046  0.00  0.00    -0.205 F 
ENDBRANCH   9  10
ENDBRANCH   5   8
BRANCH   4  17
ATOM     17  S   UNL     1       3.905   6.121   2.779  0.00  0.00    -0.102 S 
ATOM     18  H   UNL     1       4.562   4.895   3.008  0.00  0.00    +0.110 HD
ENDBRANCH   4  17
TORSDOF 4
