REMARK  Name = ZINC45850142
REMARK  10 active torsions:
REMARK  status: ('A' for Active; 'I' for Inactive)
REMARK    1  A    between atoms: C_1  and  C_2
REMARK    2  A    between atoms: C_2  and  C_3
REMARK    3  A    between atoms: C_3  and  C_4
REMARK    4  A    between atoms: C_8  and  S_10
REMARK    5  A    between atoms: S_10  and  C_11
REMARK    6  A    between atoms: C_11  and  C_13
REMARK    7  A    between atoms: C_11  and  C_14
REMARK    8  A    between atoms: N_19  and  C_20
REMARK    9  A    between atoms: C_23  and  C_27
REMARK   10  A    between atoms: C_25  and  C_26
REMARK                            x       y       z     vdW  Elec       q    Type
REMARK                         _______ _______ _______ _____ _____    ______ ____
ROOT
ATOM      1  C   UNL     1      -3.989  -4.128   3.621  0.00  0.00    +0.234 C 
ATOM      2  O   UNL     1      -4.271  -5.295   3.455  0.00  0.00    -0.274 OA
ATOM      3  N   UNL     1      -4.733  -3.365   4.447  0.00  0.00    -0.239 N 
ATOM      4  C   UNL     1      -5.790  -3.901   5.088  0.00  0.00    +0.310 C 
ATOM      5  O   UNL     1      -6.073  -5.071   4.922  0.00  0.00    -0.252 OA
ATOM      6  N   UNL     1      -6.534  -3.138   5.914  0.00  0.00    -0.269 N 
ATOM      7  H   UNL     1      -4.507  -2.431   4.580  0.00  0.00    +0.159 HD
ATOM      8  H   UNL     1      -6.262  -2.228   6.110  0.00  0.00    +0.156 HD
ENDROOT
BRANCH   6   9
ATOM      9  C   UNL     1      -7.699  -3.660   6.488  0.00  0.00    +0.038 A 
ATOM     10  C   UNL     1      -8.375  -4.701   5.866  0.00  0.00    +0.024 A 
ATOM     11  C   UNL     1      -9.525  -5.214   6.435  0.00  0.00    +0.005 A 
ATOM     12  C   UNL     1     -10.003  -4.690   7.622  0.00  0.00    -0.050 A 
ATOM     13  C   UNL     1      -9.332  -3.653   8.244  0.00  0.00    +0.008 A 
ATOM     14  C   UNL     1      -8.178  -3.141   7.683  0.00  0.00    -0.029 A 
ATOM     15  C   UNL     1      -7.444  -2.015   8.365  0.00  0.00    +0.045 C 
ATOM     16  C   UNL     1     -11.257  -5.252   8.240  0.00  0.00    +0.044 C 
ENDBRANCH   6   9
BRANCH   1  17
ATOM     17  C   UNL     1      -2.806  -3.529   2.904  0.00  0.00    +0.137 C 
ATOM     18  C   UNL     1      -3.293  -2.748   1.682  0.00  0.00    +0.029 C 
BRANCH  17  19
ATOM     19  S   UNL     1      -1.689  -4.854   2.369  0.00  0.00    -0.075 S 
BRANCH  19  24
ATOM     20  C   UNL     1       0.722  -1.995   1.176  0.00  0.00    +0.049 A 
ATOM     21  C   UNL     1       1.798  -2.655   0.656  0.00  0.00    +0.093 A 
ATOM     22  C   UNL     1       1.802  -4.060   0.664  0.00  0.00    +0.252 A 
ATOM     23  N   UNL     1       0.740  -4.710   1.186  0.00  0.00    -0.302 N 
ATOM     24  C   UNL     1      -0.306  -3.998   1.690  0.00  0.00    +0.170 A 
ATOM     25  N   UNL     1      -0.300  -2.679   1.684  0.00  0.00    -0.228 NA
ATOM     26  O   UNL     1       2.748  -4.682   0.207  0.00  0.00    -0.268 OA
ATOM     27  H   UNL     1       0.721  -5.679   1.201  0.00  0.00    +0.171 HD
BRANCH  20  28
ATOM     28  C   UNL     1       0.693  -0.488   1.179  0.00  0.00    +0.055 C 
BRANCH  28  30
ATOM     29  C   UNL     1      -0.087   1.541  -0.053  0.00  0.00    +0.004 C 
ATOM     30  C   UNL     1      -0.058   0.011  -0.056  0.00  0.00    +0.003 C 
ENDBRANCH  28  30
ENDBRANCH  20  28
ENDBRANCH  19  24
ENDBRANCH  17  19
ENDBRANCH   1  17
TORSDOF 6
