REMARK  Name = ZINC04017223
REMARK  10 active torsions:
REMARK  status: ('A' for Active; 'I' for Inactive)
REMARK    1  A    between atoms: C_1  and  C_2
REMARK    2  A    between atoms: C_6  and  C_36
REMARK    3  A    between atoms: C_7  and  N_8
REMARK    4  A    between atoms: C_9  and  C_13
REMARK    5  A    between atoms: C_13  and  C_15
REMARK    6  A    between atoms: C_13  and  N_64
REMARK    7  A    between atoms: C_22  and  C_23
REMARK    8  A    between atoms: C_22  and  N_64
REMARK    9  A    between atoms: C_29  and  C_30
REMARK   10  A    between atoms: C_29  and  N_64
REMARK                            x       y       z     vdW  Elec       q    Type
REMARK                         _______ _______ _______ _____ _____    ______ ____
ROOT
ATOM      1  C   UNL     1      -1.503   4.701   0.447  0.00  0.00    +0.036 C 
ENDROOT
BRANCH   1   2
ATOM      2  C   UNL     1      -2.239   3.796  -0.507  0.00  0.00    -0.035 A 
ATOM      3  C   UNL     1      -3.621   3.788  -0.526  0.00  0.00    +0.004 A 
ATOM      4  C   UNL     1      -4.295   2.961  -1.404  0.00  0.00    +0.000 A 
ATOM      5  C   UNL     1      -3.588   2.134  -2.257  0.00  0.00    +0.001 A 
ATOM      6  C   UNL     1      -2.207   2.138  -2.236  0.00  0.00    +0.020 A 
ATOM      7  C   UNL     1      -1.531   2.969  -1.360  0.00  0.00    +0.043 A 
ATOM      8 CL   UNL     1       0.205   2.973  -1.332  0.00  0.00    -0.083 Cl
ENDBRANCH   1   2
BRANCH   1  10
ATOM      9  N   UNL     1       0.820   5.423  -0.321  0.00  0.00    -0.198 N 
ATOM     10  C   UNL     1      -0.524   5.552  -0.321  0.00  0.00    +0.148 A 
ATOM     11  N   UNL     1      -0.818   6.553  -1.107  0.00  0.00    -0.114 NA
ATOM     12  N   UNL     1       0.248   7.061  -1.612  0.00  0.00    -0.023 NA
ATOM     13  N   UNL     1       1.287   6.430  -1.184  0.00  0.00    -0.039 NA
BRANCH   9  20
ATOM     14  C   UNL     1       0.486   5.255   2.501  0.00  0.00    +0.046 C 
ATOM     15  C   UNL     1       1.453   4.367   1.760  0.00  0.00    -0.025 A 
ATOM     16  C   UNL     1       2.208   3.439   2.451  0.00  0.00    +0.005 A 
ATOM     17  C   UNL     1       3.095   2.625   1.772  0.00  0.00    +0.001 A 
ATOM     18  C   UNL     1       3.234   2.740   0.401  0.00  0.00    +0.005 A 
ATOM     19  C   UNL     1       2.478   3.663  -0.296  0.00  0.00    -0.025 A 
ATOM     20  C   UNL     1       1.586   4.482   0.383  0.00  0.00    +0.075 A 
ATOM     21  C   UNL     1       2.625   3.784  -1.791  0.00  0.00    +0.046 C 
ENDBRANCH   9  20
ENDBRANCH   1  10
BRANCH   1  22
ATOM     22  N   UNL     1      -2.451   5.584   1.160  0.00  0.00    +0.394 N 
ATOM     23  H   UNL     1      -1.931   6.155   1.836  0.00  0.00    -0.079 HD
BRANCH  22  24
ATOM     24  C   UNL     1      -3.129   6.478   0.198  0.00  0.00    -0.041 C 
BRANCH  24  25
ATOM     25  C   UNL     1      -3.623   5.696  -0.992  0.00  0.00    -0.064 A 
ATOM     26  C   UNL     1      -2.728   5.251  -1.947  0.00  0.00    +0.002 A 
ATOM     27  C   UNL     1      -3.180   4.529  -3.036  0.00  0.00    +0.000 A 
ATOM     28  C   UNL     1      -4.529   4.262  -3.175  0.00  0.00    +0.000 A 
ATOM     29  C   UNL     1      -5.425   4.711  -2.223  0.00  0.00    +0.000 A 
ATOM     30  C   UNL     1      -4.972   5.428  -1.131  0.00  0.00    +0.002 A 
ENDBRANCH  24  25
ENDBRANCH  22  24
BRANCH  22  31
ATOM     31  C   UNL     1      -3.451   4.771   1.885  0.00  0.00    -0.041 C 
BRANCH  31  32
ATOM     32  C   UNL     1      -3.582   5.314   3.284  0.00  0.00    -0.064 A 
ATOM     33  C   UNL     1      -2.496   5.291   4.139  0.00  0.00    +0.002 A 
ATOM     34  C   UNL     1      -2.615   5.793   5.421  0.00  0.00    +0.000 A 
ATOM     35  C   UNL     1      -3.823   6.309   5.852  0.00  0.00    +0.000 A 
ATOM     36  C   UNL     1      -4.911   6.327   4.999  0.00  0.00    +0.000 A 
ATOM     37  C   UNL     1      -4.790   5.829   3.715  0.00  0.00    +0.002 A 
ENDBRANCH  31  32
ENDBRANCH  22  31
ENDBRANCH   1  22
TORSDOF 8
