REMARK  Name = ZINC22419188
REMARK  10 active torsions:
REMARK  status: ('A' for Active; 'I' for Inactive)
REMARK    1  A    between atoms: C_1  and  N_2
REMARK    2  A    between atoms: N_2  and  C_3
REMARK    3  A    between atoms: N_2  and  C_4
REMARK    4  A    between atoms: C_7  and  C_10
REMARK    5  A    between atoms: C_10  and  C_12
REMARK    6  A    between atoms: C_10  and  N_25
REMARK    7  A    between atoms: C_12  and  N_13
REMARK    8  A    between atoms: N_16  and  C_17
REMARK    9  A    between atoms: C_22  and  O_23
REMARK   10  A    between atoms: O_23  and  C_24
REMARK                            x       y       z     vdW  Elec       q    Type
REMARK                         _______ _______ _______ _____ _____    ______ ____
ROOT
ATOM      1  C   UNL     1      -0.820   1.598  -1.292  0.00  0.00    -0.020 C 
ENDROOT
BRANCH   1   2
ATOM      2  N   UNL     1      -1.150   3.028  -1.240  0.00  0.00    +0.388 N 
ATOM      3  C   UNL     1      -1.183   3.611  -2.592  0.00  0.00    -0.073 C 
ATOM      4  C   UNL     1      -1.877   4.971  -2.517  0.00  0.00    +0.017 C 
ATOM      5  C   UNL     1      -1.263   5.802  -1.419  0.00  0.00    -0.048 A 
ATOM      6  C   UNL     1      -1.495   7.169  -1.415  0.00  0.00    +0.004 A 
ATOM      7  C   UNL     1      -0.955   7.965  -0.426  0.00  0.00    +0.000 A 
ATOM      8  C   UNL     1      -0.178   7.397   0.567  0.00  0.00    +0.000 A 
ATOM      9  C   UNL     1       0.055   6.037   0.564  0.00  0.00    +0.002 A 
ATOM     10  C   UNL     1      -0.486   5.235  -0.431  0.00  0.00    -0.061 A 
ATOM     11  C   UNL     1      -0.197   3.757  -0.397  0.00  0.00    -0.042 C 
ATOM     12  H   UNL     1      -2.150   3.124  -0.792  0.00  0.00    -0.080 HD
ENDBRANCH   1   2
BRANCH   1  16
ATOM     13  C   UNL     1       1.797   0.857  -4.589  0.00  0.00    +0.029 A 
ATOM     14  C   UNL     1       0.656   0.083  -4.418  0.00  0.00    +0.023 A 
ATOM     15  C   UNL     1      -0.188   0.326  -3.352  0.00  0.00    +0.004 A 
ATOM     16  C   UNL     1       0.103   1.337  -2.454  0.00  0.00    -0.059 A 
ATOM     17  C   UNL     1       1.235   2.112  -2.624  0.00  0.00    +0.004 A 
ATOM     18  C   UNL     1       2.086   1.871  -3.685  0.00  0.00    +0.023 A 
BRANCH  13  20
ATOM     19  C   UNL     1       2.345  -0.455  -6.619  0.00  0.00    +0.129 C 
ATOM     20  N   UNL     1       2.652   0.615  -5.667  0.00  0.00    -0.336 N 
ATOM     21  C   UNL     1       3.855   1.431  -5.845  0.00  0.00    +0.129 C 
ENDBRANCH  13  20
ENDBRANCH   1  16
BRANCH   1  22
ATOM     22  C   UNL     1      -0.129   1.187   0.010  0.00  0.00    +0.095 C 
BRANCH  22  23
ATOM     23  N   UNL     1      -1.007   1.485   1.144  0.00  0.00    -0.300 N 
ATOM     24  C   UNL     1      -0.566   1.301   2.404  0.00  0.00    +0.304 C 
ATOM     25  O   UNL     1       0.560   0.887   2.600  0.00  0.00    -0.253 OA
ATOM     26  N   UNL     1      -1.374   1.576   3.448  0.00  0.00    -0.266 N 
ATOM     27  H   UNL     1      -2.026   1.860   0.967  0.00  0.00    +0.150 HD
ATOM     28  H   UNL     1      -2.414   1.889   3.271  0.00  0.00    +0.156 HD
BRANCH  26  29
ATOM     29  C   UNL     1      -0.889   1.463   4.758  0.00  0.00    +0.077 A 
ATOM     30  C   UNL     1       0.157   0.598   5.040  0.00  0.00    +0.027 A 
ATOM     31  C   UNL     1       0.636   0.491   6.332  0.00  0.00    +0.002 A 
ATOM     32  C   UNL     1       0.069   1.239   7.347  0.00  0.00    +0.004 A 
ATOM     33  C   UNL     1      -0.978   2.100   7.074  0.00  0.00    +0.047 A 
ATOM     34  C   UNL     1      -1.461   2.216   5.781  0.00  0.00    +0.141 A 
BRANCH  34  35
ATOM     35  O   UNL     1      -2.490   3.062   5.511  0.00  0.00    -0.493 OA
ATOM     36  C   UNL     1      -3.027   3.803   6.609  0.00  0.00    +0.277 C 
ENDBRANCH  34  35
ENDBRANCH  26  29
ENDBRANCH  22  23
ENDBRANCH   1  22
TORSDOF 7
