REMARK  Name = ZINC00970049
REMARK  6 active torsions:
REMARK  status: ('A' for Active; 'I' for Inactive)
REMARK    1  A    between atoms: C_1  and  C_2
REMARK    2  A    between atoms: C_16  and  C_18
REMARK    3  A    between atoms: C_18  and  S_19
REMARK    4  A    between atoms: S_19  and  C_20
REMARK    5  A    between atoms: N_24  and  C_25
REMARK    6  A    between atoms: C_32  and  N_54
REMARK                            x       y       z     vdW  Elec       q    Type
REMARK                         _______ _______ _______ _____ _____    ______ ____
ROOT
ATOM      1  C   UNL     1       2.977  -7.851  -0.087  0.00  0.00    +0.044 C 
ATOM      2  C   UNL     1       3.695  -6.526  -0.084  0.00  0.00    -0.050 A 
ATOM      3  C   UNL     1       2.978  -5.349   0.032  0.00  0.00    +0.005 A 
ATOM      4  C   UNL     1       3.631  -4.135   0.041  0.00  0.00    +0.024 A 
ATOM      5  C   UNL     1       5.021  -4.084  -0.067  0.00  0.00    +0.040 A 
ATOM      6  C   UNL     1       5.729  -5.269  -0.193  0.00  0.00    -0.023 A 
ATOM      7  C   UNL     1       5.073  -6.483  -0.197  0.00  0.00    +0.009 A 
ATOM      8  C   UNL     1       7.208  -4.934  -0.313  0.00  0.00    +0.025 C 
ATOM      9  C   UNL     1       7.688  -5.401  -1.675  0.00  0.00    -0.069 C 
ATOM     10  C   UNL     1       8.348  -3.192  -2.338  0.00  0.00    -0.077 C 
ATOM     11  C   UNL     1       8.172  -2.616  -0.936  0.00  0.00    +0.005 C 
ATOM     12  C   UNL     1       7.259  -3.441  -0.089  0.00  0.00    +0.085 C 
ATOM     13  N   UNL     1       5.876  -2.973  -0.068  0.00  0.00    -0.267 N 
ATOM     14  C   UNL     1       5.485  -1.683  -0.058  0.00  0.00    +0.230 C 
ATOM     15  O   UNL     1       6.314  -0.798  -0.060  0.00  0.00    -0.274 OA
ATOM     16  C   UNL     1       9.271  -5.123  -3.477  0.00  0.00    -0.096 C 
ATOM     17  N   UNL     1       8.799  -4.590  -2.179  0.00  0.00    +0.378 N 
ATOM     18  H   UNL     1       9.572  -4.620  -1.504  0.00  0.00    -0.082 HD
ENDROOT
BRANCH  14  19
ATOM     19  C   UNL     1       4.018  -1.341  -0.043  0.00  0.00    +0.173 C 
BRANCH  19  20
ATOM     20  S   UNL     1       3.818   0.458  -0.031  0.00  0.00    -0.075 S 
BRANCH  20  21
ATOM     21  C   UNL     1       2.060   0.570  -0.015  0.00  0.00    +0.214 A 
ATOM     22  N   UNL     1       1.212  -0.435  -0.012  0.00  0.00    -0.101 NA
ATOM     23  N   UNL     1       0.002  -0.004   0.002  0.00  0.00    -0.022 NA
ATOM     24  N   UNL     1      -0.015   1.285   0.009  0.00  0.00    -0.038 NA
ATOM     25  N   UNL     1       1.324   1.711  -0.001  0.00  0.00    -0.187 N 
BRANCH  25  26
ATOM     26  C   UNL     1       1.799   3.030   0.001  0.00  0.00    +0.070 A 
ATOM     27  C   UNL     1       2.964   3.349   0.685  0.00  0.00    +0.029 A 
ATOM     28  C   UNL     1       3.433   4.648   0.681  0.00  0.00    +0.022 A 
ATOM     29  C   UNL     1       2.736   5.634   0.006  0.00  0.00    +0.041 A 
ATOM     30  C   UNL     1       1.570   5.320  -0.672  0.00  0.00    +0.022 A 
ATOM     31  C   UNL     1       1.101   4.021  -0.676  0.00  0.00    +0.029 A 
ATOM     32 CL   UNL     1       3.323   7.268   0.008  0.00  0.00    -0.084 Cl
ENDBRANCH  25  26
ENDBRANCH  20  21
ENDBRANCH  19  20
ENDBRANCH  14  19
TORSDOF 4
