REMARK  Name = ZINC16037572
REMARK  5 active torsions:
REMARK  status: ('A' for Active; 'I' for Inactive)
REMARK    1  A    between atoms: C_1  and  C_2
REMARK    2  A    between atoms: C_5  and  N_33
REMARK    3  A    between atoms: C_7  and  N_8
REMARK    4  A    between atoms: C_24  and  C_30
REMARK    5  A    between atoms: C_30  and  C_32
REMARK                            x       y       z     vdW  Elec       q    Type
REMARK                         _______ _______ _______ _____ _____    ______ ____
ROOT
ATOM      1  N   UNL     1      -0.872   0.116   2.549  0.00  0.00    -0.209 N 
ATOM      2  C   UNL     1      -1.950   0.587   3.194  0.00  0.00    +0.232 C 
ATOM      3  O   UNL     1      -3.091   0.545   2.788  0.00  0.00    -0.274 OA
ATOM      4  C   UNL     1      -1.502   1.179   4.515  0.00  0.00    +0.115 C 
ATOM      5  C   UNL     1      -2.075   2.588   4.677  0.00  0.00    +0.117 C 
ATOM      6  C   UNL     1      -2.526   2.833   6.094  0.00  0.00    -0.019 A 
ATOM      7  C   UNL     1      -3.087   1.825   6.843  0.00  0.00    +0.006 A 
ATOM      8  C   UNL     1      -3.488   2.071   8.145  0.00  0.00    +0.000 A 
ATOM      9  C   UNL     1      -3.327   3.330   8.698  0.00  0.00    +0.001 A 
ATOM     10  C   UNL     1      -2.768   4.350   7.956  0.00  0.00    +0.008 A 
ATOM     11  C   UNL     1      -2.363   4.111   6.642  0.00  0.00    -0.019 A 
ATOM     12  C   UNL     1      -1.775   5.200   5.836  0.00  0.00    +0.023 C 
ATOM     13  C   UNL     1      -1.084   4.896   4.720  0.00  0.00    +0.072 C 
ATOM     14  N   UNL     1      -1.000   3.551   4.373  0.00  0.00    -0.317 N 
ATOM     15  C   UNL     1       0.120   2.837   3.768  0.00  0.00    +0.152 C 
ATOM     16  C   UNL     1       0.027   1.368   4.288  0.00  0.00    +0.117 C 
ATOM     17  C   UNL     1       0.295   0.411   3.140  0.00  0.00    +0.232 C 
ATOM     18  O   UNL     1       1.382  -0.013   2.812  0.00  0.00    -0.274 OA
ENDROOT
BRANCH   1  25
ATOM     19  C   UNL     1      -1.181  -2.707   2.747  0.00  0.00    +0.045 C 
ATOM     20  C   UNL     1      -1.109  -2.005   1.415  0.00  0.00    -0.028 A 
ATOM     21  C   UNL     1      -1.200  -2.733   0.244  0.00  0.00    +0.007 A 
ATOM     22  C   UNL     1      -1.135  -2.090  -0.978  0.00  0.00    +0.033 A 
ATOM     23  C   UNL     1      -0.978  -0.717  -1.033  0.00  0.00    +0.128 A 
ATOM     24  C   UNL     1      -0.887   0.016   0.134  0.00  0.00    +0.057 A 
ATOM     25  C   UNL     1      -0.958  -0.626   1.363  0.00  0.00    +0.049 A 
BRANCH  23  26
ATOM     26  N   UNL     1      -0.908  -0.033  -2.344  0.00  0.00    +0.056 N 
ATOM     27  O   UNL     1      -0.987  -0.674  -3.365  0.00  0.00    -0.126 OA
ATOM     28  O   UNL     1      -0.771   1.167  -2.392  0.00  0.00    -0.126 OA
ENDBRANCH  23  26
ENDBRANCH   1  25
BRANCH  15  29
ATOM     29  C   UNL     1       0.005   2.867   2.266  0.00  0.00    +0.151 C 
ATOM     30  O   UNL     1      -1.072   3.032   1.746  0.00  0.00    -0.296 OA
ATOM     31  C   UNL     1       1.235   2.692   1.412  0.00  0.00    +0.088 C 
ENDBRANCH  15  29
TORSDOF 3
