REMARK  Name = ZINC67558263
REMARK  4 active torsions:
REMARK  status: ('A' for Active; 'I' for Inactive)
REMARK    1  A    between atoms: C_1  and  C_2
REMARK    2  A    between atoms: C_6  and  N_8
REMARK    3  A    between atoms: C_13  and  C_25
REMARK    4  A    between atoms: C_16  and  C_19
REMARK                            x       y       z     vdW  Elec       q    Type
REMARK                         _______ _______ _______ _____ _____    ______ ____
ROOT
ATOM      1  N   UNL     1       0.050  -2.796   2.397  0.00  0.00    -0.267 N 
ATOM      2  C   UNL     1       0.151  -2.133   3.565  0.00  0.00    +0.307 C 
ATOM      3  O   UNL     1       0.137  -0.917   3.577  0.00  0.00    -0.252 OA
ATOM      4  N   UNL     1       0.267  -2.817   4.721  0.00  0.00    -0.280 N 
ATOM      5  C   UNL     1       0.406  -4.282   4.723  0.00  0.00    +0.140 C 
ATOM      6  C   UNL     1       1.610  -4.652   5.597  0.00  0.00    +0.133 C 
ATOM      7  O   UNL     1       1.475  -4.025   6.874  0.00  0.00    -0.366 OA
ATOM      8  C   UNL     1       1.472  -2.596   6.828  0.00  0.00    +0.166 C 
ATOM      9  C   UNL     1       0.266  -2.120   6.017  0.00  0.00    +0.145 C 
ATOM     10  C   UNL     1       2.897  -4.171   4.924  0.00  0.00    +0.039 C 
ATOM     11  H   UNL     1       0.001  -3.765   2.392  0.00  0.00    +0.156 HD
ENDROOT
BRANCH   1  17
ATOM     12  C   UNL     1      -1.049   1.314  -0.069  0.00  0.00    +0.044 C 
ATOM     13  C   UNL     1      -0.512  -0.094  -0.035  0.00  0.00    -0.049 A 
ATOM     14  C   UNL     1      -0.053  -0.685  -1.197  0.00  0.00    +0.006 A 
ATOM     15  C   UNL     1       0.441  -1.976  -1.171  0.00  0.00    +0.040 A 
ATOM     16  C   UNL     1       0.477  -2.680   0.019  0.00  0.00    +0.145 A 
ATOM     17  C   UNL     1       0.015  -2.087   1.189  0.00  0.00    +0.070 A 
ATOM     18  C   UNL     1      -0.475  -0.789   1.159  0.00  0.00    +0.029 A 
ATOM     19  F   UNL     1       0.959  -3.942   0.045  0.00  0.00    -0.204 F 
ENDBRANCH   1  17
BRANCH   8  20
ATOM     20  C   UNL     1       1.388  -2.047   8.228  0.00  0.00    -0.017 A 
ATOM     21  C   UNL     1       0.652  -2.714   9.190  0.00  0.00    +0.006 A 
ATOM     22  C   UNL     1       0.576  -2.210  10.475  0.00  0.00    +0.000 A 
ATOM     23  C   UNL     1       1.236  -1.039  10.799  0.00  0.00    +0.000 A 
ATOM     24  C   UNL     1       1.973  -0.372   9.837  0.00  0.00    +0.000 A 
ATOM     25  C   UNL     1       2.053  -0.879   8.553  0.00  0.00    +0.006 A 
ENDBRANCH   8  20
TORSDOF 2
