REMARK  Name = ZINC23740016
REMARK  8 active torsions:
REMARK  status: ('A' for Active; 'I' for Inactive)
REMARK    1  A    between atoms: C_1  and  C_2
REMARK    2  A    between atoms: C_6  and  C_38
REMARK    3  A    between atoms: C_7  and  N_8
REMARK    4  A    between atoms: C_12  and  N_16
REMARK    5  A    between atoms: N_19  and  C_22
REMARK    6  A    between atoms: N_27  and  C_30
REMARK    7  A    between atoms: C_31  and  C_37
REMARK    8  A    between atoms: C_35  and  C_36
REMARK                            x       y       z     vdW  Elec       q    Type
REMARK                         _______ _______ _______ _____ _____    ______ ____
ROOT
ATOM      1  N   UNL     1       1.111   8.109   1.321  0.00  0.00    +0.389 N 
ATOM      2  C   UNL     1       2.330   7.421   0.872  0.00  0.00    -0.062 C 
ATOM      3  C   UNL     1       3.558   8.197   1.355  0.00  0.00    +0.066 C 
ATOM      4  N   UNL     1       3.524   8.299   2.820  0.00  0.00    -0.295 NA
ATOM      5  C   UNL     1       2.306   8.987   3.269  0.00  0.00    +0.066 C 
ATOM      6  C   UNL     1       1.078   8.212   2.787  0.00  0.00    -0.062 C 
ATOM      7  H   UNL     1       1.126   9.129   0.909  0.00  0.00    -0.081 HD
ENDROOT
BRANCH   1  12
ATOM      8  N   UNL     1      -0.069   5.244   0.030  0.00  0.00    -0.211 N 
ATOM      9  C   UNL     1      -0.090   5.974  -1.092  0.00  0.00    +0.225 C 
ATOM     10  O   UNL     1      -0.095   5.529  -2.219  0.00  0.00    -0.275 OA
ATOM     11  C   UNL     1      -0.107   7.443  -0.729  0.00  0.00    +0.090 C 
ATOM     12  C   UNL     1      -0.091   7.436   0.813  0.00  0.00    +0.029 C 
ATOM     13  C   UNL     1      -0.073   5.963   1.160  0.00  0.00    +0.213 C 
ATOM     14  O   UNL     1      -0.062   5.506   2.283  0.00  0.00    -0.277 OA
BRANCH   8  21
ATOM     15  C   UNL     1       2.457   3.932   0.000  0.00  0.00    +0.046 C 
ATOM     16  C   UNL     1       1.161   3.163   0.008  0.00  0.00    -0.028 A 
ATOM     17  C   UNL     1       1.176   1.782   0.000  0.00  0.00    +0.005 A 
ATOM     18  C   UNL     1      -0.013   1.076   0.008  0.00  0.00    +0.001 A 
ATOM     19  C   UNL     1      -1.220   1.750   0.017  0.00  0.00    +0.005 A 
ATOM     20  C   UNL     1      -1.242   3.131   0.031  0.00  0.00    -0.028 A 
ATOM     21  C   UNL     1      -0.050   3.842   0.023  0.00  0.00    +0.050 A 
ATOM     22  C   UNL     1      -2.558   3.864   0.047  0.00  0.00    +0.046 C 
ENDBRANCH   8  21
ENDBRANCH   1  12
BRANCH   4  23
ATOM     23  C   UNL     1       4.727   8.973   3.328  0.00  0.00    +0.153 C 
ATOM     24  C   UNL     1       6.000   8.244   2.852  0.00  0.00    +0.125 C 
ATOM     25  C   UNL     1       6.719   9.288   2.026  0.00  0.00    +0.228 C 
ATOM     26  O   UNL     1       7.779   9.128   1.460  0.00  0.00    -0.275 OA
ATOM     27  N   UNL     1       6.000  10.418   2.022  0.00  0.00    -0.209 N 
ATOM     28  C   UNL     1       4.861  10.353   2.722  0.00  0.00    +0.244 C 
ATOM     29  O   UNL     1       4.063  11.256   2.850  0.00  0.00    -0.273 OA
BRANCH  27  30
ATOM     30  C   UNL     1       6.407  11.573   1.340  0.00  0.00    +0.050 A 
ATOM     31  C   UNL     1       7.185  12.524   1.986  0.00  0.00    -0.028 A 
ATOM     32  C   UNL     1       7.590  13.659   1.310  0.00  0.00    +0.005 A 
ATOM     33  C   UNL     1       7.210  13.854  -0.005  0.00  0.00    +0.001 A 
ATOM     34  C   UNL     1       6.429  12.911  -0.649  0.00  0.00    +0.005 A 
ATOM     35  C   UNL     1       6.027  11.772   0.020  0.00  0.00    -0.028 A 
ATOM     36  C   UNL     1       5.177  10.745  -0.683  0.00  0.00    +0.046 C 
ATOM     37  C   UNL     1       7.594  12.315   3.421  0.00  0.00    +0.046 C 
ENDBRANCH  27  30
ENDBRANCH   4  23
TORSDOF 4
