REMARK  Name = ZINC01238753
REMARK  6 active torsions:
REMARK  status: ('A' for Active; 'I' for Inactive)
REMARK    1  A    between atoms: C_1  and  C_2
REMARK    2  A    between atoms: C_2  and  C_3
REMARK    3  A    between atoms: C_6  and  N_9
REMARK    4  A    between atoms: C_10  and  C_12
REMARK    5  A    between atoms: C_17  and  C_29
REMARK    6  A    between atoms: C_20  and  C_23
REMARK                            x       y       z     vdW  Elec       q    Type
REMARK                         _______ _______ _______ _____ _____    ______ ____
ROOT
ATOM      1  C   UNL     1      -7.416  -2.510  -1.097  0.00  0.00    +0.163 A 
ATOM      2  C   UNL     1      -8.240  -2.696  -2.231  0.00  0.00    +0.089 A 
ATOM      3  C   UNL     1      -9.460  -3.064  -1.790  0.00  0.00    +0.133 A 
ATOM      4  N   UNL     1      -9.423  -3.115  -0.426  0.00  0.00    -0.237 N 
ATOM      5  N   UNL     1      -8.135  -2.768  -0.018  0.00  0.00    -0.163 NA
ATOM      6  C   UNL     1     -10.572  -3.484   0.406  0.00  0.00    +0.215 C 
ATOM      7  C   UNL     1     -11.588  -4.238  -0.459  0.00  0.00    +0.066 C 
ATOM      8  C   UNL     1     -11.868  -3.450  -1.744  0.00  0.00    +0.140 C 
ATOM      9  N   UNL     1     -10.616  -3.359  -2.521  0.00  0.00    -0.318 N 
ATOM     10 BR   UNL     1      -7.725  -2.470  -4.036  0.00  0.00    -0.044 Br
ATOM     11  H   UNL     1     -10.596  -3.496  -3.481  0.00  0.00    +0.148 HD
ENDROOT
BRANCH   8  12
ATOM     12  C   UNL     1     -12.352  -2.067  -1.393  0.00  0.00    +0.127 A 
ATOM     13  C   UNL     1     -13.634  -1.661  -1.387  0.00  0.00    +0.048 A 
ATOM     14  C   UNL     1     -13.632  -0.300  -1.001  0.00  0.00    +0.057 A 
ATOM     15  C   UNL     1     -12.347   0.044  -0.794  0.00  0.00    +0.170 A 
ATOM     16  O   UNL     1     -11.577  -1.032  -1.028  0.00  0.00    -0.451 OA
ATOM     17 BR   UNL     1     -11.731   1.750  -0.260  0.00  0.00    -0.008 Br
ENDBRANCH   8  12
BRANCH   1  19
ATOM     18  N   UNL     1      -5.319  -1.968   0.042  0.00  0.00    -0.280 N 
ATOM     19  C   UNL     1      -5.996  -2.105  -1.115  0.00  0.00    +0.270 C 
ATOM     20  O   UNL     1      -5.438  -1.894  -2.174  0.00  0.00    -0.268 OA
ATOM     21  H   UNL     1      -5.741  -2.209   0.882  0.00  0.00    +0.155 HD
BRANCH  18  25
ATOM     22  C   UNL     1      -1.418  -0.508   0.015  0.00  0.00    -0.048 A 
ATOM     23  C   UNL     1      -2.333  -0.051  -0.916  0.00  0.00    +0.005 A 
ATOM     24  C   UNL     1      -3.627  -0.533  -0.910  0.00  0.00    +0.023 A 
ATOM     25  C   UNL     1      -4.010  -1.478   0.033  0.00  0.00    +0.034 A 
ATOM     26  C   UNL     1      -3.089  -1.935   0.967  0.00  0.00    +0.023 A 
ATOM     27  C   UNL     1      -1.795  -1.453   0.952  0.00  0.00    +0.005 A 
BRANCH  22  29
ATOM     28  C   UNL     1       0.859  -0.854  -0.905  0.00  0.00    +0.009 C 
ATOM     29  C   UNL     1      -0.007   0.020   0.005  0.00  0.00    +0.032 C 
ENDBRANCH  22  29
ENDBRANCH  18  25
ENDBRANCH   1  19
BRANCH   6  30
ATOM     30  C   UNL     1     -10.106  -4.382   1.554  0.00  0.00    +0.412 C 
ATOM     31  F   UNL     1      -9.170  -3.694   2.333  0.00  0.00    -0.168 F 
ATOM     32  F   UNL     1     -11.205  -4.733   2.346  0.00  0.00    -0.168 F 
ATOM     33  F   UNL     1      -9.518  -5.539   1.032  0.00  0.00    -0.168 F 
ENDBRANCH   6  30
TORSDOF 5
