REMARK  Name = ZINC44286083
REMARK  9 active torsions:
REMARK  status: ('A' for Active; 'I' for Inactive)
REMARK    1  A    between atoms: C_6  and  C_7
REMARK    2  A    between atoms: C_7  and  C_8
REMARK    3  A    between atoms: C_7  and  C_15
REMARK    4  A    between atoms: C_8  and  CA_9
REMARK    5  A    between atoms: CA_9  and  C_11
REMARK    6  A    between atoms: CA_9  and  N_14
REMARK    7  A    between atoms: C_15  and  CA_16
REMARK    8  A    between atoms: CA_16  and  C_18
REMARK    9  A    between atoms: CA_16  and  N_21
REMARK                            x       y       z     vdW  Elec       q    Type
REMARK                         _______ _______ _______ _____ _____    ______ ____
ROOT
ATOM      1  C   UNL     1      -1.618  -1.187  -0.386  0.00  0.00    +0.017 C 
ENDROOT
BRANCH   1   7
ATOM      2  C   UNL     1      -0.729   0.958  -1.320  0.00  0.00    +0.005 A 
ATOM      3  C   UNL     1       0.296   1.720  -1.848  0.00  0.00    +0.020 A 
ATOM      4  C   UNL     1       1.552   1.166  -2.017  0.00  0.00    +0.041 A 
ATOM      5  C   UNL     1       1.782  -0.151  -1.658  0.00  0.00    +0.020 A 
ATOM      6  C   UNL     1       0.755  -0.911  -1.130  0.00  0.00    +0.005 A 
ATOM      7  C   UNL     1      -0.500  -0.357  -0.962  0.00  0.00    -0.044 A 
ATOM      8 CL   UNL     1       2.841   2.122  -2.680  0.00  0.00    -0.084 Cl
ENDBRANCH   1   7
BRANCH   1   9
ATOM      9  C   UNL     1      -1.868  -2.400  -1.284  0.00  0.00    +0.003 C 
BRANCH   9  10
ATOM     10  CA  UNL     1      -2.372  -1.929  -2.650  0.00  0.00    +0.041 C 
BRANCH  10  11
ATOM     11  N   UNL     1      -3.692  -1.305  -2.495  0.00  0.00    +0.387 N 
ATOM     12  H1  UNL     1      -4.353  -1.992  -2.164  0.00  0.00    -0.089 HD
ATOM     13  H2  UNL     1      -3.631  -0.549  -1.830  0.00  0.00    -0.089 HD
ATOM     14  H3  UNL     1      -4.000  -0.945  -3.386  0.00  0.00    -0.089 HD
ENDBRANCH  10  11
BRANCH  10  15
ATOM     15  C   UNL     1      -2.479  -3.109  -3.581  0.00  0.00    +0.342 C 
ATOM     16  O   UNL     1      -3.519  -3.743  -3.644  0.00  0.00    -0.248 OA
ATOM     17  OXT UNL     1      -1.527  -3.430  -4.271  0.00  0.00    -0.248 OA
ENDBRANCH  10  15
ENDBRANCH   9  10
ENDBRANCH   1   9
BRANCH   1  18
ATOM     18  C   UNL     1      -1.232  -1.662   1.016  0.00  0.00    +0.003 C 
BRANCH  18  19
ATOM     19  CA  UNL     1      -2.422  -2.377   1.659  0.00  0.00    +0.041 C 
BRANCH  19  20
ATOM     20  N   UNL     1      -3.516  -1.419   1.864  0.00  0.00    +0.387 N 
ATOM     21  H1  UNL     1      -3.796  -1.033   0.975  0.00  0.00    -0.089 HD
ATOM     22  H2  UNL     1      -4.301  -1.891   2.288  0.00  0.00    -0.089 HD
ATOM     23  H3  UNL     1      -3.203  -0.676   2.470  0.00  0.00    -0.089 HD
ENDBRANCH  19  20
BRANCH  19  24
ATOM     24  C   UNL     1      -2.004  -2.955   2.987  0.00  0.00    +0.342 C 
ATOM     25  O   UNL     1      -2.432  -2.474   4.022  0.00  0.00    -0.248 OA
ATOM     26  OXT UNL     1      -1.237  -3.902   3.025  0.00  0.00    -0.248 OA
ENDBRANCH  19  24
ENDBRANCH  18  19
ENDBRANCH   1  18
TORSDOF 9
