REMARK  Name = ZINC02349338
REMARK  6 active torsions:
REMARK  status: ('A' for Active; 'I' for Inactive)
REMARK    1  A    between atoms: C_9  and  C_26
REMARK    2  A    between atoms: C_10  and  N_25
REMARK    3  A    between atoms: N_11  and  N_14
REMARK    4  A    between atoms: C_15  and  C_16
REMARK    5  A    between atoms: C_20  and  N_22
REMARK    6  A    between atoms: N_28  and  C_29
REMARK                            x       y       z     vdW  Elec       q    Type
REMARK                         _______ _______ _______ _____ _____    ______ ____
ROOT
ATOM      1  C   UNL     1       1.997  -5.489  -5.022  0.00  0.00    +0.002 A 
ATOM      2  C   UNL     1       1.917  -4.164  -5.449  0.00  0.00    +0.002 A 
ATOM      3  C   UNL     1       1.721  -3.153  -4.561  0.00  0.00    +0.030 A 
ATOM      4  C   UNL     1       1.595  -3.440  -3.189  0.00  0.00    +0.092 A 
ATOM      5  C   UNL     1       1.676  -4.787  -2.755  0.00  0.00    +0.090 A 
ATOM      6  C   UNL     1       1.881  -5.806  -3.705  0.00  0.00    +0.030 A 
ATOM      7  N   UNL     1       1.559  -5.088  -1.456  0.00  0.00    -0.241 NA
ATOM      8  C   UNL     1       1.369  -4.122  -0.580  0.00  0.00    +0.124 A 
ATOM      9  C   UNL     1       1.201  -4.074   0.882  0.00  0.00    +0.105 A 
ATOM     10  C   UNL     1       1.040  -2.735   1.218  0.00  0.00    +0.134 A 
ATOM     11  N   UNL     1       1.083  -1.955   0.101  0.00  0.00    -0.198 N 
ATOM     12  C   UNL     1       1.284  -2.728  -1.027  0.00  0.00    +0.183 A 
ATOM     13  N   UNL     1       1.401  -2.451  -2.308  0.00  0.00    -0.224 NA
ENDROOT
BRANCH   9  14
ATOM     14  C   UNL     1       1.209  -5.178   1.773  0.00  0.00    +0.254 C 
ATOM     15  O   UNL     1       2.255  -5.551   2.272  0.00  0.00    -0.270 OA
ATOM     16  N   UNL     1       0.058  -5.814   2.067  0.00  0.00    -0.281 N 
ATOM     17  H   UNL     1      -0.785  -5.472   1.731  0.00  0.00    +0.155 HD
BRANCH  16  18
ATOM     18  C   UNL     1       0.079  -6.969   2.857  0.00  0.00    +0.034 A 
ATOM     19  C   UNL     1       1.153  -7.846   2.779  0.00  0.00    +0.025 A 
ATOM     20  C   UNL     1       1.175  -8.982   3.564  0.00  0.00    +0.022 A 
ATOM     21  C   UNL     1       0.121  -9.252   4.420  0.00  0.00    +0.041 A 
ATOM     22  C   UNL     1      -0.953  -8.383   4.496  0.00  0.00    +0.022 A 
ATOM     23  C   UNL     1      -0.976  -7.243   3.717  0.00  0.00    +0.025 A 
ATOM     24 CL   UNL     1       0.148 -10.685   5.401  0.00  0.00    -0.084 Cl
ENDBRANCH  16  18
ENDBRANCH   9  14
BRANCH  10  25
ATOM     25  N   UNL     1       0.859  -2.264   2.494  0.00  0.00    -0.342 N 
ATOM     26  H   UNL     1       0.750  -1.313   2.649  0.00  0.00    +0.144 HD
ATOM     27  H   UNL     1       0.840  -2.883   3.241  0.00  0.00    +0.144 HD
ENDBRANCH  10  25
BRANCH  11  28
ATOM     28  N   UNL     1       0.949  -0.560   0.097  0.00  0.00    -0.171 NA
ATOM     29  C   UNL     1      -0.225  -0.022  -0.029  0.00  0.00    +0.141 C 
BRANCH  29  30
ATOM     30  C   UNL     1      -0.366   1.446  -0.034  0.00  0.00    -0.003 A 
ATOM     31  C   UNL     1       0.761   2.260   0.097  0.00  0.00    +0.009 A 
ATOM     32  C   UNL     1       0.622   3.632   0.092  0.00  0.00    +0.003 A 
ATOM     33  C   UNL     1      -0.632   4.203  -0.043  0.00  0.00    +0.033 A 
ATOM     34  C   UNL     1      -1.753   3.403  -0.173  0.00  0.00    +0.127 A 
ATOM     35  C   UNL     1      -1.628   2.029  -0.175  0.00  0.00    +0.042 A 
BRANCH  34  36
ATOM     36  N   UNL     1      -3.089   4.022  -0.318  0.00  0.00    +0.056 N 
ATOM     37  O   UNL     1      -3.201   5.235  -0.322  0.00  0.00    -0.126 OA
ATOM     38  O   UNL     1      -4.077   3.320  -0.433  0.00  0.00    -0.126 OA
ENDBRANCH  34  36
ENDBRANCH  29  30
ENDBRANCH  11  28
TORSDOF 6
