REMARK  Name = ZINC05338403
REMARK  11 active torsions:
REMARK  status: ('A' for Active; 'I' for Inactive)
REMARK    1  A    between atoms: C_4  and  N_7
REMARK    2  A    between atoms: N_7  and  C_8
REMARK    3  A    between atoms: C_8  and  N_10
REMARK    4  A    between atoms: N_10  and  N_11
REMARK    5  A    between atoms: N_11  and  C_12
REMARK    6  A    between atoms: C_12  and  C_24
REMARK    7  A    between atoms: C_13  and  O_23
REMARK    8  A    between atoms: C_15  and  O_22
REMARK    9  A    between atoms: C_17  and  C_20
REMARK   10  A    between atoms: C_20  and  O_21
REMARK   11  A    between atoms: C_24  and  O_25
REMARK                            x       y       z     vdW  Elec       q    Type
REMARK                         _______ _______ _______ _____ _____    ______ ____
ROOT
ATOM      1  C   UNL     1      -3.201  -1.290   1.567  0.00  0.00    +0.187 C 
ATOM      2  C   UNL     1      -3.070  -2.744   1.075  0.00  0.00    +0.196 C 
ATOM      3  C   UNL     1      -1.724  -2.766   0.310  0.00  0.00    +0.178 C 
ATOM      4  C   UNL     1      -1.512  -1.266  -0.017  0.00  0.00    +0.177 C 
ATOM      5  O   UNL     1      -2.014  -0.591   1.157  0.00  0.00    -0.345 OA
ENDROOT
BRANCH   1   6
ATOM      6  N   UNL     1      -4.384  -0.663   0.963  0.00  0.00    -0.207 NA
ATOM      7  H   UNL     1      -4.260  -0.539  -0.031  0.00  0.00    +0.147 HD
BRANCH   6   8
ATOM      8  N   UNL     1      -5.512  -1.387   1.228  0.00  0.00    -0.260 N 
ATOM      9  H   UNL     1      -5.465  -2.163   1.808  0.00  0.00    +0.168 HD
BRANCH   8  10
ATOM     10  C   UNL     1      -6.690  -1.023   0.684  0.00  0.00    +0.148 C 
ATOM     11  S   UNL     1      -8.103  -1.931   1.016  0.00  0.00    -0.017 S 
BRANCH  10  12
ATOM     12  N   UNL     1      -6.756   0.055  -0.122  0.00  0.00    -0.296 N 
ATOM     13  H   UNL     1      -5.969   0.606  -0.261  0.00  0.00    +0.154 HD
BRANCH  12  17
ATOM     14  C   UNL     1     -10.337   1.026  -2.015  0.00  0.00    +0.000 A 
ATOM     15  C   UNL     1     -10.335   0.688  -0.674  0.00  0.00    +0.002 A 
ATOM     16  C   UNL     1      -9.150   0.366  -0.044  0.00  0.00    +0.023 A 
ATOM     17  C   UNL     1      -7.958   0.381  -0.758  0.00  0.00    +0.033 A 
ATOM     18  C   UNL     1      -7.963   0.726  -2.103  0.00  0.00    +0.023 A 
ATOM     19  C   UNL     1      -9.153   1.042  -2.729  0.00  0.00    +0.002 A 
ENDBRANCH  12  17
ENDBRANCH  10  12
ENDBRANCH   8  10
ENDBRANCH   6   8
ENDBRANCH   1   6
BRANCH   3  20
ATOM     20  O   UNL     1      -0.673  -3.260   1.143  0.00  0.00    -0.386 OA
ATOM     21  H   UNL     1       0.204  -3.210   0.740  0.00  0.00    +0.210 HD
ENDBRANCH   3  20
BRANCH   2  22
ATOM     22  O   UNL     1      -3.031  -3.646   2.183  0.00  0.00    -0.385 OA
ATOM     23  H   UNL     1      -2.891  -4.570   1.934  0.00  0.00    +0.210 HD
ENDBRANCH   2  22
BRANCH   4  24
ATOM     24  C   UNL     1      -0.026  -0.964  -0.218  0.00  0.00    +0.190 C 
BRANCH  24  25
ATOM     25  O   UNL     1       0.131   0.395  -0.632  0.00  0.00    -0.392 OA
ATOM     26  H   UNL     1       1.050   0.658  -0.778  0.00  0.00    +0.210 HD
ENDBRANCH  24  25
ENDBRANCH   4  24
BRANCH   1  27
ATOM     27  C   UNL     1      -3.322  -1.266   3.092  0.00  0.00    +0.211 C 
BRANCH  27  28
ATOM     28  O   UNL     1      -3.550   0.075   3.531  0.00  0.00    -0.391 OA
ATOM     29  H   UNL     1      -3.637   0.166   4.489  0.00  0.00    +0.210 HD
ENDBRANCH  27  28
ENDBRANCH   1  27
TORSDOF 11
