REMARK  Name = ZINC16958163
REMARK  8 active torsions:
REMARK  status: ('A' for Active; 'I' for Inactive)
REMARK    1  A    between atoms: C_3  and  N_8
REMARK    2  A    between atoms: C_5  and  O_7
REMARK    3  A    between atoms: C_9  and  C_11
REMARK    4  A    between atoms: C_11  and  C_18
REMARK    5  A    between atoms: N_12  and  N_13
REMARK    6  A    between atoms: N_13  and  C_14
REMARK    7  A    between atoms: C_14  and  N_16
REMARK    8  A    between atoms: N_16  and  N_17
REMARK                            x       y       z     vdW  Elec       q    Type
REMARK                         _______ _______ _______ _____ _____    ______ ____
ROOT
ATOM      1  C   UNL     1       3.006   1.795   1.213  0.00  0.00    +0.142 C 
ATOM      2  N   UNL     1       3.409   0.793   1.940  0.00  0.00    -0.179 NA
ENDROOT
BRANCH   1   3
ATOM      3  C   UNL     1       2.033   1.565   0.086  0.00  0.00    +0.216 C 
ATOM      4  C   UNL     1       2.725   1.925  -1.215  0.00  0.00    +0.237 C 
ATOM      5  O   UNL     1       3.749   1.374  -1.556  0.00  0.00    -0.274 OA
ATOM      6  N   UNL     1       2.157   2.881  -1.980  0.00  0.00    -0.267 N 
ATOM      7  C   UNL     1       1.026   3.499  -1.619  0.00  0.00    +0.143 C 
ATOM      8  S   UNL     1       0.403   4.695  -2.673  0.00  0.00    -0.018 S 
ATOM      9  N   UNL     1       0.346   3.249  -0.493  0.00  0.00    -0.267 N 
ATOM     10  C   UNL     1       0.758   2.325   0.400  0.00  0.00    +0.237 C 
ATOM     11  O   UNL     1       0.132   2.109   1.415  0.00  0.00    -0.274 OA
ATOM     12  H   UNL     1       2.579   3.126  -2.819  0.00  0.00    +0.157 HD
ATOM     13  H   UNL     1      -0.466   3.748  -0.315  0.00  0.00    +0.157 HD
ENDBRANCH   1   3
BRANCH   1  15
ATOM     14  N   UNL     1       4.368   3.353   2.501  0.00  0.00    -0.280 N 
ATOM     15  C   UNL     1       3.498   3.147   1.492  0.00  0.00    +0.265 C 
ATOM     16  O   UNL     1       3.121   4.084   0.813  0.00  0.00    -0.268 OA
ATOM     17  H   UNL     1       4.611   2.621   3.089  0.00  0.00    +0.155 HD
BRANCH  14  20
ATOM     18  C   UNL     1       5.751   6.316   4.182  0.00  0.00    +0.005 A 
ATOM     19  C   UNL     1       5.205   5.063   3.986  0.00  0.00    +0.023 A 
ATOM     20  C   UNL     1       4.920   4.622   2.700  0.00  0.00    +0.037 A 
ATOM     21  C   UNL     1       5.190   5.441   1.611  0.00  0.00    +0.068 A 
ATOM     22  C   UNL     1       5.733   6.700   1.813  0.00  0.00    +0.119 A 
ATOM     23  C   UNL     1       6.016   7.135   3.100  0.00  0.00    +0.045 A 
BRANCH  22  24
ATOM     24  O   UNL     1       5.994   7.505   0.750  0.00  0.00    -0.507 OA
ATOM     25  H   UNL     1       6.880   7.395   0.381  0.00  0.00    +0.292 HD
ENDBRANCH  22  24
ENDBRANCH  14  20
ENDBRANCH   1  15
BRANCH   2  26
ATOM     26  N   UNL     1       3.043  -0.514   1.594  0.00  0.00    -0.217 N 
ATOM     27  H   UNL     1       2.557  -0.681   0.772  0.00  0.00    +0.176 HD
BRANCH  26  28
ATOM     28  C   UNL     1       3.369  -1.542   2.404  0.00  0.00    +0.164 C 
ATOM     29  S   UNL     1       2.922  -3.139   1.981  0.00  0.00    -0.016 S 
BRANCH  28  30
ATOM     30  N   UNL     1       4.045  -1.311   3.546  0.00  0.00    -0.264 N 
ATOM     31  H   UNL     1       4.279  -2.050   4.129  0.00  0.00    +0.168 HD
BRANCH  30  32
ATOM     32  N   UNL     1       4.402  -0.036   3.884  0.00  0.00    -0.255 NA
ATOM     33  H   UNL     1       4.900  -0.019   4.761  0.00  0.00    +0.140 HD
ATOM     34  H   UNL     1       4.946   0.394   3.150  0.00  0.00    +0.140 HD
ENDBRANCH  30  32
ENDBRANCH  28  30
ENDBRANCH  26  28
ENDBRANCH   2  26
TORSDOF 8
