REMARK  Name = ZINC39227312
REMARK  8 active torsions:
REMARK  status: ('A' for Active; 'I' for Inactive)
REMARK    1  A    between atoms: C_1  and  C_2
REMARK    2  A    between atoms: C_2  and  C_3
REMARK    3  A    between atoms: C_3  and  C_5
REMARK    4  A    between atoms: C_3  and  C_6
REMARK    5  A    between atoms: C_6  and  N_7
REMARK    6  A    between atoms: C_8  and  C_10
REMARK    7  A    between atoms: C_14  and  C_16
REMARK    8  A    between atoms: N_29  and  C_32
REMARK                            x       y       z     vdW  Elec       q    Type
REMARK                         _______ _______ _______ _____ _____    ______ ____
ROOT
ATOM      1  C   UNL     1       2.444  -7.513  -5.972  0.00  0.00    -0.017 A 
ATOM      2  C   UNL     1       1.916  -8.444  -5.074  0.00  0.00    +0.012 A 
ATOM      3  C   UNL     1       1.943  -9.790  -5.362  0.00  0.00    +0.047 A 
ATOM      4  C   UNL     1       2.498 -10.239  -6.555  0.00  0.00    +0.132 A 
ATOM      5  C   UNL     1       3.026  -9.308  -7.464  0.00  0.00    +0.060 A 
ATOM      6  C   UNL     1       2.995  -7.944  -7.173  0.00  0.00    +0.023 A 
ATOM      7  C   UNL     1       3.601  -9.791  -8.732  0.00  0.00    +0.170 C 
ATOM      8  O   UNL     1       3.877  -9.033  -9.638  0.00  0.00    -0.292 OA
ATOM      9  C   UNL     1       3.831 -11.288  -8.845  0.00  0.00    +0.127 C 
ATOM     10  C   UNL     1       2.628 -11.980  -8.190  0.00  0.00    +0.114 C 
ATOM     11  O   UNL     1       2.524 -11.565  -6.829  0.00  0.00    -0.485 OA
ATOM     12  C   UNL     1       1.352 -11.596  -8.944  0.00  0.00    +0.030 C 
ATOM     13  C   UNL     1       0.165 -12.355  -8.347  0.00  0.00    -0.075 C 
ATOM     14  N   UNL     1       0.394 -13.800  -8.468  0.00  0.00    +0.378 N 
ATOM     15  C   UNL     1       1.574 -14.185  -7.685  0.00  0.00    -0.075 C 
ATOM     16  C   UNL     1       2.816 -13.497  -8.255  0.00  0.00    +0.030 C 
ATOM     17  C   UNL     1      -0.782 -14.524  -7.967  0.00  0.00    -0.096 C 
ATOM     18  H   UNL     1       0.543 -14.036  -9.438  0.00  0.00    -0.082 HD
ENDROOT
BRANCH   1  23
ATOM     19  C   UNL     1       1.828  -4.272  -4.149  0.00  0.00    +0.037 A 
ATOM     20  C   UNL     1       2.354  -3.351  -5.058  0.00  0.00    +0.013 A 
ATOM     21  C   UNL     1       2.900  -3.788  -6.248  0.00  0.00    +0.001 A 
ATOM     22  C   UNL     1       2.931  -5.136  -6.547  0.00  0.00    +0.008 A 
ATOM     23  C   UNL     1       2.410  -6.066  -5.648  0.00  0.00    -0.017 A 
ATOM     24  C   UNL     1       1.863  -5.634  -4.444  0.00  0.00    +0.021 A 
BRANCH  19  26
ATOM     25  N   UNL     1       1.210  -2.487  -2.591  0.00  0.00    -0.311 N 
ATOM     26  C   UNL     1       1.243  -3.804  -2.875  0.00  0.00    +0.244 C 
ATOM     27  O   UNL     1       0.791  -4.607  -2.082  0.00  0.00    -0.270 OA
ATOM     28  H   UNL     1       1.571  -1.846  -3.224  0.00  0.00    +0.149 HD
BRANCH  25  29
ATOM     29  C   UNL     1       0.630  -2.023  -1.329  0.00  0.00    +0.107 C 
BRANCH  29  30
ATOM     30  C   UNL     1       0.718  -0.497  -1.257  0.00  0.00    +0.003 C 
ATOM     31  C   UNL     1       2.187  -0.073  -1.207  0.00  0.00    +0.009 C 
BRANCH  30  33
ATOM     32  C   UNL     1      -0.019   1.526   0.010  0.00  0.00    +0.004 C 
ATOM     33  C   UNL     1       0.002  -0.004   0.002  0.00  0.00    +0.001 C 
ENDBRANCH  30  33
ENDBRANCH  29  30
ENDBRANCH  25  29
ENDBRANCH  19  26
ENDBRANCH   1  23
TORSDOF 5
