REMARK  Name = ZINC04237350
REMARK  7 active torsions:
REMARK  status: ('A' for Active; 'I' for Inactive)
REMARK    1  A    between atoms: C_1  and  C_2
REMARK    2  A    between atoms: N_4  and  C_5
REMARK    3  A    between atoms: C_8  and  C_11
REMARK    4  A    between atoms: C_26  and  C_27
REMARK    5  A    between atoms: C_26  and  N_62
REMARK    6  A    between atoms: C_30  and  O_33
REMARK    7  A    between atoms: O_33  and  C_34
REMARK                            x       y       z     vdW  Elec       q    Type
REMARK                         _______ _______ _______ _____ _____    ______ ____
ROOT
ATOM      1  C   UNL     1       3.705   0.304   3.186  0.00  0.00    +0.047 A 
ATOM      2  C   UNL     1       4.105   1.499   2.608  0.00  0.00    +0.015 A 
ATOM      3  C   UNL     1       3.328   2.039   1.581  0.00  0.00    +0.022 A 
ATOM      4  C   UNL     1       2.188   1.420   1.171  0.00  0.00    +0.023 A 
ATOM      5  N   UNL     1       1.744   0.303   1.795  0.00  0.00    -0.311 N 
ATOM      6  C   UNL     1       2.516  -0.307   2.728  0.00  0.00    +0.259 A 
ATOM      7  O   UNL     1       2.182  -1.391   3.176  0.00  0.00    -0.267 OA
ATOM      8  C   UNL     1       0.417  -0.270   1.561  0.00  0.00    +0.126 C 
ATOM      9  C   UNL     1      -0.194   0.198   0.251  0.00  0.00    -0.007 C 
ATOM     10  C   UNL     1      -0.047   1.718   0.135  0.00  0.00    +0.011 C 
ATOM     11  C   UNL     1       1.448   2.030   0.002  0.00  0.00    +0.020 C 
ATOM     12  C   UNL     1       1.978   1.354  -1.259  0.00  0.00    -0.069 C 
ATOM     13  C   UNL     1       0.448  -0.498  -0.941  0.00  0.00    -0.073 C 
ATOM     14  N   UNL     1       1.867  -0.110  -1.064  0.00  0.00    +0.383 N 
ATOM     15  H   UNL     1       2.360  -0.369  -0.202  0.00  0.00    -0.081 HD
ENDROOT
BRANCH   1  19
ATOM     16  C   UNL     1       6.010  -1.487   6.277  0.00  0.00    +0.033 A 
ATOM     17  C   UNL     1       5.397  -0.259   6.492  0.00  0.00    +0.024 A 
ATOM     18  C   UNL     1       4.649   0.324   5.492  0.00  0.00    +0.010 A 
ATOM     19  C   UNL     1       4.508  -0.320   4.262  0.00  0.00    -0.013 A 
ATOM     20  C   UNL     1       5.121  -1.555   4.051  0.00  0.00    +0.010 A 
ATOM     21  C   UNL     1       5.872  -2.131   5.053  0.00  0.00    +0.024 A 
BRANCH  16  25
ATOM     22  C   UNL     1       7.299  -2.438   9.683  0.00  0.00    +0.109 C 
ATOM     23  C   UNL     1       6.417  -1.904   8.583  0.00  0.00    +0.214 C 
ATOM     24  O   UNL     1       5.391  -1.319   8.859  0.00  0.00    -0.276 OA
ATOM     25  N   UNL     1       6.769  -2.077   7.294  0.00  0.00    -0.286 N 
ATOM     26  H   UNL     1       7.548  -2.610   7.071  0.00  0.00    +0.155 HD
ENDBRANCH  16  25
ENDBRANCH   1  19
BRANCH  14  27
ATOM     27  C   UNL     1       2.487  -0.819  -2.202  0.00  0.00    -0.043 C 
BRANCH  27  28
ATOM     28  C   UNL     1       3.840  -0.217  -2.481  0.00  0.00    -0.064 A 
ATOM     29  C   UNL     1       3.960   0.818  -3.389  0.00  0.00    +0.005 A 
ATOM     30  C   UNL     1       5.198   1.376  -3.643  0.00  0.00    +0.046 A 
ATOM     31  C   UNL     1       6.323   0.889  -2.993  0.00  0.00    +0.120 A 
ATOM     32  C   UNL     1       6.201  -0.153  -2.086  0.00  0.00    +0.046 A 
ATOM     33  C   UNL     1       4.959  -0.704  -1.832  0.00  0.00    +0.005 A 
BRANCH  31  34
ATOM     34  O   UNL     1       7.543   1.431  -3.246  0.00  0.00    -0.495 OA
ATOM     35  C   UNL     1       7.595   2.502  -4.191  0.00  0.00    +0.277 C 
ENDBRANCH  31  34
ENDBRANCH  27  28
ENDBRANCH  14  27
TORSDOF 5
