REMARK  Name = ZINC03340962
REMARK  7 active torsions:
REMARK  status: ('A' for Active; 'I' for Inactive)
REMARK    1  A    between atoms: C_5  and  C_7
REMARK    2  A    between atoms: C_10  and  S_13
REMARK    3  A    between atoms: N_11  and  N_12
REMARK    4  A    between atoms: S_13  and  C_14
REMARK    5  A    between atoms: C_14  and  C_15
REMARK    6  A    between atoms: C_18  and  C_30
REMARK    7  A    between atoms: C_21  and  C_23
REMARK                            x       y       z     vdW  Elec       q    Type
REMARK                         _______ _______ _______ _____ _____    ______ ____
ROOT
ATOM      1  C   UNL     1       0.339  -8.415  -0.056  0.00  0.00    +0.243 C 
ATOM      2  O   UNL     1      -0.872  -8.494  -0.051  0.00  0.00    -0.273 OA
ATOM      3  N   UNL     1       1.087  -9.536  -0.067  0.00  0.00    -0.207 N 
ATOM      4  C   UNL     1       0.600 -10.925  -0.079  0.00  0.00    +0.187 C 
ATOM      5  C   UNL     1       1.854 -11.772  -0.088  0.00  0.00    +0.030 C 
ATOM      6  C   UNL     1       2.894 -10.942  -0.081  0.00  0.00    +0.050 C 
ATOM      7  N   UNL     1       2.486  -9.615  -0.074  0.00  0.00    -0.261 N 
ATOM      8  H   UNL     1       3.084  -8.852  -0.072  0.00  0.00    +0.170 HD
ENDROOT
BRANCH   6   9
ATOM      9  C   UNL     1       4.309 -11.380  -0.086  0.00  0.00    -0.003 A 
ATOM     10  C   UNL     1       4.621 -12.739  -0.104  0.00  0.00    +0.011 A 
ATOM     11  C   UNL     1       5.941 -13.141  -0.109  0.00  0.00    +0.020 A 
ATOM     12  C   UNL     1       6.954 -12.197  -0.095  0.00  0.00    +0.041 A 
ATOM     13  C   UNL     1       6.650 -10.847  -0.077  0.00  0.00    +0.020 A 
ATOM     14  C   UNL     1       5.333 -10.434  -0.078  0.00  0.00    +0.011 A 
ATOM     15 CL   UNL     1       8.613 -12.710  -0.101  0.00  0.00    -0.084 Cl
ENDBRANCH   6   9
BRANCH   4  16
ATOM     16  C   UNL     1      -0.219 -11.184  -1.317  0.00  0.00    +0.131 A 
ATOM     17  C   UNL     1      -1.355 -11.902  -1.373  0.00  0.00    +0.047 A 
ATOM     18  C   UNL     1      -1.784 -11.886  -2.720  0.00  0.00    +0.041 A 
ATOM     19  C   UNL     1      -0.885 -11.158  -3.407  0.00  0.00    +0.195 A 
ATOM     20  O   UNL     1       0.058 -10.730  -2.551  0.00  0.00    -0.466 OA
ENDBRANCH   4  16
BRANCH   1  21
ATOM     21  C   UNL     1       1.006  -7.064  -0.051  0.00  0.00    +0.175 C 
BRANCH  21  22
ATOM     22  S   UNL     1      -0.260  -5.765  -0.037  0.00  0.00    -0.075 S 
BRANCH  22  26
ATOM     23  C   UNL     1       1.249  -2.161  -0.022  0.00  0.00    +0.184 A 
ATOM     24  N   UNL     1       2.319  -2.921  -0.032  0.00  0.00    -0.127 NA
ATOM     25  N   UNL     1       1.976  -4.160  -0.037  0.00  0.00    -0.121 NA
ATOM     26  C   UNL     1       0.667  -4.266  -0.032  0.00  0.00    +0.209 A 
ATOM     27  N   UNL     1       0.158  -2.999  -0.016  0.00  0.00    -0.224 N 
BRANCH  23  32
ATOM     28  C   UNL     1      -0.017   1.375   0.010  0.00  0.00    +0.001 A 
ATOM     29  C   UNL     1       1.170   2.087   0.002  0.00  0.00    +0.003 A 
ATOM     30  C   UNL     1       2.383   1.423  -0.013  0.00  0.00    +0.039 A 
ATOM     31  C   UNL     1       2.417   0.042  -0.022  0.00  0.00    +0.134 A 
ATOM     32  C   UNL     1       1.222  -0.683  -0.014  0.00  0.00    +0.056 A 
ATOM     33  C   UNL     1       0.002  -0.004   0.002  0.00  0.00    +0.014 A 
ATOM     34  F   UNL     1       3.602  -0.607  -0.038  0.00  0.00    -0.205 F 
ENDBRANCH  23  32
BRANCH  27  35
ATOM     35  N   UNL     1      -1.160  -2.638  -0.000  0.00  0.00    -0.295 N 
ATOM     36  H   UNL     1      -1.518  -2.537  -0.938  0.00  0.00    +0.163 HD
ATOM     37  H   UNL     1      -1.709  -3.300   0.527  0.00  0.00    +0.163 HD
ENDBRANCH  27  35
ENDBRANCH  22  26
ENDBRANCH  21  22
ENDBRANCH   1  21
TORSDOF 7
