REMARK  Name = ZINC16399778
REMARK  3 active torsions:
REMARK  status: ('A' for Active; 'I' for Inactive)
REMARK    1  A    between atoms: C_3  and  C_10
REMARK    2  A    between atoms: C_5  and  N_7
REMARK    3  A    between atoms: C_16  and  C_17
REMARK                            x       y       z     vdW  Elec       q    Type
REMARK                         _______ _______ _______ _____ _____    ______ ____
ROOT
ATOM      1  C   UNL     1       5.976   4.252   0.227  0.00  0.00    +0.258 C 
ATOM      2  O   UNL     1       5.394   3.760   1.172  0.00  0.00    -0.269 OA
ATOM      3  N   UNL     1       5.641   3.899  -1.030  0.00  0.00    -0.189 N 
ATOM      4  C   UNL     1       4.394   3.544  -1.290  0.00  0.00    +0.265 C 
ATOM      5  O   UNL     1       3.540   3.528  -0.424  0.00  0.00    -0.269 OA
ATOM      6  C   UNL     1       4.091   3.168  -2.687  0.00  0.00    +0.078 C 
ATOM      7  C   UNL     1       2.919   2.768  -3.239  0.00  0.00    +0.028 C 
ATOM      8  S   UNL     1       5.696   3.379  -3.445  0.00  0.00    -0.061 S 
ATOM      9  C   UNL     1       6.585   3.915  -1.993  0.00  0.00    +0.128 C 
ATOM     10  S   UNL     1       8.238   4.340  -1.855  0.00  0.00    -0.027 S 
ENDROOT
BRANCH   7  11
ATOM     11  C   UNL     1       1.678   2.825  -2.454  0.00  0.00    -0.024 A 
ATOM     12  C   UNL     1       1.447   3.895  -1.581  0.00  0.00    +0.009 A 
ATOM     13  C   UNL     1       0.281   3.942  -0.848  0.00  0.00    +0.016 A 
ATOM     14  C   UNL     1      -0.661   2.934  -0.973  0.00  0.00    +0.018 A 
ATOM     15  C   UNL     1      -0.440   1.872  -1.834  0.00  0.00    +0.016 A 
ATOM     16  C   UNL     1       0.722   1.811  -2.574  0.00  0.00    +0.009 A 
ATOM     17 BR   UNL     1      -2.258   3.009   0.037  0.00  0.00    -0.050 Br
ENDBRANCH   7  11
BRANCH   1  20
ATOM     18  C   UNL     1       7.758   7.513   0.767  0.00  0.00    +0.003 A 
ATOM     19  C   UNL     1       6.749   6.598   0.549  0.00  0.00    +0.013 A 
ATOM     20  C   UNL     1       7.052   5.239   0.455  0.00  0.00    +0.040 A 
ATOM     21  C   UNL     1       8.378   4.816   0.571  0.00  0.00    +0.045 A 
ATOM     22  C   UNL     1       9.378   5.742   0.783  0.00  0.00    +0.127 A 
ATOM     23  C   UNL     1       9.069   7.088   0.881  0.00  0.00    +0.033 A 
BRANCH  22  24
ATOM     24  N   UNL     1      10.784   5.296   0.906  0.00  0.00    +0.056 N 
ATOM     25  O   UNL     1      11.057   4.112   0.819  0.00  0.00    -0.126 OA
ATOM     26  O   UNL     1      11.668   6.113   1.094  0.00  0.00    -0.126 OA
ENDBRANCH  22  24
ENDBRANCH   1  20
TORSDOF 3
