REMARK  Name = ZINC36398772
REMARK  7 active torsions:
REMARK  status: ('A' for Active; 'I' for Inactive)
REMARK    1  A    between atoms: C_4  and  O_28
REMARK    2  A    between atoms: C_5  and  C_7
REMARK    3  A    between atoms: C_9  and  C_21
REMARK    4  A    between atoms: C_11  and  C_16
REMARK    5  A    between atoms: C_11  and  O_20
REMARK    6  A    between atoms: C_21  and  C_23
REMARK    7  A    between atoms: O_28  and  C_29
REMARK                            x       y       z     vdW  Elec       q    Type
REMARK                         _______ _______ _______ _____ _____    ______ ____
ROOT
ATOM      1  C   UNL     1       1.227  -2.187  -0.022  0.00  0.00    +0.123 C 
ATOM      2  C   UNL     1       1.371  -2.705   1.413  0.00  0.00    +0.145 C 
ATOM      3  C   UNL     1       1.272  -4.234   1.391  0.00  0.00    +0.243 C 
ATOM      4  N   UNL     1       0.018  -4.625   0.746  0.00  0.00    -0.264 N 
ATOM      5  C   UNL     1      -0.552  -3.857  -0.194  0.00  0.00    +0.302 C 
ATOM      6  O   UNL     1      -1.589  -4.233  -0.707  0.00  0.00    -0.253 OA
ATOM      7  N   UNL     1      -0.024  -2.689  -0.592  0.00  0.00    -0.292 N 
ATOM      8  H   UNL     1      -0.409  -5.457   1.002  0.00  0.00    +0.153 HD
ATOM      9  H   UNL     1      -0.480  -2.167  -1.270  0.00  0.00    +0.151 HD
ENDROOT
BRANCH   1  14
ATOM     10  C   UNL     1      -0.017   1.378   0.010  0.00  0.00    +0.001 A 
ATOM     11  C   UNL     1       1.170   2.088   0.002  0.00  0.00    +0.004 A 
ATOM     12  C   UNL     1       2.377   1.417  -0.013  0.00  0.00    +0.046 A 
ATOM     13  C   UNL     1       2.399   0.030  -0.021  0.00  0.00    +0.132 A 
ATOM     14  C   UNL     1       1.207  -0.680  -0.013  0.00  0.00    +0.015 A 
ATOM     15  C   UNL     1       0.002  -0.004   0.002  0.00  0.00    +0.009 A 
BRANCH  13  16
ATOM     16  O   UNL     1       3.586  -0.632  -0.037  0.00  0.00    -0.434 OA
BRANCH  16  17
ATOM     17  C   UNL     1       4.772   0.164  -0.045  0.00  0.00    +0.541 C 
ATOM     18  F   UNL     1       4.781   0.977  -1.183  0.00  0.00    -0.166 F 
ATOM     19  F   UNL     1       4.804   0.965   1.101  0.00  0.00    -0.166 F 
ENDBRANCH  16  17
ENDBRANCH  13  16
ENDBRANCH   1  14
BRANCH   3  20
ATOM     20  C   UNL     1       2.453  -4.812   0.608  0.00  0.00    +0.436 C 
ATOM     21  F   UNL     1       3.651  -4.431   1.222  0.00  0.00    -0.166 F 
ATOM     22  F   UNL     1       2.361  -6.208   0.589  0.00  0.00    -0.166 F 
ATOM     23  F   UNL     1       2.425  -4.324  -0.703  0.00  0.00    -0.166 F 
ENDBRANCH   3  20
BRANCH   3  24
ATOM     24  O   UNL     1       1.296  -4.734   2.730  0.00  0.00    -0.364 OA
ATOM     25  H   UNL     1       1.237  -5.697   2.792  0.00  0.00    +0.212 HD
ENDBRANCH   3  24
BRANCH   2  26
ATOM     26  C   UNL     1       0.270  -2.135   2.270  0.00  0.00    +0.179 C 
ATOM     27  O   UNL     1      -0.807  -1.867   1.776  0.00  0.00    -0.291 OA
BRANCH  26  28
ATOM     28  C   UNL     1       0.490  -1.913   3.647  0.00  0.00    +0.055 A 
ATOM     29  C   UNL     1      -0.384  -1.407   4.605  0.00  0.00    +0.019 A 
ATOM     30  C   UNL     1       0.122  -1.305   5.876  0.00  0.00    +0.008 A 
ATOM     31  C   UNL     1       1.402  -1.692   6.111  0.00  0.00    +0.046 A 
ATOM     32  S   UNL     1       1.957  -2.215   4.614  0.00  0.00    -0.094 S 
ENDBRANCH  26  28
ENDBRANCH   2  26
TORSDOF 7
