REMARK  Name = ZINC04044664
REMARK  4 active torsions:
REMARK  status: ('A' for Active; 'I' for Inactive)
REMARK    1  A    between atoms: C_3  and  N_27
REMARK    2  A    between atoms: C_6  and  N_7
REMARK    3  A    between atoms: C_12  and  N_48
REMARK    4  A    between atoms: N_17  and  C_20
REMARK                            x       y       z     vdW  Elec       q    Type
REMARK                         _______ _______ _______ _____ _____    ______ ____
ROOT
ATOM      1  N   UNL     1      -3.132   8.979   3.483  0.00  0.00    -0.333 N 
ATOM      2  C   UNL     1      -3.563   9.627   2.236  0.00  0.00    +0.086 C 
ATOM      3  C   UNL     1      -2.962   8.881   1.043  0.00  0.00    -0.059 C 
ATOM      4  C   UNL     1      -1.065   8.235   2.401  0.00  0.00    -0.059 C 
ATOM      5  C   UNL     1      -1.666   8.981   3.595  0.00  0.00    +0.086 C 
ATOM      6  N   UNL     1      -1.488   8.910   1.155  0.00  0.00    +0.390 N 
ATOM      7  H   UNL     1      -1.175   9.887   1.182  0.00  0.00    -0.081 HD
ENDROOT
BRANCH   6   8
ATOM      8  C   UNL     1      -0.879   8.241  -0.014  0.00  0.00    +0.029 C 
ATOM      9  C   UNL     1       0.659   8.261   0.106  0.00  0.00    +0.090 C 
ATOM     10  C   UNL     1       1.032   6.795   0.132  0.00  0.00    +0.225 C 
ATOM     11  O   UNL     1       2.159   6.359   0.223  0.00  0.00    -0.275 OA
ATOM     12  N   UNL     1      -0.080   6.056   0.035  0.00  0.00    -0.212 N 
ATOM     13  C   UNL     1      -1.212   6.765  -0.049  0.00  0.00    +0.213 C 
ATOM     14  O   UNL     1      -2.328   6.300  -0.138  0.00  0.00    -0.277 OA
BRANCH  12  15
ATOM     15  C   UNL     1      -0.061   4.654   0.028  0.00  0.00    +0.044 A 
ATOM     16  C   UNL     1      -0.428   3.959  -1.117  0.00  0.00    +0.025 A 
ATOM     17  C   UNL     1      -0.409   2.578  -1.121  0.00  0.00    +0.017 A 
ATOM     18  C   UNL     1      -0.024   1.887   0.014  0.00  0.00    +0.018 A 
ATOM     19  C   UNL     1       0.337   2.576   1.157  0.00  0.00    +0.017 A 
ATOM     20  C   UNL     1       0.325   3.958   1.165  0.00  0.00    +0.025 A 
ATOM     21 BR   UNL     1       0.001  -0.004   0.004  0.00  0.00    -0.050 Br
ENDBRANCH  12  15
ENDBRANCH   6   8
BRANCH   1  27
ATOM     22  C   UNL     1      -4.579  10.667   4.422  0.00  0.00    +0.025 A 
ATOM     23  C   UNL     1      -5.163  11.265   5.521  0.00  0.00    +0.034 A 
ATOM     24  C   UNL     1      -4.883  10.799   6.793  0.00  0.00    +0.126 A 
ATOM     25  C   UNL     1      -4.023   9.731   6.968  0.00  0.00    +0.034 A 
ATOM     26  C   UNL     1      -3.440   9.125   5.872  0.00  0.00    +0.025 A 
ATOM     27  C   UNL     1      -3.719   9.590   4.593  0.00  0.00    +0.030 A 
BRANCH  24  28
ATOM     28  N   UNL     1      -5.504  11.447   7.970  0.00  0.00    +0.056 N 
ATOM     29  O   UNL     1      -5.258  11.039   9.091  0.00  0.00    -0.126 OA
ATOM     30  O   UNL     1      -6.262  12.388   7.817  0.00  0.00    -0.126 OA
ENDBRANCH  24  28
ENDBRANCH   1  27
TORSDOF 4
