REMARK  Name = ZINC32542216
REMARK  10 active torsions:
REMARK  status: ('A' for Active; 'I' for Inactive)
REMARK    1  A    between atoms: C_1  and  C_2
REMARK    2  A    between atoms: C_7  and  N_8
REMARK    3  A    between atoms: C_9  and  C_11
REMARK    4  A    between atoms: C_11  and  N_12
REMARK    5  A    between atoms: N_12  and  C_13
REMARK    6  A    between atoms: N_12  and  C_14
REMARK    7  A    between atoms: C_14  and  C_16
REMARK    8  A    between atoms: C_14  and  C_17
REMARK    9  A    between atoms: C_20  and  S_23
REMARK   10  A    between atoms: S_23  and  N_26
REMARK                            x       y       z     vdW  Elec       q    Type
REMARK                         _______ _______ _______ _____ _____    ______ ____
ROOT
ATOM      1  N   UNL     1      -2.206   3.686   5.920  0.00  0.00    +0.388 N 
ATOM      2  C   UNL     1      -1.752   4.984   5.402  0.00  0.00    -0.095 C 
ATOM      3  H   UNL     1      -1.323   3.040   6.033  0.00  0.00    -0.081 HD
ENDROOT
BRANCH   1   4
ATOM      4  C   UNL     1      -3.124   3.035   4.976  0.00  0.00    -0.041 C 
ATOM      5  C   UNL     1      -4.205   4.030   4.547  0.00  0.00    -0.008 C 
BRANCH   4   6
ATOM      6  C   UNL     1      -2.356   2.574   3.764  0.00  0.00    -0.061 A 
ATOM      7  C   UNL     1      -2.979   2.515   2.532  0.00  0.00    +0.004 A 
ATOM      8  C   UNL     1      -2.274   2.092   1.421  0.00  0.00    +0.029 A 
ATOM      9  C   UNL     1      -0.946   1.729   1.541  0.00  0.00    +0.105 A 
ATOM     10  C   UNL     1      -0.324   1.783   2.775  0.00  0.00    +0.029 A 
ATOM     11  C   UNL     1      -1.028   2.210   3.885  0.00  0.00    +0.004 A 
BRANCH   9  12
ATOM     12  S   UNL     1      -0.048   1.190   0.125  0.00  0.00    +0.056 S 
ATOM     13  O   UNL     1      -1.007   0.704  -0.804  0.00  0.00    -0.153 OA
ATOM     14  O   UNL     1       1.023   0.388   0.604  0.00  0.00    -0.153 OA
BRANCH  12  15
ATOM     15  N   UNL     1       0.637   2.533  -0.561  0.00  0.00    -0.204 NA
ATOM     16  H   UNL     1       1.209   2.237  -1.453  0.00  0.00    +0.144 HD
ATOM     17  H   UNL     1       1.310   3.012   0.165  0.00  0.00    +0.144 HD
ENDBRANCH  12  15
ENDBRANCH   9  12
ENDBRANCH   4   6
ENDBRANCH   1   4
BRANCH   1  18
ATOM     18  C   UNL     1      -2.829   3.836   7.242  0.00  0.00    +0.019 C 
BRANCH  18  20
ATOM     19  N   UNL     1      -2.133   4.479   9.527  0.00  0.00    -0.287 N 
ATOM     20  C   UNL     1      -1.789   4.276   8.240  0.00  0.00    +0.201 C 
ATOM     21  O   UNL     1      -0.642   4.449   7.884  0.00  0.00    -0.278 OA
ATOM     22  H   UNL     1      -3.188   4.413   9.831  0.00  0.00    +0.155 HD
BRANCH  19  29
ATOM     23  C   UNL     1      -2.902   5.917  11.858  0.00  0.00    +0.046 C 
ATOM     24  C   UNL     1      -1.480   5.473  11.629  0.00  0.00    -0.028 A 
ATOM     25  C   UNL     1      -0.507   5.758  12.567  0.00  0.00    +0.025 A 
ATOM     26  C   UNL     1       0.800   5.356  12.354  0.00  0.00    +0.041 A 
ATOM     27  C   UNL     1       1.134   4.662  11.204  0.00  0.00    +0.022 A 
ATOM     28  C   UNL     1       0.164   4.370  10.266  0.00  0.00    +0.025 A 
ATOM     29  C   UNL     1      -1.148   4.773  10.477  0.00  0.00    +0.036 A 
ATOM     30 CL   UNL     1       2.022   5.721  13.532  0.00  0.00    -0.084 Cl
ENDBRANCH  19  29
ENDBRANCH  18  20
ENDBRANCH   1  18
TORSDOF 7
