REMARK  Name = ZINC35692632
REMARK  8 active torsions:
REMARK  status: ('A' for Active; 'I' for Inactive)
REMARK    1  A    between atoms: C_1  and  C_2
REMARK    2  A    between atoms: C_3  and  C_30
REMARK    3  A    between atoms: C_4  and  C_24
REMARK    4  A    between atoms: C_7  and  C_12
REMARK    5  A    between atoms: C_13  and  N_15
REMARK    6  A    between atoms: N_15  and  C_16
REMARK    7  A    between atoms: C_16  and  C_17
REMARK    8  A    between atoms: N_32  and  C_33
REMARK                            x       y       z     vdW  Elec       q    Type
REMARK                         _______ _______ _______ _____ _____    ______ ____
ROOT
ATOM      1  C   UNL     1      -0.596   1.144   2.507  0.00  0.00    +0.066 C 
ATOM      2  C   UNL     1      -0.304  -0.038   1.619  0.00  0.00    +0.051 C 
ATOM      3  C   UNL     1      -1.283  -0.516   0.771  0.00  0.00    +0.061 C 
ATOM      4  C   UNL     1      -0.942  -1.704  -0.101  0.00  0.00    +0.148 C 
ATOM      5  N   UNL     1       0.429  -2.266   0.026  0.00  0.00    -0.267 N 
ATOM      6  C   UNL     1       0.955  -3.339  -0.665  0.00  0.00    +0.048 C 
ATOM      7  C   UNL     1       2.233  -3.691  -0.399  0.00  0.00    +0.072 C 
ATOM      8  S   UNL     1       2.694  -2.494   0.838  0.00  0.00    -0.060 S 
ATOM      9  C   UNL     1       1.250  -1.645   0.927  0.00  0.00    +0.166 C 
ATOM     10  N   UNL     1       0.891  -0.607   1.654  0.00  0.00    -0.230 NA
ENDROOT
BRANCH   4  11
ATOM     11  C   UNL     1      -1.145  -1.298  -1.538  0.00  0.00    -0.022 A 
ATOM     12  C   UNL     1      -2.160  -1.871  -2.281  0.00  0.00    +0.006 A 
ATOM     13  C   UNL     1      -2.346  -1.498  -3.599  0.00  0.00    +0.000 A 
ATOM     14  C   UNL     1      -1.517  -0.553  -4.174  0.00  0.00    +0.000 A 
ATOM     15  C   UNL     1      -0.502   0.020  -3.431  0.00  0.00    +0.000 A 
ATOM     16  C   UNL     1      -0.319  -0.349  -2.111  0.00  0.00    +0.006 A 
ENDBRANCH   4  11
BRANCH   3  17
ATOM     17  C   UNL     1      -2.551   0.080   0.720  0.00  0.00    +0.248 C 
ATOM     18  O   UNL     1      -2.768   1.107   1.341  0.00  0.00    -0.270 OA
ATOM     19  N   UNL     1      -3.531  -0.482  -0.016  0.00  0.00    -0.282 N 
ATOM     20  H   UNL     1      -3.393  -1.352  -0.422  0.00  0.00    +0.155 HD
BRANCH  19  21
ATOM     21  C   UNL     1      -4.745   0.189  -0.193  0.00  0.00    +0.034 A 
ATOM     22  C   UNL     1      -4.768   1.575  -0.282  0.00  0.00    +0.023 A 
ATOM     23  C   UNL     1      -5.968   2.234  -0.458  0.00  0.00    +0.002 A 
ATOM     24  C   UNL     1      -7.147   1.516  -0.544  0.00  0.00    +0.000 A 
ATOM     25  C   UNL     1      -7.128   0.136  -0.454  0.00  0.00    +0.002 A 
ATOM     26  C   UNL     1      -5.930  -0.530  -0.285  0.00  0.00    +0.023 A 
ENDBRANCH  19  21
ENDBRANCH   3  17
BRANCH   6  27
ATOM     27  C   UNL     1       0.154  -4.074  -1.654  0.00  0.00    +0.091 C 
ATOM     28  C   UNL     1       0.646  -5.191  -2.224  0.00  0.00    +0.239 C 
ATOM     29  O   UNL     1       1.921  -5.574  -1.972  0.00  0.00    -0.271 OA
BRANCH  28  30
ATOM     30  N   UNL     1      -0.151  -5.947  -3.066  0.00  0.00    -0.308 N 
ATOM     31  H   UNL     1      -1.038  -5.634  -3.305  0.00  0.00    +0.149 HD
BRANCH  30  32
ATOM     32  C   UNL     1       0.345  -7.219  -3.597  0.00  0.00    +0.139 C 
BRANCH  32  33
ATOM     33  C   UNL     1      -0.656  -7.780  -4.574  0.00  0.00    -0.030 A 
ATOM     34  C   UNL     1      -1.662  -8.617  -4.129  0.00  0.00    +0.008 A 
ATOM     35  C   UNL     1      -2.581  -9.131  -5.024  0.00  0.00    +0.038 A 
ATOM     36  C   UNL     1      -2.493  -8.808  -6.368  0.00  0.00    +0.123 A 
ATOM     37  C   UNL     1      -1.485  -7.970  -6.813  0.00  0.00    +0.038 A 
ATOM     38  C   UNL     1      -0.571  -7.452  -5.915  0.00  0.00    +0.008 A 
ATOM     39  F   UNL     1      -3.390  -9.311  -7.244  0.00  0.00    -0.205 F 
ENDBRANCH  32  33
ENDBRANCH  30  32
ENDBRANCH  28  30
ENDBRANCH   6  27
TORSDOF 7
