REMARK  Name = ZINC39272840
REMARK  4 active torsions:
REMARK  status: ('A' for Active; 'I' for Inactive)
REMARK    1  A    between atoms: C_1  and  C_2
REMARK    2  A    between atoms: C_7  and  C_9
REMARK    3  A    between atoms: C_7  and  C_10
REMARK    4  A    between atoms: C_13  and  C_15
REMARK                            x       y       z     vdW  Elec       q    Type
REMARK                         _______ _______ _______ _____ _____    ______ ____
ROOT
ATOM      1  C   UNL     1      -3.663  -2.488  -0.503  0.00  0.00    +0.092 C 
ATOM      2  C   UNL     1      -3.563  -2.381   1.020  0.00  0.00    +0.016 C 
ATOM      3  C   UNL     1      -4.954  -2.135   1.609  0.00  0.00    +0.020 C 
ATOM      4  C   UNL     1      -5.865  -3.318   1.266  0.00  0.00    +0.106 C 
ATOM      5  N   UNL     1      -5.852  -3.519  -0.189  0.00  0.00    -0.316 N 
ATOM      6  C   UNL     1      -4.560  -3.674  -0.870  0.00  0.00    +0.119 C 
ATOM      7  C   UNL     1      -7.005  -3.559  -0.887  0.00  0.00    +0.133 C 
ATOM      8  N   UNL     1      -8.165  -3.306  -0.308  0.00  0.00    -0.204 NA
ATOM      9  C   UNL     1      -9.338  -3.447  -0.922  0.00  0.00    +0.226 C 
ATOM     10  N   UNL     1      -9.471  -4.148  -2.040  0.00  0.00    -0.200 NA
ATOM     11  C   UNL     1      -8.364  -4.537  -2.653  0.00  0.00    +0.165 C 
ATOM     12  N   UNL     1      -8.075  -5.481  -3.501  0.00  0.00    -0.218 NA
ATOM     13  C   UNL     1      -6.764  -5.760  -3.485  0.00  0.00    +0.218 C 
ATOM     14  N   UNL     1      -6.066  -4.900  -2.793  0.00  0.00    -0.253 NA
ATOM     15  C   UNL     1      -7.016  -3.888  -2.347  0.00  0.00    +0.237 C 
ATOM     16 CL   UNL     1     -10.740  -2.688  -0.236  0.00  0.00    -0.041 Cl
ENDROOT
BRANCH   1  28
ATOM     17  C   UNL     1      -0.410   1.885  -0.806  0.00  0.00    +0.013 C 
ATOM     18  C   UNL     1      -0.240   0.376  -0.570  0.00  0.00    -0.014 C 
ATOM     19  C   UNL     1       0.443  -0.336  -1.769  0.00  0.00    +0.030 C 
ATOM     20  C   UNL     1       0.032  -1.799  -1.469  0.00  0.00    +0.077 C 
ATOM     21  C   UNL     1       0.905  -2.287  -0.316  0.00  0.00    +0.029 C 
ATOM     22  C   UNL     1       0.830  -1.413   0.923  0.00  0.00    -0.033 C 
ATOM     23  C   UNL     1       0.587   0.064   0.676  0.00  0.00    +0.014 C 
ATOM     24  C   UNL     1       2.193  -1.536   1.650  0.00  0.00    +0.011 C 
ATOM     25  C   UNL     1      -0.226  -1.969   1.889  0.00  0.00    +0.011 C 
ATOM     26  N   UNL     1      -1.369  -1.713  -1.014  0.00  0.00    -0.298 N 
ATOM     27  C   UNL     1      -1.595  -0.361  -0.480  0.00  0.00    +0.114 C 
ATOM     28  C   UNL     1      -2.288  -2.697  -1.084  0.00  0.00    +0.220 C 
ATOM     29  O   UNL     1      -2.009  -3.751  -1.615  0.00  0.00    -0.275 OA
ENDBRANCH   1  28
TORSDOF 1
