REMARK  Name = ZINC26566951
REMARK  10 active torsions:
REMARK  status: ('A' for Active; 'I' for Inactive)
REMARK    1  A    between atoms: C_1  and  C_2
REMARK    2  A    between atoms: C_4  and  N_27
REMARK    3  A    between atoms: C_7  and  N_8
REMARK    4  A    between atoms: C_9  and  C_11
REMARK    5  A    between atoms: C_11  and  C_13
REMARK    6  A    between atoms: C_11  and  N_16
REMARK    7  A    between atoms: C_13  and  C_14
REMARK    8  A    between atoms: C_13  and  C_15
REMARK    9  A    between atoms: C_17  and  C_19
REMARK   10  A    between atoms: N_30  and  C_33
REMARK                            x       y       z     vdW  Elec       q    Type
REMARK                         _______ _______ _______ _____ _____    ______ ____
ROOT
ATOM      1  N   UNL     1       1.560  -1.781   0.844  0.00  0.00    -0.284 N 
ATOM      2  C   UNL     1       1.040  -0.590   1.203  0.00  0.00    +0.238 C 
ATOM      3  O   UNL     1       1.579   0.073   2.064  0.00  0.00    -0.273 OA
ATOM      4  H   UNL     1       1.024  -2.422   0.129  0.00  0.00    +0.155 HD
ENDROOT
BRANCH   1  11
ATOM      5  C   UNL     1       2.177  -4.556   0.765  0.00  0.00    +0.046 C 
ATOM      6  C   UNL     1       3.124  -3.547   1.364  0.00  0.00    -0.028 A 
ATOM      7  C   UNL     1       4.332  -3.962   1.890  0.00  0.00    +0.028 A 
ATOM      8  C   UNL     1       5.202  -3.033   2.446  0.00  0.00    +0.030 A 
ATOM      9  C   UNL     1       4.859  -1.687   2.469  0.00  0.00    +0.025 A 
ATOM     10  C   UNL     1       3.654  -1.273   1.939  0.00  0.00    +0.025 A 
ATOM     11  C   UNL     1       2.784  -2.201   1.382  0.00  0.00    +0.036 A 
BRANCH   8  12
ATOM     12  N   UNL     1       6.423  -3.453   2.984  0.00  0.00    -0.333 N 
ATOM     13  C   UNL     1       6.218  -4.477   4.019  0.00  0.00    +0.086 C 
ATOM     14  C   UNL     1       7.577  -4.966   4.524  0.00  0.00    -0.060 C 
ATOM     15  N   UNL     1       8.338  -3.827   5.057  0.00  0.00    +0.380 N 
ATOM     16  C   UNL     1       8.542  -2.804   4.023  0.00  0.00    -0.060 C 
ATOM     17  C   UNL     1       7.183  -2.314   3.517  0.00  0.00    +0.086 C 
ATOM     18  C   UNL     1       9.620  -4.269   5.622  0.00  0.00    -0.096 C 
ATOM     19  H   UNL     1       7.749  -3.376   5.870  0.00  0.00    -0.082 HD
ENDBRANCH   8  12
ENDBRANCH   1  11
BRANCH   2  20
ATOM     20  C   UNL     1      -0.213  -0.083   0.536  0.00  0.00    +0.162 C 
BRANCH  20  21
ATOM     21  N   UNL     1      -0.814   0.968   1.360  0.00  0.00    -0.300 N 
ATOM     22  C   UNL     1      -2.134   1.225   1.268  0.00  0.00    +0.250 C 
ATOM     23  O   UNL     1      -2.826   0.584   0.500  0.00  0.00    -0.270 OA
ATOM     24  H   UNL     1      -0.188   1.548   2.055  0.00  0.00    +0.150 HD
BRANCH  22  25
ATOM     25  C   UNL     1      -2.739   2.284   2.098  0.00  0.00    +0.107 A 
ATOM     26  C   UNL     1      -2.804   3.598   1.624  0.00  0.00    +0.138 A 
ATOM     27  C   UNL     1      -3.378   4.583   2.406  0.00  0.00    +0.039 A 
ATOM     28  C   UNL     1      -3.877   4.274   3.659  0.00  0.00    +0.006 A 
ATOM     29  C   UNL     1      -3.812   2.978   4.137  0.00  0.00    +0.039 A 
ATOM     30  C   UNL     1      -3.246   1.980   3.366  0.00  0.00    +0.138 A 
ATOM     31  F   UNL     1      -3.183   0.715   3.836  0.00  0.00    -0.205 F 
ATOM     32  F   UNL     1      -2.312   3.904   0.404  0.00  0.00    -0.205 F 
ENDBRANCH  22  25
ENDBRANCH  20  21
BRANCH  20  33
ATOM     33  C   UNL     1       0.137   0.485  -0.840  0.00  0.00    +0.012 C 
ATOM     34  C   UNL     1      -1.148   0.881  -1.571  0.00  0.00    +0.009 C 
ATOM     35  C   UNL     1       1.028   1.718  -0.671  0.00  0.00    +0.009 C 
ENDBRANCH  20  33
ENDBRANCH   2  20
TORSDOF 6
