REMARK  Name = ZINC02434062
REMARK  6 active torsions:
REMARK  status: ('A' for Active; 'I' for Inactive)
REMARK    1  A    between atoms: C_3  and  C_31
REMARK    2  A    between atoms: C_5  and  N_7
REMARK    3  A    between atoms: N_7  and  C_8
REMARK    4  A    between atoms: N_11  and  C_16
REMARK    5  A    between atoms: C_25  and  C_28
REMARK    6  A    between atoms: C_28  and  C_29
REMARK                            x       y       z     vdW  Elec       q    Type
REMARK                         _______ _______ _______ _____ _____    ______ ____
ROOT
ATOM      1  C   UNL     1       5.366   4.612   0.284  0.00  0.00    +0.075 A 
ATOM      2  C   UNL     1       4.716   4.892   1.505  0.00  0.00    +0.157 A 
ATOM      3  N   UNL     1       3.524   4.419   1.741  0.00  0.00    -0.174 NA
ATOM      4  N   UNL     1       2.862   3.627   0.797  0.00  0.00    -0.222 N 
ATOM      5  C   UNL     1       3.447   3.331  -0.380  0.00  0.00    +0.288 A 
ATOM      6  O   UNL     1       2.865   2.635  -1.198  0.00  0.00    -0.265 OA
ATOM      7  C   UNL     1       4.727   3.830  -0.662  0.00  0.00    +0.129 A 
ATOM      8 CL   UNL     1       5.501   3.468  -2.173  0.00  0.00    -0.076 Cl
ENDROOT
BRANCH   4   9
ATOM      9  C   UNL     1       1.523   3.111   1.093  0.00  0.00    +0.068 C 
ATOM     10  C   UNL     1       1.547   1.582   1.056  0.00  0.00    +0.034 C 
ATOM     11  C   UNL     1       0.148   1.043   1.366  0.00  0.00    -0.008 C 
ATOM     12  C   UNL     1      -0.841   1.563   0.321  0.00  0.00    +0.007 C 
ATOM     13  C   UNL     1      -0.865   3.092   0.358  0.00  0.00    -0.008 C 
ATOM     14  C   UNL     1       0.533   3.631   0.049  0.00  0.00    +0.034 C 
ATOM     15  C   UNL     1      -1.297   3.562   1.748  0.00  0.00    +0.011 C 
ATOM     16  C   UNL     1      -0.307   3.042   2.793  0.00  0.00    -0.016 C 
ATOM     17  C   UNL     1      -0.284   1.513   2.756  0.00  0.00    +0.011 C 
ATOM     18  C   UNL     1       1.091   3.581   2.484  0.00  0.00    +0.037 C 
BRANCH  16  19
ATOM     19  C   UNL     1      -0.739   3.512   4.183  0.00  0.00    +0.132 C 
BRANCH  19  20
ATOM     20  C   UNL     1      -0.763   5.019   4.219  0.00  0.00    +0.357 C 
ATOM     21  O   UNL     1      -0.464   5.651   3.234  0.00  0.00    -0.246 OA
ATOM     22  O   UNL     1      -1.115   5.658   5.346  0.00  0.00    -0.246 OA
ENDBRANCH  19  20
ENDBRANCH  16  19
ENDBRANCH   4   9
BRANCH   1  23
ATOM     23  N   UNL     1       6.633   5.114   0.036  0.00  0.00    -0.312 N 
ATOM     24  H   UNL     1       7.367   4.508  -0.152  0.00  0.00    +0.152 HD
BRANCH  23  29
ATOM     25  C   UNL     1       5.991   8.735   0.179  0.00  0.00    +0.003 A 
ATOM     26  C   UNL     1       7.272   9.239   0.096  0.00  0.00    +0.015 A 
ATOM     27  C   UNL     1       8.360   8.370  -0.008  0.00  0.00    +0.065 A 
ATOM     28  C   UNL     1       8.145   6.991  -0.028  0.00  0.00    +0.038 A 
ATOM     29  C   UNL     1       6.854   6.494   0.056  0.00  0.00    +0.032 A 
ATOM     30  C   UNL     1       5.777   7.369   0.154  0.00  0.00    +0.023 A 
BRANCH  27  31
ATOM     31  C   UNL     1       9.733   8.907  -0.097  0.00  0.00    +0.387 C 
ATOM     32  O   UNL     1      10.678   8.149  -0.188  0.00  0.00    -0.241 OA
ATOM     33  O   UNL     1       9.938  10.239  -0.078  0.00  0.00    -0.241 OA
ENDBRANCH  27  31
ENDBRANCH  23  29
ENDBRANCH   1  23
TORSDOF 6
