REMARK  Name = ZINC22798468
REMARK  7 active torsions:
REMARK  status: ('A' for Active; 'I' for Inactive)
REMARK    1  A    between atoms: C_4  and  C_7
REMARK    2  A    between atoms: C_7  and  N_8
REMARK    3  A    between atoms: N_11  and  C_14
REMARK    4  A    between atoms: C_14  and  C_16
REMARK    5  A    between atoms: C_14  and  C_23
REMARK    6  A    between atoms: C_24  and  O_36
REMARK    7  A    between atoms: C_29  and  C_31
REMARK                            x       y       z     vdW  Elec       q    Type
REMARK                         _______ _______ _______ _____ _____    ______ ____
ROOT
ATOM      1  C   UNL     1       5.450  -2.988   4.812  0.00  0.00    +0.129 C 
ENDROOT
BRANCH   1   2
ATOM      2  C   UNL     1       4.498  -3.968   5.447  0.00  0.00    +0.076 A 
ATOM      3  C   UNL     1       3.816  -3.861   6.594  0.00  0.00    +0.228 A 
ATOM      4  N   UNL     1       2.986  -4.872   7.013  0.00  0.00    -0.173 N 
ATOM      5  C   UNL     1       2.893  -5.976   6.211  0.00  0.00    +0.200 A 
ATOM      6  S   UNL     1       3.978  -5.574   4.862  0.00  0.00    -0.047 S 
ATOM      7  N   UNL     1       2.072  -6.838   6.741  0.00  0.00    -0.197 NA
ATOM      8  C   UNL     1       1.599  -6.347   7.895  0.00  0.00    +0.218 A 
ATOM      9  N   UNL     1       2.123  -5.158   8.103  0.00  0.00    -0.138 NA
BRANCH   8  10
ATOM     10  C   UNL     1       0.641  -7.031   8.789  0.00  0.00    +0.173 A 
ATOM     11  C   UNL     1       0.099  -8.261   8.587  0.00  0.00    +0.053 A 
ATOM     12  C   UNL     1      -0.752  -8.514   9.681  0.00  0.00    +0.042 A 
ATOM     13  C   UNL     1      -0.687  -7.438  10.489  0.00  0.00    +0.196 A 
ATOM     14  O   UNL     1       0.159  -6.546   9.950  0.00  0.00    -0.460 OA
ENDBRANCH   8  10
BRANCH   3  15
ATOM     15  O   UNL     1       3.947  -2.739   7.352  0.00  0.00    -0.492 OA
ATOM     16  H   UNL     1       3.419  -2.748   8.162  0.00  0.00    +0.294 HD
ENDBRANCH   3  15
ENDBRANCH   1   2
BRANCH   1  20
ATOM     17  N   UNL     1       4.153  -0.953   1.342  0.00  0.00    +0.384 N 
ATOM     18  C   UNL     1       3.207  -1.861   2.004  0.00  0.00    -0.063 C 
ATOM     19  C   UNL     1       3.657  -2.102   3.447  0.00  0.00    +0.067 C 
ATOM     20  N   UNL     1       5.005  -2.688   3.445  0.00  0.00    -0.295 NA
ATOM     21  C   UNL     1       5.958  -1.801   2.763  0.00  0.00    +0.067 C 
ATOM     22  C   UNL     1       5.489  -1.562   1.326  0.00  0.00    -0.063 C 
ATOM     23  H   UNL     1       4.188  -0.079   1.844  0.00  0.00    -0.081 HD
BRANCH  17  24
ATOM     24  C   UNL     1       3.711  -0.707  -0.038  0.00  0.00    -0.043 C 
BRANCH  24  28
ATOM     25  C   UNL     1      -0.017   1.378   0.010  0.00  0.00    +0.000 A 
ATOM     26  C   UNL     1       1.171   2.086   0.002  0.00  0.00    +0.000 A 
ATOM     27  C   UNL     1       2.377   1.411  -0.013  0.00  0.00    +0.002 A 
ATOM     28  C   UNL     1       2.396   0.029  -0.020  0.00  0.00    -0.064 A 
ATOM     29  C   UNL     1       1.208  -0.679  -0.012  0.00  0.00    +0.002 A 
ATOM     30  C   UNL     1       0.002  -0.004   0.002  0.00  0.00    +0.000 A 
ENDBRANCH  24  28
ENDBRANCH  17  24
ENDBRANCH   1  20
BRANCH   1  31
ATOM     31  C   UNL     1       6.833  -3.585   4.771  0.00  0.00    -0.025 A 
ATOM     32  C   UNL     1       7.165  -4.489   3.779  0.00  0.00    +0.007 A 
ATOM     33  C   UNL     1       8.433  -5.038   3.740  0.00  0.00    +0.020 A 
ATOM     34  C   UNL     1       9.370  -4.682   4.694  0.00  0.00    +0.041 A 
ATOM     35  C   UNL     1       9.037  -3.777   5.686  0.00  0.00    +0.020 A 
ATOM     36  C   UNL     1       7.770  -3.225   5.721  0.00  0.00    +0.007 A 
ATOM     37 CL   UNL     1      10.963  -5.371   4.646  0.00  0.00    -0.084 Cl
ENDBRANCH   1  31
TORSDOF 7
