REMARK  Name = ZINC43301664
REMARK  7 active torsions:
REMARK  status: ('A' for Active; 'I' for Inactive)
REMARK    1  A    between atoms: C_1  and  C_2
REMARK    2  A    between atoms: C_2  and  C_3
REMARK    3  A    between atoms: C_3  and  N_4
REMARK    4  A    between atoms: N_7  and  C_10
REMARK    5  A    between atoms: C_10  and  C_11
REMARK    6  A    between atoms: C_13  and  O_14
REMARK    7  A    between atoms: C_23  and  C_25
REMARK                            x       y       z     vdW  Elec       q    Type
REMARK                         _______ _______ _______ _____ _____    ______ ____
ROOT
ATOM      1  C   UNL     1       0.782  -6.546  -3.869  0.00  0.00    -0.016 A 
ATOM      2  C   UNL     1       0.077  -6.484  -5.054  0.00  0.00    +0.093 A 
ATOM      3  C   UNL     1       0.724  -6.727  -6.257  0.00  0.00    +0.285 A 
ATOM      4  O   UNL     1       2.027  -7.024  -6.300  0.00  0.00    -0.425 OA
ATOM      5  C   UNL     1       2.763  -7.099  -5.172  0.00  0.00    +0.141 A 
ATOM      6  C   UNL     1       2.158  -6.855  -3.918  0.00  0.00    +0.022 A 
ATOM      7  C   UNL     1       2.923  -6.926  -2.741  0.00  0.00    +0.014 A 
ATOM      8  C   UNL     1       4.247  -7.225  -2.809  0.00  0.00    +0.024 A 
ATOM      9  C   UNL     1       4.859  -7.464  -4.052  0.00  0.00    +0.037 A 
ATOM     10  C   UNL     1       4.110  -7.408  -5.229  0.00  0.00    +0.070 A 
ATOM     11  N   UNL     1       6.186  -7.762  -4.107  0.00  0.00    -0.286 N 
ATOM     12  C   UNL     1       6.834  -7.676  -5.253  0.00  0.00    +0.214 C 
ATOM     13  O   UNL     1       6.278  -7.215  -6.234  0.00  0.00    -0.276 OA
ATOM     14  C   UNL     1       8.262  -8.149  -5.348  0.00  0.00    +0.109 C 
ATOM     15  H   UNL     1       6.655  -8.037  -3.304  0.00  0.00    +0.155 HD
ENDROOT
BRANCH   3  16
ATOM     16  O   UNL     1       0.025  -6.663  -7.407  0.00  0.00    -0.480 OA
ATOM     17  H   UNL     1       0.550  -6.846  -8.197  0.00  0.00    +0.295 HD
ENDBRANCH   3  16
BRANCH   1  18
ATOM     18  C   UNL     1       0.099  -6.285  -2.551  0.00  0.00    +0.120 C 
BRANCH  18  22
ATOM     19  N   UNL     1       0.515  -2.501  -0.715  0.00  0.00    +0.381 N 
ATOM     20  C   UNL     1      -0.843  -3.010  -0.946  0.00  0.00    -0.063 C 
ATOM     21  C   UNL     1      -0.792  -4.527  -1.144  0.00  0.00    +0.066 C 
ATOM     22  N   UNL     1       0.069  -4.839  -2.293  0.00  0.00    -0.302 NA
ATOM     23  C   UNL     1       1.426  -4.313  -2.088  0.00  0.00    +0.066 C 
ATOM     24  C   UNL     1       1.356  -2.798  -1.882  0.00  0.00    -0.063 C 
ATOM     25  H   UNL     1       0.906  -2.944   0.103  0.00  0.00    -0.082 HD
BRANCH  19  26
ATOM     26  C   UNL     1       0.463  -1.047  -0.507  0.00  0.00    -0.079 C 
BRANCH  26  28
ATOM     27  C   UNL     1      -0.362   0.770   0.995  0.00  0.00    +0.002 C 
ATOM     28  C   UNL     1      -0.309  -0.743   0.778  0.00  0.00    -0.022 C 
ENDBRANCH  26  28
ENDBRANCH  19  26
ENDBRANCH  18  22
ENDBRANCH   1  18
TORSDOF 5
