REMARK  Name = ZINC00999431
REMARK  6 active torsions:
REMARK  status: ('A' for Active; 'I' for Inactive)
REMARK    1  A    between atoms: C_1  and  C_2
REMARK    2  A    between atoms: C_8  and  C_10
REMARK    3  A    between atoms: C_14  and  C_16
REMARK    4  A    between atoms: C_16  and  N_17
REMARK    5  A    between atoms: C_18  and  C_24
REMARK    6  A    between atoms: C_20  and  C_22
REMARK                            x       y       z     vdW  Elec       q    Type
REMARK                         _______ _______ _______ _____ _____    ______ ____
ROOT
ATOM      1  C   UNL     1       0.090  -5.154   3.120  0.00  0.00    +0.037 A 
ATOM      2  C   UNL     1       0.084  -4.659   4.425  0.00  0.00    +0.013 A 
ATOM      3  C   UNL     1       0.101  -5.534   5.491  0.00  0.00    +0.001 A 
ATOM      4  C   UNL     1       0.125  -6.900   5.269  0.00  0.00    +0.005 A 
ATOM      5  C   UNL     1       0.132  -7.397   3.978  0.00  0.00    -0.025 A 
ATOM      6  C   UNL     1       0.109  -6.532   2.902  0.00  0.00    +0.018 A 
ENDROOT
BRANCH   1  14
ATOM      7  C   UNL     1      -0.018   1.503   0.010  0.00  0.00    +0.066 C 
ATOM      8  C   UNL     1       0.002  -0.004   0.002  0.00  0.00    +0.047 A 
ATOM      9  C   UNL     1       0.006  -0.706  -1.158  0.00  0.00    +0.071 A 
ATOM     10  S   UNL     1       0.032  -2.379  -0.535  0.00  0.00    -0.060 S 
ATOM     11  C   UNL     1       0.036  -2.015   1.108  0.00  0.00    +0.165 A 
ATOM     12  N   UNL     1       0.023  -0.700   1.124  0.00  0.00    -0.230 NA
ATOM     13  N   UNL     1       0.053  -2.891   2.186  0.00  0.00    -0.261 N 
ATOM     14  C   UNL     1       0.071  -4.221   1.973  0.00  0.00    +0.250 C 
ATOM     15  O   UNL     1       0.072  -4.655   0.837  0.00  0.00    -0.270 OA
ATOM     16  H   UNL     1       0.053  -2.545   3.092  0.00  0.00    +0.157 HD
ENDBRANCH   1  14
BRANCH   5  17
ATOM     17  C   UNL     1       0.159  -8.885   3.745  0.00  0.00    +0.179 C 
BRANCH  17  18
ATOM     18  N   UNL     1      -1.214  -9.393   3.672  0.00  0.00    -0.263 N 
ATOM     19  C   UNL     1      -1.955  -9.832   4.712  0.00  0.00    +0.051 A 
ATOM     20  C   UNL     1      -3.160 -10.213   4.227  0.00  0.00    +0.061 A 
ATOM     21  C   UNL     1      -3.155  -9.999   2.844  0.00  0.00    +0.074 A 
ATOM     22  N   UNL     1      -1.991  -9.503   2.511  0.00  0.00    -0.175 NA
ATOM     23  C   UNL     1      -4.295 -10.286   1.902  0.00  0.00    +0.068 C 
ATOM     24 BR   UNL     1      -4.596 -10.911   5.240  0.00  0.00    -0.047 Br
ATOM     25  C   UNL     1      -1.518  -9.888   6.153  0.00  0.00    +0.066 C 
ENDBRANCH  17  18
ENDBRANCH   5  17
TORSDOF 3
