REMARK  Name = ZINC25257261
REMARK  9 active torsions:
REMARK  status: ('A' for Active; 'I' for Inactive)
REMARK    1  A    between atoms: C_1  and  O_2
REMARK    2  A    between atoms: O_2  and  C_3
REMARK    3  A    between atoms: C_6  and  N_13
REMARK    4  A    between atoms: C_8  and  S_9
REMARK    5  A    between atoms: S_9  and  N_12
REMARK    6  A    between atoms: C_14  and  C_16
REMARK    7  A    between atoms: C_16  and  C_17
REMARK    8  A    between atoms: C_17  and  C_19
REMARK    9  A    between atoms: C_17  and  N_26
REMARK                            x       y       z     vdW  Elec       q    Type
REMARK                         _______ _______ _______ _____ _____    ______ ____
ROOT
ATOM      1  N   UNL     1       4.950   5.494   2.338  0.00  0.00    -0.285 N 
ATOM      2  C   UNL     1       4.329   4.991   1.253  0.00  0.00    +0.219 C 
ATOM      3  O   UNL     1       4.907   4.952   0.187  0.00  0.00    -0.275 OA
ATOM      4  H   UNL     1       4.458   5.455   3.321  0.00  0.00    +0.155 HD
ENDROOT
BRANCH   1   8
ATOM      5  C   UNL     1       8.736   7.202   1.969  0.00  0.00    +0.146 A 
ATOM      6  C   UNL     1       8.390   6.108   1.190  0.00  0.00    +0.049 A 
ATOM      7  C   UNL     1       7.138   5.538   1.316  0.00  0.00    +0.027 A 
ATOM      8  C   UNL     1       6.222   6.068   2.214  0.00  0.00    +0.035 A 
ATOM      9  C   UNL     1       6.568   7.164   2.993  0.00  0.00    +0.055 A 
ATOM     10  C   UNL     1       7.823   7.729   2.870  0.00  0.00    +0.148 A 
BRANCH  10  11
ATOM     11  S   UNL     1       8.262   9.120   3.859  0.00  0.00    +0.059 S 
ATOM     12  O   UNL     1       8.819  10.085   2.977  0.00  0.00    -0.153 OA
ATOM     13  O   UNL     1       7.142   9.401   4.686  0.00  0.00    -0.153 OA
BRANCH  11  14
ATOM     14  N   UNL     1       9.485   8.638   4.866  0.00  0.00    -0.203 NA
ATOM     15  H   UNL     1       9.790   9.481   5.503  0.00  0.00    +0.144 HD
ATOM     16  H   UNL     1      10.344   8.302   4.266  0.00  0.00    +0.144 HD
ENDBRANCH  11  14
ENDBRANCH  10  11
BRANCH   5  18
ATOM     17  C   UNL     1      10.860   7.165   0.901  0.00  0.00    +0.277 C 
ATOM     18  O   UNL     1       9.970   7.759   1.849  0.00  0.00    -0.493 OA
ENDBRANCH   5  18
ENDBRANCH   1   8
BRANCH   2  19
ATOM     19  C   UNL     1       2.917   4.476   1.364  0.00  0.00    +0.123 C 
BRANCH  19  20
ATOM     20  C   UNL     1       2.452   3.964  -0.001  0.00  0.00    +0.113 C 
BRANCH  20  21
ATOM     21  C   UNL     1       1.088   3.337   0.136  0.00  0.00    -0.026 A 
ATOM     22  C   UNL     1       0.215   3.341  -0.936  0.00  0.00    +0.005 A 
ATOM     23  C   UNL     1      -1.036   2.767  -0.812  0.00  0.00    +0.001 A 
ATOM     24  C   UNL     1      -1.417   2.193   0.387  0.00  0.00    +0.015 A 
ATOM     25  C   UNL     1      -0.542   2.184   1.458  0.00  0.00    +0.018 A 
ATOM     26  C   UNL     1       0.710   2.759   1.333  0.00  0.00    +0.020 A 
ATOM     27 BR   UNL     1      -1.060   1.392   3.095  0.00  0.00    -0.050 Br
ENDBRANCH  20  21
BRANCH  20  28
ATOM     28  N   UNL     1       2.384   5.082  -0.944  0.00  0.00    -0.292 N 
ATOM     29  C   UNL     1       1.518   6.092  -0.730  0.00  0.00    +0.298 C 
ATOM     30  O   UNL     1       0.859   6.122   0.291  0.00  0.00    -0.253 OA
ATOM     31  N   UNL     1       1.382   7.070  -1.648  0.00  0.00    -0.313 N 
ATOM     32  H   UNL     1       3.039   5.097  -1.828  0.00  0.00    +0.151 HD
ATOM     33  H   UNL     1       0.675   7.894  -1.474  0.00  0.00    +0.146 HD
ATOM     34  H   UNL     1       1.978   7.043  -2.572  0.00  0.00    +0.146 HD
ENDBRANCH  20  28
ENDBRANCH  19  20
ENDBRANCH   2  19
TORSDOF 8
