REMARK  Name = ZINC40705475
REMARK  5 active torsions:
REMARK  status: ('A' for Active; 'I' for Inactive)
REMARK    1  A    between atoms: C_1  and  C_2
REMARK    2  A    between atoms: C_2  and  C_4
REMARK    3  A    between atoms: C_8  and  N_10
REMARK    4  A    between atoms: C_12  and  N_29
REMARK    5  A    between atoms: C_13  and  N_17
REMARK                            x       y       z     vdW  Elec       q    Type
REMARK                         _______ _______ _______ _____ _____    ______ ____
ROOT
ATOM      1  N   UNL     1      -2.435  -4.263  -0.024  0.00  0.00    -0.298 N 
ATOM      2  C   UNL     1      -3.629  -4.963   0.103  0.00  0.00    +0.149 A 
ATOM      3  C   UNL     1      -3.627  -6.355   0.213  0.00  0.00    +0.106 A 
ATOM      4  C   UNL     1      -4.854  -7.008   0.339  0.00  0.00    +0.147 A 
ATOM      5  N   UNL     1      -5.971  -6.285   0.347  0.00  0.00    -0.219 NA
ATOM      6  C   UNL     1      -5.929  -4.973   0.240  0.00  0.00    +0.225 A 
ATOM      7  N   UNL     1      -4.793  -4.317   0.126  0.00  0.00    -0.219 NA
ATOM      8  H   UNL     1      -1.599  -4.744  -0.130  0.00  0.00    +0.154 HD
ENDROOT
BRANCH   4   9
ATOM      9  N   UNL     1      -4.908  -8.392   0.452  0.00  0.00    -0.311 N 
ATOM     10  C   UNL     1      -4.759  -9.042   1.761  0.00  0.00    +0.125 C 
ATOM     11  C   UNL     1      -5.978  -9.941   2.004  0.00  0.00    +0.125 C 
ATOM     12  N   UNL     1      -6.185 -10.781   0.816  0.00  0.00    -0.314 N 
ATOM     13  C   UNL     1      -6.334 -10.131  -0.494  0.00  0.00    +0.125 C 
ATOM     14  C   UNL     1      -5.121  -9.232  -0.735  0.00  0.00    +0.125 C 
ATOM     15  C   UNL     1      -6.239 -12.166   0.929  0.00  0.00    +0.099 A 
ATOM     16  C   UNL     1      -6.220 -12.756   2.189  0.00  0.00    +0.042 A 
ATOM     17  C   UNL     1      -6.274 -14.134   2.287  0.00  0.00    +0.005 A 
ATOM     18  C   UNL     1      -6.347 -14.879   1.117  0.00  0.00    +0.018 A 
ATOM     19  C   UNL     1      -6.363 -14.228  -0.100  0.00  0.00    +0.084 A 
ATOM     20  N   UNL     1      -6.315 -12.911  -0.163  0.00  0.00    -0.350 N 
ATOM     21  H   UNL     1      -6.332 -12.478  -1.031  0.00  0.00    +0.166 HD
ENDBRANCH   4   9
BRANCH   1  26
ATOM     22  C   UNL     1      -3.445  -0.789   0.686  0.00  0.00    +0.019 A 
ATOM     23  C   UNL     1      -2.426  -0.086   0.034  0.00  0.00    +0.011 A 
ATOM     24  C   UNL     1      -1.428  -0.774  -0.625  0.00  0.00    +0.002 A 
ATOM     25  C   UNL     1      -1.430  -2.156  -0.645  0.00  0.00    +0.023 A 
ATOM     26  C   UNL     1      -2.438  -2.865  -0.000  0.00  0.00    +0.033 A 
ATOM     27  C   UNL     1      -3.443  -2.186   0.671  0.00  0.00    +0.034 A 
BRANCH  22  29
ATOM     28  C   UNL     1      -4.511   1.448   1.405  0.00  0.00    +0.091 C 
ATOM     29  C   UNL     1      -4.511  -0.059   1.391  0.00  0.00    +0.160 C 
ATOM     30  O   UNL     1      -5.391  -0.670   1.960  0.00  0.00    -0.292 OA
ENDBRANCH  22  29
ENDBRANCH   1  26
BRANCH   3  31
ATOM     31  N   UNL     1      -2.423  -7.077   0.199  0.00  0.00    -0.353 N 
ATOM     32  H   UNL     1      -1.575  -6.607   0.184  0.00  0.00    +0.143 HD
ATOM     33  H   UNL     1      -2.439  -8.047   0.203  0.00  0.00    +0.143 HD
ENDBRANCH   3  31
TORSDOF 4
