REMARK  Name = ZINC04725131
REMARK  5 active torsions:
REMARK  status: ('A' for Active; 'I' for Inactive)
REMARK    1  A    between atoms: C_1  and  C_2
REMARK    2  A    between atoms: C_5  and  C_7
REMARK    3  A    between atoms: C_5  and  O_11
REMARK    4  A    between atoms: C_12  and  C_14
REMARK    5  A    between atoms: N_16  and  C_17
REMARK                            x       y       z     vdW  Elec       q    Type
REMARK                         _______ _______ _______ _____ _____    ______ ____
ROOT
ATOM      1  C   UNL     1      -0.025   1.087   0.001  0.00  0.00    +0.062 C 
ATOM      2  C   UNL     1      -0.723   1.572   1.246  0.00  0.00    +0.039 C 
ATOM      3  N   UNL     1      -1.221   0.825   2.143  0.00  0.00    -0.183 NA
ATOM      4  N   UNL     1      -1.815   1.510   3.201  0.00  0.00    -0.144 N 
ATOM      5  C   UNL     1      -1.685   2.956   2.960  0.00  0.00    +0.257 C 
ATOM      6  C   UNL     1      -0.928   3.024   1.617  0.00  0.00    +0.118 C 
ATOM      7  C   UNL     1      -2.409   0.942   4.270  0.00  0.00    +0.324 C 
ATOM      8  O   UNL     1      -2.894   1.640   5.136  0.00  0.00    -0.263 OA
ENDROOT
BRANCH   5   9
ATOM      9  C   UNL     1      -3.063   3.610   2.842  0.00  0.00    +0.438 C 
ATOM     10  F   UNL     1      -3.763   3.441   4.041  0.00  0.00    -0.166 F 
ATOM     11  F   UNL     1      -2.910   4.976   2.580  0.00  0.00    -0.166 F 
ATOM     12  F   UNL     1      -3.775   3.011   1.797  0.00  0.00    -0.166 F 
ENDBRANCH   5   9
BRANCH   7  13
ATOM     13  C   UNL     1      -2.469  -0.544   4.388  0.00  0.00    +0.305 C 
ATOM     14  O   UNL     1      -1.984  -1.242   3.521  0.00  0.00    -0.265 OA
ATOM     15  N   UNL     1      -3.064  -1.111   5.456  0.00  0.00    -0.278 N 
ATOM     16  H   UNL     1      -3.392  -0.556   6.180  0.00  0.00    +0.155 HD
BRANCH  15  17
ATOM     17  C   UNL     1      -3.206  -2.500   5.520  0.00  0.00    +0.034 A 
ATOM     18  C   UNL     1      -4.331  -3.057   6.116  0.00  0.00    +0.023 A 
ATOM     19  C   UNL     1      -4.471  -4.430   6.173  0.00  0.00    +0.002 A 
ATOM     20  C   UNL     1      -3.489  -5.250   5.648  0.00  0.00    +0.000 A 
ATOM     21  C   UNL     1      -2.366  -4.698   5.059  0.00  0.00    +0.002 A 
ATOM     22  C   UNL     1      -2.222  -3.326   4.993  0.00  0.00    +0.023 A 
ENDBRANCH  15  17
ENDBRANCH   7  13
BRANCH   5  23
ATOM     23  O   UNL     1      -0.922   3.574   3.998  0.00  0.00    -0.363 OA
ATOM     24  H   UNL     1      -1.318   3.496   4.877  0.00  0.00    +0.212 HD
ENDBRANCH   5  23
TORSDOF 4
