REMARK  Name = ZINC20179807
REMARK  4 active torsions:
REMARK  status: ('A' for Active; 'I' for Inactive)
REMARK    1  A    between atoms: C_1  and  N_2
REMARK    2  A    between atoms: C_5  and  C_21
REMARK    3  A    between atoms: C_11  and  C_12
REMARK    4  A    between atoms: N_26  and  C_29
REMARK                            x       y       z     vdW  Elec       q    Type
REMARK                         _______ _______ _______ _____ _____    ______ ____
ROOT
ATOM      1  C   UNL     1       1.019   5.081   0.822  0.00  0.00    +0.138 C 
ATOM      2  N   UNL     1       1.255   3.726   0.318  0.00  0.00    -0.269 N 
ATOM      3  C   UNL     1       0.135   2.998  -0.063  0.00  0.00    +0.051 A 
ATOM      4  C   UNL     1      -1.034   3.690  -0.357  0.00  0.00    +0.037 A 
ATOM      5  C   UNL     1      -2.183   3.000  -0.747  0.00  0.00    +0.039 A 
ATOM      6  C   UNL     1      -2.164   1.606  -0.850  0.00  0.00    +0.014 A 
ATOM      7  C   UNL     1      -1.010   0.916  -0.553  0.00  0.00    +0.017 A 
ATOM      8  C   UNL     1       0.133   1.603  -0.165  0.00  0.00    +0.034 A 
ATOM      9  S   UNL     1       1.611   0.707   0.210  0.00  0.00    -0.082 S 
ATOM     10  C   UNL     1       2.855   1.928  -0.121  0.00  0.00    +0.075 C 
ATOM     11  C   UNL     1       4.037   1.609  -0.701  0.00  0.00    +0.028 C 
ATOM     12  C   UNL     1       2.526   3.317   0.272  0.00  0.00    +0.257 C 
ATOM     13  O   UNL     1       3.420   4.091   0.555  0.00  0.00    -0.269 OA
ENDROOT
BRANCH   5  14
ATOM     14  C   UNL     1      -3.418   3.744  -1.056  0.00  0.00    +0.247 C 
ATOM     15  O   UNL     1      -3.370   4.739  -1.754  0.00  0.00    -0.270 OA
ATOM     16  N   UNL     1      -4.600   3.322  -0.566  0.00  0.00    -0.295 N 
ATOM     17  C   UNL     1      -4.696   2.069   0.198  0.00  0.00    +0.127 C 
ATOM     18  C   UNL     1      -5.430   2.362   1.516  0.00  0.00    +0.124 C 
ATOM     19  N   UNL     1      -6.715   3.009   1.221  0.00  0.00    -0.325 N 
ATOM     20  C   UNL     1      -6.519   4.310   0.567  0.00  0.00    +0.124 C 
ATOM     21  C   UNL     1      -5.829   4.099  -0.785  0.00  0.00    +0.127 C 
BRANCH  19  22
ATOM     22  C   UNL     1      -7.487   3.142   2.380  0.00  0.00    +0.065 A 
ATOM     23  C   UNL     1      -8.775   3.654   2.304  0.00  0.00    +0.026 A 
ATOM     24  C   UNL     1      -9.536   3.781   3.450  0.00  0.00    +0.002 A 
ATOM     25  C   UNL     1      -9.014   3.407   4.674  0.00  0.00    +0.003 A 
ATOM     26  C   UNL     1      -7.729   2.900   4.756  0.00  0.00    +0.040 A 
ATOM     27  C   UNL     1      -6.963   2.767   3.613  0.00  0.00    +0.144 A 
ATOM     28  F   UNL     1      -5.708   2.273   3.693  0.00  0.00    -0.204 F 
ENDBRANCH  19  22
ENDBRANCH   5  14
BRANCH  11  29
ATOM     29  C   UNL     1       4.385   0.199  -0.932  0.00  0.00    -0.022 A 
ATOM     30  C   UNL     1       5.176  -0.160  -2.029  0.00  0.00    +0.008 A 
ATOM     31  C   UNL     1       5.498  -1.483  -2.239  0.00  0.00    +0.002 A 
ATOM     32  C   UNL     1       5.042  -2.458  -1.368  0.00  0.00    +0.020 A 
ATOM     33  C   UNL     1       4.259  -2.112  -0.279  0.00  0.00    +0.042 A 
ATOM     34  C   UNL     1       3.932  -0.790  -0.053  0.00  0.00    +0.028 A 
ATOM     35 CL   UNL     1       3.694  -3.342   0.807  0.00  0.00    -0.084 Cl
ENDBRANCH  11  29
TORSDOF 3
