REMARK  Name = ZINC65307088
REMARK  3 active torsions:
REMARK  status: ('A' for Active; 'I' for Inactive)
REMARK    1  A    between atoms: C_5  and  C_7
REMARK    2  A    between atoms: N_20  and  C_21
REMARK    3  A    between atoms: C_24  and  C_27
REMARK                            x       y       z     vdW  Elec       q    Type
REMARK                         _______ _______ _______ _____ _____    ______ ____
ROOT
ATOM      1  C   UNL     1       1.342  -2.284   0.031  0.00  0.00    +0.177 C 
ATOM      2  C   UNL     1       1.828  -2.740   1.387  0.00  0.00    +0.088 A 
ATOM      3  H   UNL     1       3.975  -3.352   3.566  0.00  0.00    +0.166 HD
ATOM      4  C   UNL     1       3.129  -2.764   1.748  0.00  0.00    +0.042 A 
ATOM      5  N   UNL     1       3.177  -3.225   3.029  0.00  0.00    -0.348 N 
ATOM      6  C   UNL     1       1.903  -3.471   3.410  0.00  0.00    +0.197 A 
ATOM      7  N   UNL     1       1.103  -3.178   2.418  0.00  0.00    -0.238 NA
ATOM      8  C   UNL     1       4.276  -2.355   0.861  0.00  0.00    +0.074 C 
ATOM      9  C   UNL     1       3.728  -1.512  -0.298  0.00  0.00    +0.116 C 
ATOM     10  N   UNL     1       2.524  -2.163  -0.841  0.00  0.00    -0.271 N 
ATOM     11  C   UNL     1       2.503  -2.638  -2.102  0.00  0.00    +0.307 C 
ATOM     12  O   UNL     1       3.453  -2.452  -2.838  0.00  0.00    -0.252 OA
ATOM     13  N   UNL     1       1.428  -3.318  -2.548  0.00  0.00    -0.269 N 
ATOM     14  H   UNL     1       0.629  -3.377  -2.000  0.00  0.00    +0.156 HD
ENDROOT
BRANCH   1  19
ATOM     15  C   UNL     1      -1.305   0.340   0.591  0.00  0.00    +0.003 A 
ATOM     16  C   UNL     1      -0.549   1.481   0.369  0.00  0.00    +0.020 A 
ATOM     17  C   UNL     1       0.788   1.350   0.047  0.00  0.00    +0.111 A 
ATOM     18  N   UNL     1       1.346   0.159  -0.050  0.00  0.00    -0.258 NA
ATOM     19  C   UNL     1       0.658  -0.947   0.155  0.00  0.00    +0.068 A 
ATOM     20  C   UNL     1      -0.685  -0.895   0.481  0.00  0.00    +0.025 A 
ENDBRANCH   1  19
BRANCH  13  21
ATOM     21  C   UNL     1       1.463  -3.939  -3.802  0.00  0.00    +0.035 A 
ATOM     22  C   UNL     1       2.652  -4.474  -4.279  0.00  0.00    +0.024 A 
ATOM     23  C   UNL     1       2.683  -5.087  -5.517  0.00  0.00    +0.014 A 
ATOM     24  C   UNL     1       1.533  -5.168  -6.280  0.00  0.00    +0.055 A 
ATOM     25  C   UNL     1       0.347  -4.635  -5.807  0.00  0.00    +0.014 A 
ATOM     26  C   UNL     1       0.308  -4.026  -4.568  0.00  0.00    +0.024 A 
BRANCH  24  27
ATOM     27  C   UNL     1       1.571  -5.837  -7.630  0.00  0.00    +0.417 C 
ATOM     28  F   UNL     1       1.289  -7.199  -7.483  0.00  0.00    -0.166 F 
ATOM     29  F   UNL     1       0.616  -5.251  -8.468  0.00  0.00    -0.166 F 
ATOM     30  F   UNL     1       2.842  -5.682  -8.191  0.00  0.00    -0.166 F 
ENDBRANCH  24  27
ENDBRANCH  13  21
TORSDOF 3
