REMARK  Name = ZINC09358434
REMARK  5 active torsions:
REMARK  status: ('A' for Active; 'I' for Inactive)
REMARK    1  A    between atoms: C_1  and  C_2
REMARK    2  A    between atoms: N_23  and  C_26
REMARK    3  A    between atoms: C_29  and  N_34
REMARK    4  A    between atoms: C_31  and  O_32
REMARK    5  A    between atoms: O_32  and  C_33
REMARK                            x       y       z     vdW  Elec       q    Type
REMARK                         _______ _______ _______ _____ _____    ______ ____
ROOT
ATOM      1  C   UNL     1      -3.678   4.703  -4.420  0.00  0.00    +0.045 C 
ATOM      2  C   UNL     1      -3.108   4.455  -3.047  0.00  0.00    -0.029 A 
ATOM      3  C   UNL     1      -3.511   3.352  -2.324  0.00  0.00    +0.005 A 
ATOM      4  C   UNL     1      -2.994   3.116  -1.063  0.00  0.00    +0.001 A 
ATOM      5  C   UNL     1      -2.067   3.991  -0.525  0.00  0.00    +0.004 A 
ATOM      6  C   UNL     1      -1.661   5.093  -1.244  0.00  0.00    -0.027 A 
ATOM      7  C   UNL     1      -2.176   5.341  -2.513  0.00  0.00    +0.039 A 
ATOM      8  N   UNL     1      -1.620   6.509  -3.039  0.00  0.00    -0.286 N 
ATOM      9  C   UNL     1      -0.743   7.081  -2.193  0.00  0.00    +0.212 C 
ATOM     10  O   UNL     1      -0.111   8.098  -2.383  0.00  0.00    -0.277 OA
ATOM     11  C   UNL     1      -0.697   6.212  -0.964  0.00  0.00    +0.053 C 
ATOM     12  C   UNL     1       0.718   5.680  -0.711  0.00  0.00    +0.089 C 
ATOM     13  C   UNL     1       0.879   5.667   0.834  0.00  0.00    +0.074 C 
ATOM     14  C   UNL     1      -0.463   6.186   1.384  0.00  0.00    -0.054 C 
ATOM     15  C   UNL     1      -0.363   8.264   0.278  0.00  0.00    -0.076 C 
ATOM     16  C   UNL     1      -0.145   8.587   1.770  0.00  0.00    -0.020 C 
ATOM     17  C   UNL     1      -0.193   7.224   2.488  0.00  0.00    -0.016 C 
ATOM     18  C   UNL     1       1.012   4.196   1.159  0.00  0.00    +0.229 C 
ATOM     19  O   UNL     1       1.155   3.734   2.270  0.00  0.00    -0.275 OA
ATOM     20  N   UNL     1       0.953   3.484   0.027  0.00  0.00    -0.206 N 
ATOM     21  C   UNL     1       0.786   4.215  -1.081  0.00  0.00    +0.230 C 
ATOM     22  O   UNL     1       0.703   3.773  -2.206  0.00  0.00    -0.275 OA
ATOM     23  H   UNL     1      -1.840   6.866  -3.914  0.00  0.00    +0.155 HD
ATOM     24  N   UNL     1      -1.017   6.941   0.276  0.00  0.00    +0.395 N 
ATOM     25  H   UNL     1      -2.033   7.046   0.375  0.00  0.00    -0.079 HD
ENDROOT
BRANCH  20  26
ATOM     26  C   UNL     1       1.050   2.084   0.005  0.00  0.00    +0.086 A 
ATOM     27  C   UNL     1      -0.098   1.306   0.040  0.00  0.00    +0.030 A 
ATOM     28  C   UNL     1       0.001  -0.072   0.017  0.00  0.00    +0.035 A 
ATOM     29  C   UNL     1       1.242  -0.679  -0.038  0.00  0.00    +0.130 A 
ATOM     30  C   UNL     1       2.391   0.090  -0.072  0.00  0.00    +0.080 A 
ATOM     31  C   UNL     1       2.300   1.472  -0.051  0.00  0.00    +0.144 A 
BRANCH  29  32
ATOM     32  N   UNL     1       1.342  -2.155  -0.061  0.00  0.00    +0.057 N 
ATOM     33  O   UNL     1       2.434  -2.692  -0.109  0.00  0.00    -0.126 OA
ATOM     34  O   UNL     1       0.331  -2.834  -0.031  0.00  0.00    -0.126 OA
ENDBRANCH  29  32
BRANCH  31  35
ATOM     35  O   UNL     1       3.429   2.230  -0.079  0.00  0.00    -0.493 OA
ATOM     36  C   UNL     1       4.677   1.538  -0.005  0.00  0.00    +0.277 C 
ENDBRANCH  31  35
ENDBRANCH  20  26
TORSDOF 3
