REMARK  Name = ZINC56789826
REMARK  8 active torsions:
REMARK  status: ('A' for Active; 'I' for Inactive)
REMARK    1  A    between atoms: C_1  and  C_2
REMARK    2  A    between atoms: C_2  and  C_4
REMARK    3  A    between atoms: C_2  and  N_12
REMARK    4  A    between atoms: N_12  and  C_13
REMARK    5  A    between atoms: N_16  and  C_17
REMARK    6  A    between atoms: C_20  and  C_24
REMARK    7  A    between atoms: N_26  and  C_27
REMARK    8  A    between atoms: N_26  and  C_28
REMARK                            x       y       z     vdW  Elec       q    Type
REMARK                         _______ _______ _______ _____ _____    ______ ____
ROOT
ATOM      1  N   UNL     1       0.553  -0.779  -1.477  0.00  0.00    -0.282 N 
ATOM      2  C   UNL     1       0.087  -0.213  -2.746  0.00  0.00    +0.134 C 
ATOM      3  C   UNL     1       1.626  -1.594  -1.457  0.00  0.00    +0.307 C 
ATOM      4  O   UNL     1       2.013  -2.063  -0.404  0.00  0.00    -0.252 OA
ATOM      5  N   UNL     1       2.271  -1.888  -2.603  0.00  0.00    -0.269 N 
ATOM      6  H   UNL     1       1.923  -1.569  -3.451  0.00  0.00    +0.156 HD
ENDROOT
BRANCH   5   7
ATOM      7  C   UNL     1       3.437  -2.651  -2.571  0.00  0.00    +0.036 A 
ATOM      8  C   UNL     1       3.569  -3.680  -1.642  0.00  0.00    +0.024 A 
ATOM      9  C   UNL     1       4.718  -4.435  -1.607  0.00  0.00    +0.016 A 
ATOM     10  C   UNL     1       5.756  -4.170  -2.505  0.00  0.00    +0.055 A 
ATOM     11  C   UNL     1       5.621  -3.135  -3.437  0.00  0.00    +0.055 A 
ATOM     12  C   UNL     1       4.464  -2.387  -3.470  0.00  0.00    +0.044 A 
ATOM     13 CL   UNL     1       6.906  -2.800  -4.556  0.00  0.00    -0.083 Cl
BRANCH  10  14
ATOM     14  C   UNL     1       6.990  -4.977  -2.469  0.00  0.00    +0.248 C 
ATOM     15  O   UNL     1       7.359  -5.568  -3.466  0.00  0.00    -0.270 OA
ATOM     16  N   UNL     1       7.708  -5.060  -1.332  0.00  0.00    -0.304 N 
ATOM     17  C   UNL     1       8.983  -5.782  -1.322  0.00  0.00    +0.132 C 
ATOM     18  C   UNL     1       7.215  -4.428  -0.106  0.00  0.00    +0.132 C 
ENDBRANCH  10  14
ENDBRANCH   5   7
BRANCH   1  20
ATOM     19  C   UNL     1      -0.211   1.060  -0.058  0.00  0.00    +0.033 C 
ATOM     20  C   UNL     1      -0.148  -0.459  -0.231  0.00  0.00    +0.107 C 
BRANCH  20  21
ATOM     21  C   UNL     1      -1.546  -1.017  -0.284  0.00  0.00    +0.011 A 
ATOM     22  C   UNL     1      -2.620  -0.172  -0.497  0.00  0.00    +0.046 A 
ATOM     23  C   UNL     1      -3.905  -0.685  -0.546  0.00  0.00    +0.124 A 
ATOM     24  C   UNL     1      -4.115  -2.044  -0.381  0.00  0.00    +0.041 A 
ATOM     25  C   UNL     1      -3.042  -2.888  -0.167  0.00  0.00    +0.041 A 
ATOM     26  C   UNL     1      -1.756  -2.376  -0.124  0.00  0.00    +0.128 A 
ATOM     27  F   UNL     1      -0.707  -3.201   0.080  0.00  0.00    -0.205 F 
ATOM     28  F   UNL     1      -4.954   0.140  -0.755  0.00  0.00    -0.205 F 
ENDBRANCH  20  21
ENDBRANCH   1  20
TORSDOF 4
