REMARK  Name = ZINC22088073
REMARK  3 active torsions:
REMARK  status: ('A' for Active; 'I' for Inactive)
REMARK    1  A    between atoms: C_4  and  N_7
REMARK    2  A    between atoms: C_8  and  N_15
REMARK    3  A    between atoms: C_16  and  C_18
REMARK                            x       y       z     vdW  Elec       q    Type
REMARK                         _______ _______ _______ _____ _____    ______ ____
ROOT
ATOM      1  N   UNL     1       1.208   3.491  -0.045  0.00  0.00    -0.218 N 
ATOM      2  C   UNL     1       1.998   4.296   0.716  0.00  0.00    +0.132 A 
ATOM      3  C   UNL     1       1.606   5.582   0.495  0.00  0.00    +0.016 A 
ATOM      4  C   UNL     1       0.546   5.558  -0.416  0.00  0.00    +0.068 A 
ATOM      5  N   UNL     1       0.307   4.309  -0.739  0.00  0.00    -0.169 NA
ATOM      6  C   UNL     1       0.077   6.972  -0.683  0.00  0.00    +0.058 C 
ATOM      7  C   UNL     1       1.226   7.879  -0.194  0.00  0.00    +0.011 C 
ATOM      8  C   UNL     1       1.905   7.012   0.887  0.00  0.00    +0.041 C 
ENDROOT
BRANCH   1  12
ATOM      9  C   UNL     1       1.416  -0.666  -0.262  0.00  0.00    +0.000 A 
ATOM     10  C   UNL     1       0.184  -0.038  -0.213  0.00  0.00    +0.002 A 
ATOM     11  C   UNL     1       0.112   1.339  -0.142  0.00  0.00    +0.028 A 
ATOM     12  C   UNL     1       1.278   2.094  -0.118  0.00  0.00    +0.067 A 
ATOM     13  C   UNL     1       2.512   1.460  -0.165  0.00  0.00    +0.028 A 
ATOM     14  C   UNL     1       2.578   0.083  -0.237  0.00  0.00    +0.002 A 
ENDBRANCH   1  12
BRANCH   2  15
ATOM     15  N   UNL     1       3.023   3.880   1.563  0.00  0.00    -0.263 N 
ATOM     16  C   UNL     1       3.371   4.638   2.622  0.00  0.00    +0.285 C 
ATOM     17  O   UNL     1       2.730   5.637   2.892  0.00  0.00    -0.266 OA
ATOM     18  H   UNL     1       3.549   2.934   1.368  0.00  0.00    +0.157 HD
BRANCH  16  19
ATOM     19  C   UNL     1       4.519   4.259   3.449  0.00  0.00    +0.191 A 
ATOM     20  C   UNL     1       4.981   4.937   4.541  0.00  0.00    +0.056 A 
ATOM     21  C   UNL     1       6.088   4.222   5.023  0.00  0.00    +0.058 A 
ATOM     22  C   UNL     1       6.258   3.156   4.207  0.00  0.00    +0.171 A 
ATOM     23  O   UNL     1       5.311   3.182   3.260  0.00  0.00    -0.444 OA
ATOM     24 BR   UNL     1       7.610   1.844   4.377  0.00  0.00    -0.008 Br
ENDBRANCH  16  19
ENDBRANCH   2  15
TORSDOF 3
