REMARK  Name = ZINC24275386
REMARK  7 active torsions:
REMARK  status: ('A' for Active; 'I' for Inactive)
REMARK    1  A    between atoms: C_1  and  C_2
REMARK    2  A    between atoms: C_2  and  C_4
REMARK    3  A    between atoms: C_2  and  O_28
REMARK    4  A    between atoms: N_6  and  N_7
REMARK    5  A    between atoms: C_8  and  C_10
REMARK    6  A    between atoms: N_19  and  C_22
REMARK    7  A    between atoms: O_28  and  C_29
REMARK                            x       y       z     vdW  Elec       q    Type
REMARK                         _______ _______ _______ _____ _____    ______ ____
ROOT
ATOM      1  N   UNL     1       1.476   1.841   0.641  0.00  0.00    -0.230 N 
ATOM      2  C   UNL     1       2.648   1.236   0.365  0.00  0.00    +0.260 C 
ATOM      3  O   UNL     1       2.695   0.027   0.246  0.00  0.00    -0.269 OA
ATOM      4  H   UNL     1       1.433   2.935   0.748  0.00  0.00    +0.173 HD
ENDROOT
BRANCH   2   5
ATOM      5  C   UNL     1       3.879   2.044   0.206  0.00  0.00    +0.040 A 
ATOM      6  C   UNL     1       3.820   3.434   0.337  0.00  0.00    +0.014 A 
ATOM      7  C   UNL     1       4.960   4.194   0.195  0.00  0.00    +0.016 A 
ATOM      8  C   UNL     1       6.173   3.573  -0.090  0.00  0.00    +0.065 A 
ATOM      9  C   UNL     1       6.238   2.175  -0.228  0.00  0.00    +0.080 A 
ATOM     10  C   UNL     1       5.088   1.415  -0.080  0.00  0.00    +0.041 A 
ATOM     11  N   UNL     1       7.463   1.588  -0.512  0.00  0.00    -0.222 NA
ATOM     12  C   UNL     1       8.567   2.341  -0.653  0.00  0.00    +0.188 A 
ATOM     13  S   UNL     1      10.050   1.560  -1.003  0.00  0.00    -0.011 SA
ATOM     14  N   UNL     1       8.558   3.677  -0.530  0.00  0.00    -0.255 N 
ATOM     15  C   UNL     1       7.419   4.348  -0.254  0.00  0.00    +0.267 A 
ATOM     16  O   UNL     1       7.419   5.558  -0.144  0.00  0.00    -0.267 OA
BRANCH  14  17
ATOM     17  C   UNL     1       9.753   4.390  -0.690  0.00  0.00    +0.052 A 
ATOM     18  C   UNL     1      10.063   4.961  -1.917  0.00  0.00    +0.026 A 
ATOM     19  C   UNL     1      11.239   5.668  -2.071  0.00  0.00    +0.002 A 
ATOM     20  C   UNL     1      12.114   5.798  -1.008  0.00  0.00    +0.000 A 
ATOM     21  C   UNL     1      11.811   5.225   0.214  0.00  0.00    +0.002 A 
ATOM     22  C   UNL     1      10.633   4.522   0.376  0.00  0.00    +0.026 A 
ENDBRANCH  14  17
ENDBRANCH   2   5
BRANCH   1  25
ATOM     23  C   UNL     1      -0.862   1.682   1.062  0.00  0.00    +0.270 C 
ATOM     24  O   UNL     1      -0.909   2.888   1.181  0.00  0.00    -0.270 OA
ATOM     25  N   UNL     1       0.312   1.076   0.792  0.00  0.00    -0.231 N 
ATOM     26  H   UNL     1       0.355  -0.018   0.689  0.00  0.00    +0.173 HD
BRANCH  23  28
ATOM     27  C   UNL     1      -2.455   0.190  -0.115  0.00  0.00    +0.062 C 
ATOM     28  C   UNL     1      -2.115   0.860   1.218  0.00  0.00    +0.257 C 
BRANCH  28  29
ATOM     29  O   UNL     1      -3.195   1.708   1.613  0.00  0.00    -0.480 OA
BRANCH  29  30
ATOM     30  C   UNL     1      -4.181   1.145   2.361  0.00  0.00    +0.122 A 
ATOM     31  C   UNL     1      -5.220   1.927   2.843  0.00  0.00    +0.048 A 
ATOM     32  C   UNL     1      -6.224   1.352   3.597  0.00  0.00    +0.042 A 
ATOM     33  C   UNL     1      -6.189  -0.003   3.881  0.00  0.00    +0.124 A 
ATOM     34  C   UNL     1      -5.149  -0.784   3.405  0.00  0.00    +0.042 A 
ATOM     35  C   UNL     1      -4.147  -0.212   2.646  0.00  0.00    +0.048 A 
ATOM     36  F   UNL     1      -7.169  -0.563   4.622  0.00  0.00    -0.205 F 
ENDBRANCH  29  30
ENDBRANCH  28  29
ENDBRANCH  23  28
ENDBRANCH   1  25
TORSDOF 6
