REMARK  Name = ZINC17176547
REMARK  8 active torsions:
REMARK  status: ('A' for Active; 'I' for Inactive)
REMARK    1  A    between atoms: C_7  and  C_11
REMARK    2  A    between atoms: C_7  and  O_30
REMARK    3  A    between atoms: C_11  and  C_12
REMARK    4  A    between atoms: C_12  and  C_21
REMARK    5  A    between atoms: N_13  and  N_14
REMARK    6  A    between atoms: C_15  and  C_17
REMARK    7  A    between atoms: N_19  and  N_20
REMARK    8  A    between atoms: C_24  and  N_27
REMARK                            x       y       z     vdW  Elec       q    Type
REMARK                         _______ _______ _______ _____ _____    ______ ____
ROOT
ATOM      1  C   UNL     1       1.437   5.556  -1.370  0.00  0.00    +0.070 C 
ATOM      2  N   UNL     1       2.288   5.646  -2.347  0.00  0.00    -0.184 NA
ENDROOT
BRANCH   1   3
ATOM      3  C   UNL     1       1.435   6.567  -0.298  0.00  0.00    -0.002 A 
ATOM      4  C   UNL     1       0.624   6.396   0.827  0.00  0.00    +0.012 A 
ATOM      5  C   UNL     1       0.630   7.345   1.829  0.00  0.00    +0.033 A 
ATOM      6  C   UNL     1       1.430   8.468   1.717  0.00  0.00    +0.126 A 
ATOM      7  C   UNL     1       2.232   8.647   0.603  0.00  0.00    +0.033 A 
ATOM      8  C   UNL     1       2.239   7.705  -0.404  0.00  0.00    +0.012 A 
BRANCH   6   9
ATOM      9  N   UNL     1       1.427   9.485   2.793  0.00  0.00    +0.056 N 
ATOM     10  O   UNL     1       2.129  10.475   2.697  0.00  0.00    -0.126 OA
ATOM     11  O   UNL     1       0.722   9.330   3.774  0.00  0.00    -0.126 OA
ENDBRANCH   6   9
ENDBRANCH   1   3
BRANCH   2  12
ATOM     12  N   UNL     1       2.346   4.642  -3.321  0.00  0.00    -0.199 N 
ATOM     13  C   UNL     1       3.298   4.681  -4.274  0.00  0.00    +0.319 C 
ATOM     14  O   UNL     1       4.106   5.587  -4.288  0.00  0.00    -0.263 OA
ATOM     15  H   UNL     1       1.700   3.918  -3.311  0.00  0.00    +0.178 HD
BRANCH  13  16
ATOM     16  C   UNL     1       3.359   3.611  -5.313  0.00  0.00    +0.314 C 
ATOM     17  O   UNL     1       2.551   2.706  -5.299  0.00  0.00    -0.264 OA
ATOM     18  N   UNL     1       4.311   3.651  -6.266  0.00  0.00    -0.246 N 
ATOM     19  H   UNL     1       4.957   4.374  -6.276  0.00  0.00    +0.169 HD
BRANCH  18  20
ATOM     20  N   UNL     1       4.367   2.671  -7.216  0.00  0.00    -0.254 NA
ATOM     21  H   UNL     1       3.489   2.594  -7.708  0.00  0.00    +0.140 HD
ATOM     22  H   UNL     1       5.128   2.834  -7.858  0.00  0.00    +0.140 HD
ENDBRANCH  18  20
ENDBRANCH  13  16
ENDBRANCH   2  12
BRANCH   1  23
ATOM     23  C   UNL     1       0.450   4.417  -1.334  0.00  0.00    +0.107 C 
BRANCH  23  30
ATOM     24  C   UNL     1      -2.954   1.585  -2.198  0.00  0.00    +0.000 A 
ATOM     25  C   UNL     1      -4.089   2.185  -1.684  0.00  0.00    +0.002 A 
ATOM     26  C   UNL     1      -4.091   3.530  -1.379  0.00  0.00    +0.024 A 
ATOM     27  C   UNL     1      -2.945   4.296  -1.587  0.00  0.00    +0.040 A 
ATOM     28  C   UNL     1      -1.811   3.682  -2.103  0.00  0.00    +0.014 A 
ATOM     29  C   UNL     1      -1.812   2.339  -2.408  0.00  0.00    +0.009 A 
ATOM     30  C   UNL     1      -0.756   4.759  -2.210  0.00  0.00    +0.174 C 
ATOM     31  C   UNL     1      -1.448   6.004  -1.698  0.00  0.00    +0.254 C 
ATOM     32  O   UNL     1      -0.964   7.113  -1.608  0.00  0.00    -0.272 OA
ATOM     33  N   UNL     1      -2.700   5.651  -1.361  0.00  0.00    -0.282 N 
ATOM     34  H   UNL     1      -3.358   6.266  -1.002  0.00  0.00    +0.155 HD
BRANCH  30  35
ATOM     35  O   UNL     1      -0.352   4.935  -3.570  0.00  0.00    -0.374 OA
ATOM     36  H   UNL     1      -1.082   5.125  -4.176  0.00  0.00    +0.211 HD
ENDBRANCH  30  35
ENDBRANCH  23  30
ENDBRANCH   1  23
TORSDOF 8
