REMARK  Name = ZINC67500186
REMARK  8 active torsions:
REMARK  status: ('A' for Active; 'I' for Inactive)
REMARK    1  A    between atoms: C_1  and  C_2
REMARK    2  A    between atoms: C_2  and  C_3
REMARK    3  A    between atoms: C_3  and  C_4
REMARK    4  A    between atoms: N_6  and  C_7
REMARK    5  A    between atoms: C_11  and  N_14
REMARK    6  A    between atoms: C_12  and  C_13
REMARK    7  A    between atoms: C_15  and  C_17
REMARK    8  A    between atoms: C_20  and  C_22
REMARK                            x       y       z     vdW  Elec       q    Type
REMARK                         _______ _______ _______ _____ _____    ______ ____
ROOT
ATOM      1  N   UNL     1       2.222  -6.943   4.349  0.00  0.00    -0.279 N 
ATOM      2  C   UNL     1       2.788  -8.145   4.123  0.00  0.00    +0.284 C 
ATOM      3  O   UNL     1       2.768  -8.627   3.005  0.00  0.00    -0.266 OA
ATOM      4  H   UNL     1       2.177  -6.590   5.251  0.00  0.00    +0.155 HD
ENDROOT
BRANCH   1   9
ATOM      5  C   UNL     1       1.266  -4.090   2.230  0.00  0.00    +0.038 A 
ATOM      6  C   UNL     1       0.662  -4.748   1.165  0.00  0.00    +0.024 A 
ATOM      7  C   UNL     1       0.579  -6.127   1.161  0.00  0.00    +0.004 A 
ATOM      8  C   UNL     1       1.096  -6.856   2.215  0.00  0.00    +0.024 A 
ATOM      9  C   UNL     1       1.700  -6.204   3.282  0.00  0.00    +0.038 A 
ATOM     10  C   UNL     1       1.791  -4.819   3.286  0.00  0.00    -0.008 A 
ATOM     11  C   UNL     1       2.453  -4.109   4.439  0.00  0.00    +0.047 C 
BRANCH   5  14
ATOM     12  C   UNL     1       1.327  -2.014   1.069  0.00  0.00    +0.217 C 
ATOM     13  O   UNL     1       1.336  -2.615   0.016  0.00  0.00    -0.275 OA
ATOM     14  N   UNL     1       1.349  -2.693   2.233  0.00  0.00    -0.285 N 
ATOM     15  H   UNL     1       1.423  -2.214   3.073  0.00  0.00    +0.155 HD
BRANCH  12  16
ATOM     16  C   UNL     1       1.290  -0.507   1.076  0.00  0.00    +0.096 C 
BRANCH  16  18
ATOM     17  C   UNL     1       1.233   1.539  -0.356  0.00  0.00    +0.004 C 
ATOM     18  C   UNL     1       1.270   0.009  -0.364  0.00  0.00    +0.006 C 
ENDBRANCH  16  18
ENDBRANCH  12  16
ENDBRANCH   5  14
ENDBRANCH   1   9
BRANCH   2  19
ATOM     19  C   UNL     1       3.428  -8.872   5.222  0.00  0.00    +0.190 A 
ATOM     20  C   UNL     1       4.045 -10.100   5.128  0.00  0.00    +0.055 A 
ATOM     21  C   UNL     1       4.513 -10.415   6.408  0.00  0.00    +0.050 A 
ATOM     22  C   UNL     1       4.168  -9.378   7.228  0.00  0.00    +0.136 A 
ATOM     23  O   UNL     1       3.520  -8.452   6.501  0.00  0.00    -0.450 OA
BRANCH  22  24
ATOM     24  C   UNL     1       4.463  -9.288   8.672  0.00  0.00    +0.017 A 
ATOM     25  C   UNL     1       5.158 -10.317   9.311  0.00  0.00    +0.014 A 
ATOM     26  C   UNL     1       5.432 -10.227  10.659  0.00  0.00    +0.039 A 
ATOM     27  C   UNL     1       5.019  -9.118  11.380  0.00  0.00    +0.123 A 
ATOM     28  C   UNL     1       4.328  -8.093  10.751  0.00  0.00    +0.039 A 
ATOM     29  C   UNL     1       4.055  -8.170   9.402  0.00  0.00    +0.014 A 
ATOM     30  F   UNL     1       5.289  -9.035  12.701  0.00  0.00    -0.205 F 
ENDBRANCH  22  24
ENDBRANCH   2  19
TORSDOF 6
