REMARK  Name = ZINC39224157
REMARK  4 active torsions:
REMARK  status: ('A' for Active; 'I' for Inactive)
REMARK    1  A    between atoms: C_3  and  C_30
REMARK    2  A    between atoms: C_6  and  C_7
REMARK    3  A    between atoms: C_13  and  C_15
REMARK    4  A    between atoms: C_16  and  N_23
REMARK                            x       y       z     vdW  Elec       q    Type
REMARK                         _______ _______ _______ _____ _____    ______ ____
ROOT
ATOM      1  C   UNL     1      -1.366  -0.810   0.062  0.00  0.00    +0.054 C 
ATOM      2  N   UNL     1      -2.584  -0.323   0.079  0.00  0.00    -0.264 NA
ATOM      3  C   UNL     1      -3.530  -1.398   0.023  0.00  0.00    +0.205 C 
ATOM      4  C   UNL     1      -2.787  -2.602   0.674  0.00  0.00    +0.131 C 
ATOM      5  C   UNL     1      -1.416  -2.340   0.023  0.00  0.00    +0.092 C 
ATOM      6  C   UNL     1      -3.542  -3.812   0.218  0.00  0.00    +0.228 C 
ATOM      7  O   UNL     1      -2.983  -4.822  -0.153  0.00  0.00    -0.275 OA
ATOM      8  N   UNL     1      -4.899  -3.702   0.250  0.00  0.00    -0.240 N 
ATOM      9  C   UNL     1      -5.515  -2.554   0.597  0.00  0.00    +0.307 C 
ATOM     10  O   UNL     1      -6.672  -2.587   0.967  0.00  0.00    -0.252 OA
ATOM     11  N   UNL     1      -4.861  -1.370   0.548  0.00  0.00    -0.277 N 
ATOM     12  H   UNL     1      -5.439  -4.473   0.016  0.00  0.00    +0.159 HD
ATOM     13  H   UNL     1      -5.278  -0.549   0.854  0.00  0.00    +0.152 HD
ENDROOT
BRANCH   5  14
ATOM     14  C   UNL     1      -0.303  -2.940   0.842  0.00  0.00    +0.064 A 
ATOM     15  C   UNL     1       0.548  -3.857   0.289  0.00  0.00    +0.106 A 
ATOM     16  N   UNL     1       1.555  -4.391   1.055  0.00  0.00    -0.296 N 
ATOM     17  C   UNL     1       1.705  -4.016   2.339  0.00  0.00    +0.328 A 
ATOM     18  O   UNL     1       2.602  -4.498   3.003  0.00  0.00    -0.247 OA
ATOM     19  N   UNL     1       0.877  -3.115   2.899  0.00  0.00    -0.275 N 
ATOM     20  C   UNL     1      -0.121  -2.563   2.181  0.00  0.00    +0.260 A 
ATOM     21  O   UNL     1      -0.864  -1.743   2.694  0.00  0.00    -0.267 OA
ATOM     22  H   UNL     1       1.002  -2.858   3.826  0.00  0.00    +0.173 HD
ATOM     23  H   UNL     1       2.162  -5.042   0.669  0.00  0.00    +0.172 HD
BRANCH  15  24
ATOM     24  N   UNL     1       0.397  -4.240  -1.019  0.00  0.00    -0.344 N 
ATOM     25  H   UNL     1      -0.254  -3.793  -1.583  0.00  0.00    +0.144 HD
ATOM     26  H   UNL     1       0.940  -4.958  -1.380  0.00  0.00    +0.144 HD
ENDBRANCH  15  24
ENDBRANCH   5  14
BRANCH   1  32
ATOM     27  C   UNL     1      -0.204   1.392   0.110  0.00  0.00    +0.010 A 
ATOM     28  C   UNL     1       0.954   2.141   0.120  0.00  0.00    +0.013 A 
ATOM     29  C   UNL     1       2.187   1.514   0.094  0.00  0.00    +0.055 A 
ATOM     30  C   UNL     1       2.268   0.133   0.058  0.00  0.00    +0.013 A 
ATOM     31  C   UNL     1       1.117  -0.628   0.047  0.00  0.00    +0.010 A 
ATOM     32  C   UNL     1      -0.131  -0.002   0.073  0.00  0.00    -0.003 A 
BRANCH  29  33
ATOM     33  C   UNL     1       3.448   2.338   0.106  0.00  0.00    +0.417 C 
ATOM     34  F   UNL     1       3.849   2.560   1.427  0.00  0.00    -0.166 F 
ATOM     35  F   UNL     1       4.459   1.655  -0.580  0.00  0.00    -0.166 F 
ATOM     36  F   UNL     1       3.208   3.566  -0.521  0.00  0.00    -0.166 F 
ENDBRANCH  29  33
ENDBRANCH   1  32
TORSDOF 4
