REMARK  Name = ZINC12847025
REMARK  4 active torsions:
REMARK  status: ('A' for Active; 'I' for Inactive)
REMARK    1  A    between atoms: C_6  and  C_7
REMARK    2  A    between atoms: C_10  and  C_30
REMARK    3  A    between atoms: C_15  and  C_17
REMARK    4  A    between atoms: N_19  and  C_20
REMARK                            x       y       z     vdW  Elec       q    Type
REMARK                         _______ _______ _______ _____ _____    ______ ____
ROOT
ATOM      1  C   UNL     1      -1.316  -0.789   0.018  0.00  0.00    +0.104 C 
ATOM      2  C   UNL     1      -1.885  -0.836   1.440  0.00  0.00    +0.063 C 
ATOM      3  C   UNL     1      -2.060   0.588   1.980  0.00  0.00    +0.215 C 
ATOM      4  N   UNL     1      -2.784   1.386   0.986  0.00  0.00    -0.238 N 
ATOM      5  C   UNL     1      -2.885   1.044  -0.333  0.00  0.00    +0.119 A 
ATOM      6  C   UNL     1      -3.616   1.989  -0.956  0.00  0.00    +0.078 A 
ATOM      7  C   UNL     1      -3.982   2.953   0.011  0.00  0.00    +0.149 A 
ATOM      8  N   UNL     1      -3.477   2.581   1.174  0.00  0.00    -0.164 NA
ATOM      9  N   UNL     1      -2.291  -0.111  -0.859  0.00  0.00    -0.322 N 
ATOM     10  H   UNL     1      -2.506  -0.446  -1.744  0.00  0.00    +0.148 HD
ENDROOT
BRANCH   1  16
ATOM     11  C   UNL     1      -0.029   1.356   0.027  0.00  0.00    +0.009 A 
ATOM     12  C   UNL     1       1.160   2.062   0.027  0.00  0.00    +0.050 A 
ATOM     13  C   UNL     1       2.368   1.384   0.016  0.00  0.00    +0.166 A 
ATOM     14  C   UNL     1       2.380  -0.009   0.006  0.00  0.00    +0.167 A 
ATOM     15  C   UNL     1       1.185  -0.709   0.006  0.00  0.00    +0.055 A 
ATOM     16  C   UNL     1      -0.017  -0.026   0.017  0.00  0.00    -0.024 A 
ATOM     17  O   UNL     1       3.678  -0.434  -0.004  0.00  0.00    -0.453 OA
ATOM     18  C   UNL     1       4.453   0.709  -0.412  0.00  0.00    +0.466 C 
ATOM     19  O   UNL     1       3.657   1.831   0.013  0.00  0.00    -0.453 OA
ENDBRANCH   1  16
BRANCH   7  20
ATOM     20  C   UNL     1      -4.788   4.165  -0.236  0.00  0.00    +0.268 C 
ATOM     21  O   UNL     1      -5.200   4.404  -1.355  0.00  0.00    -0.268 OA
ATOM     22  N   UNL     1      -5.067   5.008   0.778  0.00  0.00    -0.280 N 
ATOM     23  H   UNL     1      -4.796   4.784   1.682  0.00  0.00    +0.155 HD
BRANCH  22  24
ATOM     24  C   UNL     1      -5.747   6.204   0.527  0.00  0.00    +0.034 A 
ATOM     25  C   UNL     1      -6.734   6.253  -0.450  0.00  0.00    +0.023 A 
ATOM     26  C   UNL     1      -7.402   7.435  -0.692  0.00  0.00    +0.006 A 
ATOM     27  C   UNL     1      -7.093   8.575   0.034  0.00  0.00    -0.044 A 
ATOM     28  C   UNL     1      -6.112   8.529   1.007  0.00  0.00    -0.042 A 
ATOM     29  C   UNL     1      -5.443   7.343   1.258  0.00  0.00    +0.027 A 
ATOM     30  C   UNL     1      -5.965   9.891   1.650  0.00  0.00    +0.036 C 
ATOM     31  C   UNL     1      -6.647  10.874   0.675  0.00  0.00    +0.009 C 
ATOM     32  C   UNL     1      -7.673   9.971  -0.042  0.00  0.00    +0.036 C 
ENDBRANCH  22  24
ENDBRANCH   7  20
BRANCH   3  33
ATOM     33  C   UNL     1      -2.856   0.547   3.286  0.00  0.00    +0.412 C 
ATOM     34  F   UNL     1      -2.167  -0.226   4.227  0.00  0.00    -0.168 F 
ATOM     35  F   UNL     1      -3.014   1.847   3.777  0.00  0.00    -0.168 F 
ATOM     36  F   UNL     1      -4.113  -0.019   3.049  0.00  0.00    -0.168 F 
ENDBRANCH   3  33
TORSDOF 4
