REMARK  Name = ZINC06218253
REMARK  7 active torsions:
REMARK  status: ('A' for Active; 'I' for Inactive)
REMARK    1  A    between atoms: C_1  and  C_2
REMARK    2  A    between atoms: C_2  and  C_3
REMARK    3  A    between atoms: C_3  and  C_22
REMARK    4  A    between atoms: N_6  and  C_10
REMARK    5  A    between atoms: C_10  and  C_11
REMARK    6  A    between atoms: N_13  and  C_14
REMARK    7  A    between atoms: C_17  and  C_21
REMARK                            x       y       z     vdW  Elec       q    Type
REMARK                         _______ _______ _______ _____ _____    ______ ____
ROOT
ATOM      1  C   UNL     1      -4.923   3.882  -0.146  0.00  0.00    +0.214 C 
ENDROOT
BRANCH   1   5
ATOM      2  C   UNL     1      -7.627   1.485  -1.006  0.00  0.00    +0.110 C 
ATOM      3  C   UNL     1      -6.511   2.434  -1.396  0.00  0.00    +0.247 C 
ATOM      4  O   UNL     1      -6.133   2.699  -2.518  0.00  0.00    -0.273 OA
ATOM      5  N   UNL     1      -6.024   2.921  -0.237  0.00  0.00    -0.215 N 
ATOM      6  C   UNL     1      -6.676   2.422   0.819  0.00  0.00    +0.310 C 
ATOM      7  O   UNL     1      -6.420   2.715   1.971  0.00  0.00    -0.252 OA
ATOM      8  N   UNL     1      -7.646   1.560   0.465  0.00  0.00    -0.285 N 
ATOM      9  C   UNL     1      -8.960   1.961  -1.587  0.00  0.00    +0.041 C 
ATOM     10  H   UNL     1      -8.242   1.081   1.062  0.00  0.00    +0.151 HD
BRANCH   2  12
ATOM     11  C   UNL     1      -8.411  -0.887  -0.969  0.00  0.00    +0.006 C 
ATOM     12  C   UNL     1      -7.318   0.060  -1.469  0.00  0.00    +0.031 C 
ENDBRANCH   2  12
ENDBRANCH   1   5
BRANCH   1  13
ATOM     13  C   UNL     1      -3.615   3.139  -0.049  0.00  0.00    +0.235 C 
ATOM     14  O   UNL     1      -3.604   1.926  -0.055  0.00  0.00    -0.274 OA
ATOM     15  N   UNL     1      -2.457   3.823   0.045  0.00  0.00    -0.283 N 
ATOM     16  H   UNL     1      -2.469   4.790   0.116  0.00  0.00    +0.155 HD
BRANCH  15  17
ATOM     17  C   UNL     1      -1.237   3.137   0.041  0.00  0.00    +0.048 A 
ATOM     18  C   UNL     1      -1.139   1.888   0.639  0.00  0.00    +0.024 A 
ATOM     19  C   UNL     1       0.067   1.215   0.638  0.00  0.00    +0.005 A 
ATOM     20  C   UNL     1       1.175   1.780   0.032  0.00  0.00    -0.049 A 
ATOM     21  C   UNL     1       1.080   3.021  -0.570  0.00  0.00    +0.020 A 
ATOM     22  C   UNL     1      -0.123   3.701  -0.567  0.00  0.00    +0.039 A 
ATOM     23 BR   UNL     1      -0.253   5.398  -1.391  0.00  0.00    -0.048 Br
ATOM     24  C   UNL     1       2.488   1.041   0.028  0.00  0.00    +0.044 C 
ENDBRANCH  15  17
ENDBRANCH   1  13
TORSDOF 4
