REMARK  Name = ZINC11905343
REMARK  9 active torsions:
REMARK  status: ('A' for Active; 'I' for Inactive)
REMARK    1  A    between atoms: C_1  and  C_2
REMARK    2  A    between atoms: C_7  and  C_9
REMARK    3  A    between atoms: C_7  and  C_25
REMARK    4  A    between atoms: C_7  and  N_60
REMARK    5  A    between atoms: C_9  and  N_10
REMARK    6  A    between atoms: C_11  and  C_13
REMARK    7  A    between atoms: C_15  and  C_18
REMARK    8  A    between atoms: C_30  and  O_31
REMARK    9  A    between atoms: O_31  and  C_32
REMARK                            x       y       z     vdW  Elec       q    Type
REMARK                         _______ _______ _______ _____ _____    ______ ____
ROOT
ATOM      1  C   UNL     1       0.106   1.432  -2.568  0.00  0.00    -0.017 C 
ENDROOT
BRANCH   1   8
ATOM      2  C   UNL     1       0.539   5.667   1.247  0.00  0.00    +0.007 C 
ATOM      3  C   UNL     1       0.871   4.530   0.278  0.00  0.00    -0.018 C 
ATOM      4  C   UNL     1       0.162   3.249   0.729  0.00  0.00    -0.015 C 
ATOM      5  C   UNL     1       0.450   2.132  -0.276  0.00  0.00    -0.078 C 
ATOM      6  C   UNL     1       0.673   3.734  -2.080  0.00  0.00    -0.078 C 
ATOM      7  C   UNL     1       0.393   4.900  -1.129  0.00  0.00    -0.015 C 
ATOM      8  N   UNL     1      -0.056   2.540  -1.604  0.00  0.00    +0.385 N 
ATOM      9  H   UNL     1      -1.054   2.769  -1.525  0.00  0.00    -0.081 HD
ENDBRANCH   1   8
BRANCH   1  10
ATOM     10  C   UNL     1      -0.928   1.585  -3.653  0.00  0.00    -0.018 A 
ATOM     11  C   UNL     1      -1.573   2.794  -3.829  0.00  0.00    +0.005 A 
ATOM     12  C   UNL     1      -2.522   2.935  -4.824  0.00  0.00    +0.000 A 
ATOM     13  C   UNL     1      -2.829   1.866  -5.646  0.00  0.00    +0.004 A 
ATOM     14  C   UNL     1      -2.188   0.654  -5.474  0.00  0.00    +0.046 A 
ATOM     15  C   UNL     1      -1.231   0.512  -4.479  0.00  0.00    +0.122 A 
BRANCH  15  16
ATOM     16  O   UNL     1      -0.595  -0.677  -4.312  0.00  0.00    -0.495 OA
ATOM     17  C   UNL     1      -0.957  -1.737  -5.199  0.00  0.00    +0.277 C 
ENDBRANCH  15  16
ENDBRANCH   1  10
BRANCH   1  18
ATOM     18  C   UNL     1       1.504   1.463  -3.189  0.00  0.00    +0.094 C 
BRANCH  18  19
ATOM     19  N   UNL     1       2.504   1.187  -2.155  0.00  0.00    -0.311 N 
ATOM     20  C   UNL     1       3.817   1.317  -2.434  0.00  0.00    +0.266 C 
ATOM     21  O   UNL     1       4.170   1.662  -3.544  0.00  0.00    -0.268 OA
ATOM     22  H   UNL     1       2.222   0.911  -1.268  0.00  0.00    +0.149 HD
BRANCH  20  23
ATOM     23  C   UNL     1       4.829   1.037  -1.387  0.00  0.00    +0.168 A 
ATOM     24  C   UNL     1       6.239   1.121  -1.522  0.00  0.00    +0.086 A 
ATOM     25  C   UNL     1       6.708   0.771  -0.286  0.00  0.00    +0.168 A 
ATOM     26  O   UNL     1       5.626   0.507   0.468  0.00  0.00    -0.354 OA
ATOM     27  N   UNL     1       4.600   0.658  -0.153  0.00  0.00    -0.073 NA
BRANCH  25  28
ATOM     28  C   UNL     1       8.122   0.693   0.135  0.00  0.00    +0.020 A 
ATOM     29  C   UNL     1       9.141   0.993  -0.770  0.00  0.00    +0.013 A 
ATOM     30  C   UNL     1      10.459   0.924  -0.369  0.00  0.00    +0.016 A 
ATOM     31  C   UNL     1      10.773   0.546   0.925  0.00  0.00    +0.018 A 
ATOM     32  C   UNL     1       9.767   0.240   1.827  0.00  0.00    +0.016 A 
ATOM     33  C   UNL     1       8.445   0.312   1.439  0.00  0.00    +0.013 A 
ATOM     34 BR   UNL     1      12.582   0.445   1.465  0.00  0.00    -0.050 Br
ENDBRANCH  25  28
ENDBRANCH  20  23
ENDBRANCH  18  19
ENDBRANCH   1  18
TORSDOF 7
