REMARK  Name = ZINC13719953
REMARK  12 active torsions:
REMARK  status: ('A' for Active; 'I' for Inactive)
REMARK    1  A    between atoms: C_1  and  O_2
REMARK    2  A    between atoms: O_2  and  C_3
REMARK    3  A    between atoms: C_6  and  C_11
REMARK    4  A    between atoms: C_8  and  O_9
REMARK    5  A    between atoms: O_9  and  C_10
REMARK    6  A    between atoms: C_15  and  O_30
REMARK    7  A    between atoms: C_16  and  O_28
REMARK    8  A    between atoms: N_21  and  C_22
REMARK    9  A    between atoms: C_22  and  N_24
REMARK   10  A    between atoms: N_24  and  C_25
REMARK   11  A    between atoms: O_28  and  C_29
REMARK   12  A    between atoms: O_30  and  C_31
REMARK                            x       y       z     vdW  Elec       q    Type
REMARK                         _______ _______ _______ _____ _____    ______ ____
ROOT
ATOM      1  C   UNL     1       3.646   2.238  -0.009  0.00  0.00    +0.136 C 
ATOM      2  C   UNL     1       2.536   1.219   0.055  0.00  0.00    -0.016 A 
ATOM      3  C   UNL     1       1.234   1.689   0.168  0.00  0.00    +0.055 A 
ATOM      4  C   UNL     1       0.173   0.806   0.247  0.00  0.00    +0.162 A 
ATOM      5  C   UNL     1       0.415  -0.564   0.211  0.00  0.00    +0.162 A 
ATOM      6  C   UNL     1       1.712  -1.027   0.092  0.00  0.00    +0.053 A 
ATOM      7  C   UNL     1       2.777  -0.136   0.012  0.00  0.00    -0.037 A 
ATOM      8  C   UNL     1       4.160  -0.716  -0.129  0.00  0.00    +0.054 C 
ATOM      9  C   UNL     1       5.222   0.305   0.276  0.00  0.00    +0.112 C 
ATOM     10  N   UNL     1       4.901   1.579  -0.388  0.00  0.00    -0.301 N 
ENDROOT
BRANCH   1  14
ATOM     11  C   UNL     1       4.109   4.076   3.825  0.00  0.00    +0.162 A 
ATOM     12  C   UNL     1       4.173   2.697   3.702  0.00  0.00    +0.050 A 
ATOM     13  C   UNL     1       4.017   2.106   2.462  0.00  0.00    +0.009 A 
ATOM     14  C   UNL     1       3.809   2.888   1.341  0.00  0.00    -0.019 A 
ATOM     15  C   UNL     1       3.744   4.264   1.457  0.00  0.00    +0.055 A 
ATOM     16  C   UNL     1       3.894   4.863   2.697  0.00  0.00    +0.162 A 
BRANCH  11  18
ATOM     17  C   UNL     1       4.473   3.789   6.157  0.00  0.00    +0.277 C 
ATOM     18  O   UNL     1       4.255   4.659   5.045  0.00  0.00    -0.491 OA
ENDBRANCH  11  18
BRANCH  16  19
ATOM     19  O   UNL     1       3.830   6.216   2.813  0.00  0.00    -0.491 OA
ATOM     20  C   UNL     1       3.606   6.960   1.613  0.00  0.00    +0.277 C 
ENDBRANCH  16  19
ENDBRANCH   1  14
BRANCH  10  21
ATOM     21  C   UNL     1       5.726   2.119  -1.306  0.00  0.00    +0.134 C 
ATOM     22  S   UNL     1       7.240   1.389  -1.631  0.00  0.00    -0.019 S 
BRANCH  21  23
ATOM     23  N   UNL     1       5.360   3.234  -1.969  0.00  0.00    -0.324 N 
ATOM     24  H   UNL     1       4.537   3.690  -1.734  0.00  0.00    +0.148 HD
BRANCH  23  25
ATOM     25  C   UNL     1       6.205   3.757  -3.046  0.00  0.00    +0.072 C 
ATOM     26  C   UNL     1       6.446   5.267  -3.083  0.00  0.00    +0.024 C 
ATOM     27  C   UNL     1       5.531   4.612  -4.121  0.00  0.00    +0.024 C 
ENDBRANCH  23  25
ENDBRANCH  21  23
ENDBRANCH  10  21
BRANCH   5  28
ATOM     28  O   UNL     1      -0.619  -1.444   0.291  0.00  0.00    -0.491 OA
ATOM     29  C   UNL     1      -0.293  -2.834   0.248  0.00  0.00    +0.277 C 
ENDBRANCH   5  28
BRANCH   4  30
ATOM     30  O   UNL     1      -1.100   1.273   0.354  0.00  0.00    -0.491 OA
ATOM     31  C   UNL     1      -1.270   2.692   0.385  0.00  0.00    +0.277 C 
ENDBRANCH   4  30
TORSDOF 8
