REMARK  Name = ZINC16483747
REMARK  11 active torsions:
REMARK  status: ('A' for Active; 'I' for Inactive)
REMARK    1  A    between atoms: C_1  and  C_2
REMARK    2  A    between atoms: C_2  and  C_4
REMARK    3  A    between atoms: C_2  and  N_24
REMARK    4  A    between atoms: N_6  and  C_7
REMARK    5  A    between atoms: C_10  and  C_13
REMARK    6  A    between atoms: N_15  and  C_16
REMARK    7  A    between atoms: C_21  and  O_22
REMARK    8  A    between atoms: O_22  and  C_23
REMARK    9  A    between atoms: N_24  and  C_25
REMARK   10  A    between atoms: C_25  and  C_26
REMARK   11  A    between atoms: C_25  and  C_32
REMARK                            x       y       z     vdW  Elec       q    Type
REMARK                         _______ _______ _______ _____ _____    ______ ____
ROOT
ATOM      1  C   UNL     1      -1.401  -0.546   0.063  0.00  0.00    +0.234 C 
ATOM      2  O   UNL     1      -1.795  -1.234  -0.855  0.00  0.00    -0.274 OA
ATOM      3  N   UNL     1      -2.231  -0.239   1.080  0.00  0.00    -0.284 N 
ATOM      4  H   UNL     1      -1.898   0.253   1.847  0.00  0.00    +0.155 HD
ENDROOT
BRANCH   3   5
ATOM      5  C   UNL     1      -3.569  -0.628   1.029  0.00  0.00    +0.033 A 
ATOM      6  C   UNL     1      -3.918  -1.840   0.441  0.00  0.00    +0.024 A 
ATOM      7  C   UNL     1      -5.237  -2.228   0.390  0.00  0.00    +0.015 A 
ATOM      8  C   UNL     1      -6.228  -1.402   0.929  0.00  0.00    +0.037 A 
ATOM      9  C   UNL     1      -5.874  -0.186   1.519  0.00  0.00    +0.015 A 
ATOM     10  C   UNL     1      -4.552   0.193   1.572  0.00  0.00    +0.024 A 
BRANCH   8  11
ATOM     11  C   UNL     1      -7.644  -1.814   0.876  0.00  0.00    +0.248 C 
ATOM     12  O   UNL     1      -7.950  -2.873   0.362  0.00  0.00    -0.270 OA
ATOM     13  N   UNL     1      -8.598  -1.017   1.396  0.00  0.00    -0.279 N 
ATOM     14  H   UNL     1      -8.365  -0.138   1.733  0.00  0.00    +0.155 HD
BRANCH  13  15
ATOM     15  C   UNL     1      -9.926  -1.458   1.451  0.00  0.00    +0.076 A 
ATOM     16  C   UNL     1     -10.208  -2.817   1.472  0.00  0.00    +0.027 A 
ATOM     17  C   UNL     1     -11.519  -3.249   1.526  0.00  0.00    +0.002 A 
ATOM     18  C   UNL     1     -12.553  -2.332   1.559  0.00  0.00    +0.004 A 
ATOM     19  C   UNL     1     -12.280  -0.977   1.538  0.00  0.00    +0.047 A 
ATOM     20  C   UNL     1     -10.968  -0.534   1.490  0.00  0.00    +0.141 A 
BRANCH  20  21
ATOM     21  O   UNL     1     -10.698   0.798   1.475  0.00  0.00    -0.493 OA
ATOM     22  C   UNL     1     -11.816   1.687   1.517  0.00  0.00    +0.277 C 
ENDBRANCH  20  21
ENDBRANCH  13  15
ENDBRANCH   8  11
ENDBRANCH   3   5
BRANCH   1  24
ATOM     23  C   UNL     1       0.006   1.496   0.087  0.00  0.00    +0.034 C 
ATOM     24  C   UNL     1       0.016  -0.034   0.067  0.00  0.00    +0.138 C 
BRANCH  24  25
ATOM     25  N   UNL     1       0.710  -0.503  -1.140  0.00  0.00    -0.295 NA
ATOM     26  H   UNL     1       0.353  -1.399  -1.436  0.00  0.00    +0.124 HD
BRANCH  25  27
ATOM     27  C   UNL     1       2.162  -0.558  -0.925  0.00  0.00    +0.115 C 
BRANCH  27  28
ATOM     28  C   UNL     1       2.771  -1.566  -1.866  0.00  0.00    -0.026 A 
ATOM     29  C   UNL     1       2.322  -1.653  -3.171  0.00  0.00    +0.005 A 
ATOM     30  C   UNL     1       2.881  -2.577  -4.033  0.00  0.00    +0.000 A 
ATOM     31  C   UNL     1       3.888  -3.415  -3.591  0.00  0.00    +0.000 A 
ATOM     32  C   UNL     1       4.337  -3.328  -2.287  0.00  0.00    +0.000 A 
ATOM     33  C   UNL     1       3.781  -2.400  -1.425  0.00  0.00    +0.005 A 
ENDBRANCH  27  28
BRANCH  27  34
ATOM     34  C   UNL     1       2.761   0.799  -1.187  0.00  0.00    -0.026 A 
ATOM     35  C   UNL     1       2.301   1.565  -2.242  0.00  0.00    +0.005 A 
ATOM     36  C   UNL     1       2.851   2.811  -2.483  0.00  0.00    +0.000 A 
ATOM     37  C   UNL     1       3.859   3.290  -1.668  0.00  0.00    +0.000 A 
ATOM     38  C   UNL     1       4.318   2.525  -0.613  0.00  0.00    +0.000 A 
ATOM     39  C   UNL     1       3.766   1.281  -0.369  0.00  0.00    +0.005 A 
ENDBRANCH  27  34
ENDBRANCH  25  27
ENDBRANCH  24  25
ENDBRANCH   1  24
TORSDOF 9
