REMARK  Name = ZINC64746694
REMARK  5 active torsions:
REMARK  status: ('A' for Active; 'I' for Inactive)
REMARK    1  A    between atoms: C_1  and  C_2
REMARK    2  A    between atoms: C_4  and  N_19
REMARK    3  A    between atoms: C_7  and  S_10
REMARK    4  A    between atoms: S_10  and  N_13
REMARK    5  A    between atoms: C_20  and  C_22
REMARK                            x       y       z     vdW  Elec       q    Type
REMARK                         _______ _______ _______ _____ _____    ______ ____
ROOT
ATOM      1  C   UNL     1      -0.019   1.526   0.010  0.00  0.00    +0.021 C 
ATOM      2  C   UNL     1       0.002  -0.004   0.002  0.00  0.00    +0.066 C 
ATOM      3  C   UNL     1      -1.431  -0.568   0.071  0.00  0.00    +0.088 C 
ATOM      4  C   UNL     1      -1.728  -1.321   1.367  0.00  0.00    +0.062 C 
ATOM      5  C   UNL     1      -0.434  -1.990   1.910  0.00  0.00    +0.207 C 
ATOM      6  S   UNL     1       0.789  -0.652   1.536  0.00  0.00    -0.128 S 
ENDROOT
BRANCH   3   7
ATOM      7  N   UNL     1      -2.378   0.542  -0.051  0.00  0.00    -0.309 N 
ATOM      8  C   UNL     1      -2.764   0.969  -1.270  0.00  0.00    +0.240 C 
ATOM      9  O   UNL     1      -2.325   0.434  -2.266  0.00  0.00    -0.273 OA
ATOM     10  H   UNL     1      -2.729   0.971   0.746  0.00  0.00    +0.149 HD
BRANCH   8  11
ATOM     11  C   UNL     1      -3.739   2.111  -1.395  0.00  0.00    +0.190 C 
ATOM     12  C   UNL     1      -5.062   1.738  -0.767  0.00  0.00    +0.016 C 
ATOM     13  C   UNL     1      -5.979   1.800  -1.759  0.00  0.00    -0.002 A 
ATOM     14  C   UNL     1      -7.426   1.554  -1.793  0.00  0.00    +0.029 A 
ATOM     15  C   UNL     1      -8.089   1.700  -2.963  0.00  0.00    +0.042 A 
ATOM     16  C   UNL     1      -7.430   2.080  -4.142  0.00  0.00    +0.022 A 
ATOM     17  C   UNL     1      -6.104   2.324  -4.189  0.00  0.00    +0.027 A 
ATOM     18  C   UNL     1      -5.308   2.200  -3.016  0.00  0.00    +0.043 A 
ATOM     19  N   UNL     1      -4.024   2.380  -2.809  0.00  0.00    -0.370 N 
ATOM     20 CL   UNL     1      -9.800   1.410  -3.007  0.00  0.00    -0.084 Cl
ATOM     21  H   UNL     1      -3.373   2.645  -3.478  0.00  0.00    +0.161 HD
ENDBRANCH   8  11
ENDBRANCH   3   7
BRANCH   5  22
ATOM     22  S   UNL     1      -0.550  -2.303   3.693  0.00  0.00    +0.044 S 
ATOM     23  O   UNL     1      -0.681  -1.076   4.398  0.00  0.00    -0.157 OA
ATOM     24  O   UNL     1      -1.441  -3.381   3.943  0.00  0.00    -0.157 OA
BRANCH  22  25
ATOM     25  N   UNL     1       0.942  -2.880   4.122  0.00  0.00    -0.179 NA
ATOM     26  C   UNL     1       1.203  -4.319   4.069  0.00  0.00    +0.120 C 
ATOM     27  C   UNL     1       2.253  -4.608   2.989  0.00  0.00    +0.086 C 
ATOM     28  S   UNL     1       3.752  -3.650   3.364  0.00  0.00    -0.158 S 
ATOM     29  C   UNL     1       3.126  -1.950   3.526  0.00  0.00    +0.086 C 
ATOM     30  C   UNL     1       1.985  -1.944   4.543  0.00  0.00    +0.120 C 
ENDBRANCH  22  25
ENDBRANCH   5  22
TORSDOF 4
