REMARK  Name = ZINC30500107
REMARK  11 active torsions:
REMARK  status: ('A' for Active; 'I' for Inactive)
REMARK    1  A    between atoms: C_1  and  C_2
REMARK    2  A    between atoms: C_2  and  C_3
REMARK    3  A    between atoms: N_5  and  C_6
REMARK    4  A    between atoms: C_9  and  C_12
REMARK    5  A    between atoms: C_12  and  C_14
REMARK    6  A    between atoms: C_12  and  N_15
REMARK    7  A    between atoms: N_15  and  C_16
REMARK    8  A    between atoms: C_16  and  C_18
REMARK    9  A    between atoms: C_16  and  C_19
REMARK   10  A    between atoms: N_21  and  C_22
REMARK   11  A    between atoms: C_25  and  C_29
REMARK                            x       y       z     vdW  Elec       q    Type
REMARK                         _______ _______ _______ _____ _____    ______ ____
ROOT
ATOM      1  N   UNL     1       1.209   1.081   0.107  0.00  0.00    +0.391 N 
ATOM      2  H   UNL     1       1.711   2.055   0.208  0.00  0.00    -0.084 HD
ATOM      3  H   UNL     1       0.309   1.195  -0.515  0.00  0.00    -0.084 HD
ENDROOT
BRANCH   1   4
ATOM      4  C   UNL     1       2.124   0.122  -0.526  0.00  0.00    -0.043 C 
ATOM      5  C   UNL     1       2.131   0.347  -2.040  0.00  0.00    -0.009 C 
BRANCH   4   9
ATOM      6  C   UNL     1       6.071   0.688   1.014  0.00  0.00    +0.033 A 
ATOM      7  C   UNL     1       5.590  -0.595   0.786  0.00  0.00    +0.023 A 
ATOM      8  C   UNL     1       4.314  -0.774   0.289  0.00  0.00    +0.004 A 
ATOM      9  C   UNL     1       3.516   0.322   0.017  0.00  0.00    -0.062 A 
ATOM     10  C   UNL     1       3.994   1.600   0.238  0.00  0.00    +0.004 A 
ATOM     11  C   UNL     1       5.267   1.786   0.741  0.00  0.00    +0.023 A 
BRANCH   6  14
ATOM     12  C   UNL     1       8.353   0.033   1.158  0.00  0.00    +0.217 C 
ATOM     13  O   UNL     1       8.149  -0.824   0.324  0.00  0.00    -0.275 OA
ATOM     14  N   UNL     1       7.363   0.873   1.518  0.00  0.00    -0.286 N 
ATOM     15  H   UNL     1       7.571   1.704   2.208  0.00  0.00    +0.155 HD
BRANCH  12  17
ATOM     16  C   UNL     1      10.647  -0.909   1.212  0.00  0.00    +0.013 C 
ATOM     17  C   UNL     1       9.715   0.157   1.793  0.00  0.00    +0.093 C 
ENDBRANCH  12  17
ENDBRANCH   6  14
ENDBRANCH   4   9
ENDBRANCH   1   4
BRANCH   1  18
ATOM     18  C   UNL     1       0.804   0.619   1.442  0.00  0.00    +0.014 C 
ATOM     19  C   UNL     1      -0.457  -0.239   1.323  0.00  0.00    -0.004 C 
BRANCH  18  20
ATOM     20  C   UNL     1       0.521   1.810   2.321  0.00  0.00    +0.203 C 
ATOM     21  O   UNL     1       0.645   2.933   1.880  0.00  0.00    -0.277 OA
ATOM     22  N   UNL     1       0.131   1.627   3.598  0.00  0.00    -0.287 N 
ATOM     23  H   UNL     1       0.104   0.614   4.025  0.00  0.00    +0.155 HD
BRANCH  22  24
ATOM     24  C   UNL     1      -0.240   2.726   4.380  0.00  0.00    +0.036 A 
ATOM     25  C   UNL     1       0.040   2.738   5.741  0.00  0.00    +0.024 A 
ATOM     26  C   UNL     1      -0.322   3.826   6.510  0.00  0.00    +0.008 A 
ATOM     27  C   UNL     1      -0.974   4.899   5.931  0.00  0.00    -0.015 A 
ATOM     28  C   UNL     1      -1.260   4.889   4.576  0.00  0.00    +0.128 A 
ATOM     29  C   UNL     1      -0.894   3.803   3.799  0.00  0.00    +0.062 A 
ATOM     30  F   UNL     1      -1.897   5.938   4.012  0.00  0.00    -0.205 F 
ATOM     31  C   UNL     1      -1.372   6.082   6.775  0.00  0.00    +0.047 C 
ENDBRANCH  22  24
ENDBRANCH  18  20
ENDBRANCH   1  18
TORSDOF 7
