REMARK  Name = ZINC12467344
REMARK  15 active torsions:
REMARK  status: ('A' for Active; 'I' for Inactive)
REMARK    1  A    between atoms: C_1  and  C_2
REMARK    2  A    between atoms: C_6  and  N_9
REMARK    3  A    between atoms: C_7  and  C_8
REMARK    4  A    between atoms: N_9  and  C_10
REMARK    5  A    between atoms: C_10  and  C_12
REMARK    6  A    between atoms: C_10  and  C_20
REMARK    7  A    between atoms: C_15  and  O_18
REMARK    8  A    between atoms: O_18  and  C_19
REMARK    9  A    between atoms: N_22  and  C_23
REMARK   10  A    between atoms: C_23  and  C_24
REMARK   11  A    between atoms: C_24  and  O_25
REMARK   12  A    between atoms: O_25  and  C_26
REMARK   13  A    between atoms: C_27  and  C_29
REMARK   14  A    between atoms: C_30  and  N_37
REMARK   15  A    between atoms: C_31  and  C_34
REMARK                            x       y       z     vdW  Elec       q    Type
REMARK                         _______ _______ _______ _____ _____    ______ ____
ROOT
ATOM      1  N   UNL     1       1.446   1.306   2.112  0.00  0.00    -0.251 N 
ATOM      2  C   UNL     1       2.403   2.244   1.976  0.00  0.00    +0.262 C 
ATOM      3  O   UNL     1       3.537   2.016   2.353  0.00  0.00    -0.269 OA
ENDROOT
BRANCH   1   9
ATOM      4  C   UNL     1      -1.978   1.044  -1.407  0.00  0.00    +0.044 C 
ATOM      5  C   UNL     1      -1.544   1.453  -0.022  0.00  0.00    -0.046 A 
ATOM      6  C   UNL     1      -2.437   2.088   0.822  0.00  0.00    +0.004 A 
ATOM      7  C   UNL     1      -2.042   2.469   2.091  0.00  0.00    +0.002 A 
ATOM      8  C   UNL     1      -0.755   2.211   2.522  0.00  0.00    +0.024 A 
ATOM      9  C   UNL     1       0.142   1.568   1.679  0.00  0.00    +0.041 A 
ATOM     10  C   UNL     1      -0.258   1.187   0.405  0.00  0.00    -0.026 A 
ATOM     11  C   UNL     1       0.712   0.489  -0.514  0.00  0.00    +0.046 C 
ENDBRANCH   1   9
BRANCH   2  12
ATOM     12  C   UNL     1       2.078   3.539   1.374  0.00  0.00    +0.116 A 
ATOM     13  C   UNL     1       2.904   4.641   1.146  0.00  0.00    +0.076 A 
ATOM     14  C   UNL     1       2.226   5.702   0.545  0.00  0.00    +0.155 A 
ATOM     15  N   UNL     1       0.946   5.575   0.274  0.00  0.00    -0.203 NA
ATOM     16  S   UNL     1       0.521   4.133   0.745  0.00  0.00    +0.019 S 
BRANCH  14  17
ATOM     17  C   UNL     1       2.937   6.952   0.222  0.00  0.00    +0.262 C 
ATOM     18  O   UNL     1       4.121   7.062   0.476  0.00  0.00    -0.269 OA
ATOM     19  N   UNL     1       2.274   7.974  -0.355  0.00  0.00    -0.324 N 
ATOM     20  H   UNL     1       1.329   7.887  -0.557  0.00  0.00    +0.145 HD
ATOM     21  H   UNL     1       2.741   8.797  -0.568  0.00  0.00    +0.145 HD
ENDBRANCH  14  17
BRANCH  13  22
ATOM     22  N   UNL     1       4.252   4.676   1.478  0.00  0.00    -0.355 N 
ATOM     23  H   UNL     1       4.670   3.905   1.893  0.00  0.00    +0.142 HD
ATOM     24  H   UNL     1       4.776   5.472   1.294  0.00  0.00    +0.142 HD
ENDBRANCH  13  22
ENDBRANCH   2  12
BRANCH   1  25
ATOM     25  C   UNL     1       1.770   0.010   2.714  0.00  0.00    +0.197 C 
BRANCH  25  26
ATOM     26  C   UNL     1       0.577  -0.905   2.612  0.00  0.00    -0.018 A 
ATOM     27  C   UNL     1      -0.606  -0.568   3.243  0.00  0.00    +0.009 A 
ATOM     28  C   UNL     1      -1.703  -1.402   3.146  0.00  0.00    +0.046 A 
ATOM     29  C   UNL     1      -1.613  -2.584   2.426  0.00  0.00    +0.120 A 
ATOM     30  C   UNL     1      -0.423  -2.922   1.798  0.00  0.00    +0.046 A 
ATOM     31  C   UNL     1       0.669  -2.082   1.893  0.00  0.00    +0.009 A 
BRANCH  29  32
ATOM     32  O   UNL     1      -2.689  -3.409   2.335  0.00  0.00    -0.495 OA
ATOM     33  C   UNL     1      -3.882  -2.997   3.006  0.00  0.00    +0.277 C 
ENDBRANCH  29  32
ENDBRANCH  25  26
BRANCH  25  34
ATOM     34  C   UNL     1       2.131   0.206   4.164  0.00  0.00    +0.239 C 
ATOM     35  O   UNL     1       2.118   1.318   4.647  0.00  0.00    -0.273 OA
ATOM     36  N   UNL     1       2.468  -0.855   4.924  0.00  0.00    -0.311 N 
ATOM     37  H   UNL     1       2.479  -1.745   4.537  0.00  0.00    +0.149 HD
BRANCH  36  38
ATOM     38  C   UNL     1       2.819  -0.664   6.333  0.00  0.00    +0.132 C 
BRANCH  38  39
ATOM     39  C   UNL     1       3.158  -2.018   6.962  0.00  0.00    +0.178 C 
BRANCH  39  40
ATOM     40  O   UNL     1       4.335  -2.546   6.348  0.00  0.00    -0.381 OA
ATOM     41  C   UNL     1       4.741  -3.815   6.865  0.00  0.00    +0.194 C 
ENDBRANCH  39  40
ENDBRANCH  38  39
ENDBRANCH  36  38
ENDBRANCH  25  34
ENDBRANCH   1  25
TORSDOF 11
