REMARK  Name = ZINC43420436
REMARK  3 active torsions:
REMARK  status: ('A' for Active; 'I' for Inactive)
REMARK    1  A    between atoms: C_1  and  N_2
REMARK    2  A    between atoms: N_2  and  C_3
REMARK    3  A    between atoms: N_13  and  C_14
REMARK                            x       y       z     vdW  Elec       q    Type
REMARK                         _______ _______ _______ _____ _____    ______ ____
ROOT
ATOM      1  C   UNL     1      -0.040   1.460   0.011  0.00  0.00    +0.134 C 
ATOM      2  N   UNL     1      -0.015  -0.005   0.002  0.00  0.00    -0.284 N 
ATOM      3  C   UNL     1      -0.006  -0.672  -1.169  0.00  0.00    +0.307 C 
ATOM      4  O   UNL     1       0.015  -1.888  -1.176  0.00  0.00    -0.252 OA
ATOM      5  N   UNL     1      -0.020   0.009  -2.332  0.00  0.00    -0.268 N 
ATOM      6  H   UNL     1      -0.102   0.975  -2.328  0.00  0.00    +0.156 HD
ENDROOT
BRANCH   5   7
ATOM      7  C   UNL     1       0.083  -0.680  -3.547  0.00  0.00    +0.053 A 
ATOM      8  C   UNL     1      -0.492  -1.935  -3.687  0.00  0.00    +0.026 A 
ATOM      9  C   UNL     1      -0.389  -2.612  -4.887  0.00  0.00    +0.017 A 
ATOM     10  C   UNL     1       0.287  -2.040  -5.949  0.00  0.00    +0.019 A 
ATOM     11  C   UNL     1       0.863  -0.789  -5.814  0.00  0.00    +0.037 A 
ATOM     12  C   UNL     1       0.757  -0.105  -4.618  0.00  0.00    +0.063 A 
ATOM     13 CL   UNL     1       1.473   1.468  -4.450  0.00  0.00    -0.082 Cl
ATOM     14 BR   UNL     1       0.427  -2.970  -7.590  0.00  0.00    -0.050 Br
ENDBRANCH   5   7
BRANCH   2  15
ATOM     15  C   UNL     1       0.001  -0.745   1.266  0.00  0.00    +0.100 C 
ATOM     16  C   UNL     1      -1.240  -0.379   2.098  0.00  0.00    +0.047 C 
ATOM     17  C   UNL     1      -1.075  -0.896   3.547  0.00  0.00    +0.168 C 
ATOM     18  S   UNL     1       0.750  -0.893   3.772  0.00  0.00    -0.029 S 
ATOM     19  O   UNL     1       1.191  -2.226   3.989  0.00  0.00    -0.174 OA
ATOM     20  O   UNL     1       1.099   0.119   4.707  0.00  0.00    -0.174 OA
ATOM     21  C   UNL     1       1.264  -0.357   2.086  0.00  0.00    +0.188 C 
ENDBRANCH   2  15
TORSDOF 2
