REMARK  Name = ZINC09347810
REMARK  7 active torsions:
REMARK  status: ('A' for Active; 'I' for Inactive)
REMARK    1  A    between atoms: C_1  and  O_2
REMARK    2  A    between atoms: O_2  and  C_3
REMARK    3  A    between atoms: C_8  and  N_9
REMARK    4  A    between atoms: C_10  and  C_12
REMARK    5  A    between atoms: C_13  and  N_31
REMARK    6  A    between atoms: C_24  and  C_25
REMARK    7  A    between atoms: C_24  and  N_56
REMARK                            x       y       z     vdW  Elec       q    Type
REMARK                         _______ _______ _______ _____ _____    ______ ____
ROOT
ATOM      1  C   UNL     1       1.409   6.059  -8.236  0.00  0.00    +0.097 A 
ATOM      2  C   UNL     1       0.790   5.740  -7.048  0.00  0.00    +0.053 A 
ATOM      3  C   UNL     1       1.618   5.557  -5.866  0.00  0.00    +0.029 A 
ATOM      4  C   UNL     1       1.222   5.231  -4.547  0.00  0.00    +0.016 A 
ATOM      5  C   UNL     1       2.180   5.103  -3.562  0.00  0.00    -0.042 A 
ATOM      6  C   UNL     1       3.517   5.291  -3.867  0.00  0.00    +0.042 A 
ATOM      7  N   UNL     1       3.881   5.597  -5.102  0.00  0.00    -0.244 NA
ATOM      8  C   UNL     1       3.006   5.730  -6.072  0.00  0.00    +0.111 A 
ATOM      9  S   UNL     1       3.135   6.122  -7.799  0.00  0.00    -0.062 S 
ATOM     10  C   UNL     1       4.592   5.154  -2.819  0.00  0.00    +0.037 C 
ATOM     11  C   UNL     1       3.972   5.218  -1.423  0.00  0.00    -0.072 C 
ATOM     12  C   UNL     1       1.725   4.764  -2.166  0.00  0.00    -0.041 C 
ATOM     13  N   UNL     1       2.857   4.249  -1.378  0.00  0.00    +0.385 N 
ATOM     14  H   UNL     1       3.170   3.359  -1.783  0.00  0.00    -0.081 HD
ENDROOT
BRANCH   1  16
ATOM     15  N   UNL     1       1.588   6.587 -10.565  0.00  0.00    -0.278 N 
ATOM     16  C   UNL     1       0.816   6.282  -9.504  0.00  0.00    +0.257 C 
ATOM     17  O   UNL     1      -0.393   6.199  -9.633  0.00  0.00    -0.269 OA
ATOM     18  H   UNL     1       2.542   6.718 -10.449  0.00  0.00    +0.155 HD
BRANCH  15  24
ATOM     19  C   UNL     1       1.724   6.325 -12.967  0.00  0.00    +0.141 A 
ATOM     20  C   UNL     1       1.149   6.449 -14.221  0.00  0.00    +0.049 A 
ATOM     21  C   UNL     1      -0.125   6.972 -14.349  0.00  0.00    +0.024 A 
ATOM     22  C   UNL     1      -0.831   7.366 -13.226  0.00  0.00    +0.043 A 
ATOM     23  C   UNL     1      -0.265   7.239 -11.970  0.00  0.00    +0.047 A 
ATOM     24  C   UNL     1       1.013   6.716 -11.835  0.00  0.00    +0.077 A 
ATOM     25 CL   UNL     1      -2.430   8.021 -13.394  0.00  0.00    -0.083 Cl
BRANCH  19  27
ATOM     26  C   UNL     1       3.650   5.436 -14.044  0.00  0.00    +0.277 C 
ATOM     27  O   UNL     1       2.980   5.817 -12.841  0.00  0.00    -0.493 OA
ENDBRANCH  19  27
ENDBRANCH  15  24
ENDBRANCH   1  16
BRANCH   2  28
ATOM     28  N   UNL     1      -0.589   5.596  -6.980  0.00  0.00    -0.356 N 
ATOM     29  H   UNL     1      -1.012   5.371  -6.136  0.00  0.00    +0.142 HD
ATOM     30  H   UNL     1      -1.129   5.721  -7.775  0.00  0.00    +0.142 HD
ENDBRANCH   2  28
BRANCH  13  31
ATOM     31  C   UNL     1       2.439   4.020   0.022  0.00  0.00    -0.043 C 
BRANCH  31  32
ATOM     32  C   UNL     1       1.146   3.246   0.034  0.00  0.00    -0.064 A 
ATOM     33  C   UNL     1       1.168   1.864   0.037  0.00  0.00    +0.002 A 
ATOM     34  C   UNL     1      -0.018   1.155   0.048  0.00  0.00    +0.000 A 
ATOM     35  C   UNL     1      -1.226   1.827   0.050  0.00  0.00    +0.000 A 
ATOM     36  C   UNL     1      -1.248   3.209   0.051  0.00  0.00    +0.000 A 
ATOM     37  C   UNL     1      -0.061   3.919   0.041  0.00  0.00    +0.002 A 
ENDBRANCH  31  32
ENDBRANCH  13  31
TORSDOF 6
