REMARK  Name = ZINC15011600
REMARK  3 active torsions:
REMARK  status: ('A' for Active; 'I' for Inactive)
REMARK    1  A    between atoms: C_4  and  N_7
REMARK    2  A    between atoms: C_11  and  C_12
REMARK    3  A    between atoms: C_17  and  O_18
REMARK                            x       y       z     vdW  Elec       q    Type
REMARK                         _______ _______ _______ _____ _____    ______ ____
ROOT
ATOM      1  N   UNL     1      -0.145   5.485   1.195  0.00  0.00    -0.197 N 
ATOM      2  C   UNL     1      -1.290   6.079   0.903  0.00  0.00    +0.265 C 
ATOM      3  O   UNL     1      -2.361   5.550   1.134  0.00  0.00    -0.269 OA
ATOM      4  C   UNL     1      -1.203   7.415   0.282  0.00  0.00    +0.080 C 
ATOM      5  C   UNL     1      -2.196   8.249  -0.120  0.00  0.00    +0.032 C 
ATOM      6  S   UNL     1       0.570   7.634   0.205  0.00  0.00    -0.025 S 
ATOM      7  C   UNL     1       1.040   6.077   0.942  0.00  0.00    +0.290 C 
ATOM      8  O   UNL     1       2.159   5.652   1.161  0.00  0.00    -0.262 OA
ENDROOT
BRANCH   5   9
ATOM      9  C   UNL     1      -3.588   7.785  -0.120  0.00  0.00    +0.020 A 
ATOM     10  C   UNL     1      -3.901   6.494  -0.561  0.00  0.00    +0.031 A 
ATOM     11  C   UNL     1      -5.210   6.063  -0.553  0.00  0.00    +0.043 A 
ATOM     12  C   UNL     1      -6.222   6.907  -0.120  0.00  0.00    +0.043 A 
ATOM     13  C   UNL     1      -5.928   8.187   0.313  0.00  0.00    +0.084 A 
ATOM     14  C   UNL     1      -4.616   8.636   0.318  0.00  0.00    +0.142 A 
ATOM     15 CL   UNL     1      -7.204   9.233   0.852  0.00  0.00    -0.080 Cl
ATOM     16 CL   UNL     1      -5.596   4.459  -1.094  0.00  0.00    -0.083 Cl
BRANCH  14  17
ATOM     17  O   UNL     1      -4.327   9.892   0.743  0.00  0.00    -0.505 OA
ATOM     18  H   UNL     1      -4.343  10.558   0.043  0.00  0.00    +0.292 HD
ENDBRANCH  14  17
ENDBRANCH   5   9
BRANCH   1  22
ATOM     19  C   UNL     1      -0.202   1.706   2.954  0.00  0.00    +0.000 A 
ATOM     20  C   UNL     1      -0.689   2.798   3.649  0.00  0.00    +0.002 A 
ATOM     21  C   UNL     1      -0.666   4.052   3.071  0.00  0.00    +0.024 A 
ATOM     22  C   UNL     1      -0.164   4.214   1.787  0.00  0.00    +0.045 A 
ATOM     23  C   UNL     1       0.320   3.115   1.090  0.00  0.00    +0.024 A 
ATOM     24  C   UNL     1       0.300   1.865   1.675  0.00  0.00    +0.002 A 
ENDBRANCH   1  22
TORSDOF 3
