REMARK  Name = ZINC45925062
REMARK  9 active torsions:
REMARK  status: ('A' for Active; 'I' for Inactive)
REMARK    1  A    between atoms: C_1  and  O_2
REMARK    2  A    between atoms: O_2  and  C_3
REMARK    3  A    between atoms: C_8  and  N_9
REMARK    4  A    between atoms: C_10  and  C_12
REMARK    5  A    between atoms: C_12  and  S_13
REMARK    6  A    between atoms: S_13  and  C_14
REMARK    7  A    between atoms: C_17  and  S_21
REMARK    8  A    between atoms: C_18  and  N_20
REMARK    9  A    between atoms: S_21  and  C_24
REMARK                            x       y       z     vdW  Elec       q    Type
REMARK                         _______ _______ _______ _____ _____    ______ ____
ROOT
ATOM      1  C   UNL     1       2.320  -7.476   0.400  0.00  0.00    +0.190 A 
ATOM      2  N   UNL     1       3.418  -6.732   0.386  0.00  0.00    -0.228 NA
ATOM      3  C   UNL     1       4.618  -7.288   0.464  0.00  0.00    +0.144 A 
ATOM      4  C   UNL     1       4.721  -8.662   0.561  0.00  0.00    +0.152 A 
ATOM      5  C   UNL     1       3.547  -9.420   0.573  0.00  0.00    +0.146 A 
ATOM      6  N   UNL     1       2.376  -8.796   0.497  0.00  0.00    -0.205 NA
ENDROOT
BRANCH   5   7
ATOM      7  N   UNL     1       3.603 -10.801   0.669  0.00  0.00    -0.342 N 
ATOM      8  H   UNL     1       4.461 -11.248   0.727  0.00  0.00    +0.144 HD
ATOM      9  H   UNL     1       2.784 -11.320   0.676  0.00  0.00    +0.144 HD
ENDBRANCH   5   7
BRANCH   4  10
ATOM     10  S   UNL     1       6.297  -9.442   0.666  0.00  0.00    +0.036 S 
ATOM     11  O   UNL     1       6.295 -10.493  -0.291  0.00  0.00    -0.164 OA
ATOM     12  O   UNL     1       7.266  -8.403   0.655  0.00  0.00    -0.164 OA
BRANCH  10  13
ATOM     13  C   UNL     1       6.396 -10.206   2.251  0.00  0.00    +0.132 A 
ATOM     14  C   UNL     1       6.039 -11.460   2.618  0.00  0.00    +0.036 A 
ATOM     15  C   UNL     1       6.208 -11.848   3.934  0.00  0.00    +0.029 A 
ATOM     16  C   UNL     1       6.726 -10.960   4.819  0.00  0.00    +0.080 A 
ATOM     17  S   UNL     1       7.000  -9.529   3.789  0.00  0.00    -0.058 S 
ATOM     18 CL   UNL     1       7.047 -11.166   6.513  0.00  0.00    -0.076 Cl
ENDBRANCH  10  13
ENDBRANCH   4  10
BRANCH   1  19
ATOM     19  S   UNL     1       0.748  -6.688   0.294  0.00  0.00    -0.077 S 
BRANCH  19  20
ATOM     20  C   UNL     1       1.148  -4.922   0.180  0.00  0.00    +0.173 C 
BRANCH  20  22
ATOM     21  N   UNL     1      -0.073  -2.780  -0.012  0.00  0.00    -0.282 N 
ATOM     22  C   UNL     1      -0.126  -4.123   0.083  0.00  0.00    +0.228 C 
ATOM     23  O   UNL     1      -1.199  -4.689   0.090  0.00  0.00    -0.275 OA
ATOM     24  H   UNL     1       0.783  -2.333  -0.099  0.00  0.00    +0.155 HD
BRANCH  21  30
ATOM     25  C   UNL     1      -1.295  -0.766  -0.572  0.00  0.00    +0.141 A 
ATOM     26  C   UNL     1      -2.468  -0.030  -0.548  0.00  0.00    +0.049 A 
ATOM     27  C   UNL     1      -3.596  -0.546   0.061  0.00  0.00    +0.024 A 
ATOM     28  C   UNL     1      -3.558  -1.798   0.649  0.00  0.00    +0.043 A 
ATOM     29  C   UNL     1      -2.390  -2.539   0.629  0.00  0.00    +0.047 A 
ATOM     30  C   UNL     1      -1.256  -2.029   0.014  0.00  0.00    +0.077 A 
ATOM     31 CL   UNL     1      -4.978  -2.441   1.413  0.00  0.00    -0.083 Cl
BRANCH  25  33
ATOM     32  C   UNL     1      -0.297   1.042  -1.753  0.00  0.00    +0.277 C 
ATOM     33  O   UNL     1      -0.184  -0.259  -1.172  0.00  0.00    -0.493 OA
ENDBRANCH  25  33
ENDBRANCH  21  30
ENDBRANCH  20  22
ENDBRANCH  19  20
ENDBRANCH   1  19
TORSDOF 8
