REMARK  Name = ZINC12714965
REMARK  12 active torsions:
REMARK  status: ('A' for Active; 'I' for Inactive)
REMARK    1  A    between atoms: C_1  and  C_2
REMARK    2  A    between atoms: C_5  and  N_9
REMARK    3  A    between atoms: C_7  and  C_8
REMARK    4  A    between atoms: N_9  and  C_10
REMARK    5  A    between atoms: C_10  and  C_12
REMARK    6  A    between atoms: C_10  and  C_18
REMARK    7  A    between atoms: C_15  and  C_17
REMARK    8  A    between atoms: N_20  and  C_21
REMARK    9  A    between atoms: C_21  and  C_22
REMARK   10  A    between atoms: C_28  and  C_30
REMARK   11  A    between atoms: C_31  and  N_38
REMARK   12  A    between atoms: C_32  and  C_35
REMARK                            x       y       z     vdW  Elec       q    Type
REMARK                         _______ _______ _______ _____ _____    ______ ____
ROOT
ATOM      1  N   UNL     1      -0.477  -4.088  -0.072  0.00  0.00    -0.248 N 
ATOM      2  C   UNL     1      -0.220  -4.987   0.898  0.00  0.00    +0.262 C 
ATOM      3  O   UNL     1       0.044  -6.139   0.606  0.00  0.00    -0.269 OA
ENDROOT
BRANCH   1   8
ATOM      4  C   UNL     1      -2.232   1.131   1.294  0.00  0.00    +0.044 C 
ATOM      5  C   UNL     1      -1.765  -0.255   0.931  0.00  0.00    -0.047 A 
ATOM      6  C   UNL     1      -2.692  -1.251   0.679  0.00  0.00    +0.005 A 
ATOM      7  C   UNL     1      -2.268  -2.522   0.346  0.00  0.00    +0.024 A 
ATOM      8  C   UNL     1      -0.910  -2.801   0.265  0.00  0.00    +0.038 A 
ATOM      9  C   UNL     1       0.018  -1.799   0.518  0.00  0.00    +0.027 A 
ATOM     10  C   UNL     1      -0.413  -0.528   0.846  0.00  0.00    -0.046 A 
ATOM     11  C   UNL     1       0.593   0.561   1.115  0.00  0.00    +0.044 C 
ENDBRANCH   1   8
BRANCH   2  12
ATOM     12  C   UNL     1      -0.258  -4.579   2.304  0.00  0.00    +0.116 A 
ATOM     13  C   UNL     1      -0.079  -5.349   3.454  0.00  0.00    +0.076 A 
ATOM     14  C   UNL     1      -0.184  -4.617   4.634  0.00  0.00    +0.155 A 
ATOM     15  N   UNL     1      -0.432  -3.325   4.576  0.00  0.00    -0.203 NA
ATOM     16  S   UNL     1      -0.539  -2.964   3.003  0.00  0.00    +0.019 S 
BRANCH  14  17
ATOM     17  C   UNL     1      -0.020  -5.284   5.939  0.00  0.00    +0.262 C 
ATOM     18  O   UNL     1       0.323  -6.450   5.987  0.00  0.00    -0.269 OA
ATOM     19  N   UNL     1      -0.251  -4.601   7.078  0.00  0.00    -0.324 N 
ATOM     20  H   UNL     1      -0.524  -3.672   7.040  0.00  0.00    +0.145 HD
ATOM     21  H   UNL     1      -0.143  -5.040   7.937  0.00  0.00    +0.145 HD
ENDBRANCH  14  17
BRANCH  13  22
ATOM     22  N   UNL     1       0.180  -6.713   3.424  0.00  0.00    -0.355 N 
ATOM     23  H   UNL     1       0.351  -7.156   2.578  0.00  0.00    +0.142 HD
ATOM     24  H   UNL     1       0.189  -7.223   4.249  0.00  0.00    +0.142 HD
ENDBRANCH  13  22
ENDBRANCH   2  12
BRANCH   1  25
ATOM     25  C   UNL     1      -0.304  -4.458  -1.478  0.00  0.00    +0.233 C 
BRANCH  25  26
ATOM     26  C   UNL     1      -1.572  -4.160  -2.236  0.00  0.00    +0.135 A 
ATOM     27  C   UNL     1      -2.119  -4.936  -3.190  0.00  0.00    +0.047 A 
ATOM     28  C   UNL     1      -3.293  -4.280  -3.627  0.00  0.00    +0.045 A 
ATOM     29  C   UNL     1      -3.393  -3.144  -2.915  0.00  0.00    +0.102 A 
ATOM     30  O   UNL     1      -2.352  -3.079  -2.070  0.00  0.00    -0.462 OA
ATOM     31  C   UNL     1      -4.492  -2.120  -3.039  0.00  0.00    +0.086 C 
ENDBRANCH  25  26
BRANCH  25  32
ATOM     32  C   UNL     1       0.832  -3.664  -2.070  0.00  0.00    +0.242 C 
ATOM     33  O   UNL     1       1.540  -2.990  -1.352  0.00  0.00    -0.273 OA
ATOM     34  N   UNL     1       1.063  -3.705  -3.398  0.00  0.00    -0.311 N 
ATOM     35  H   UNL     1       0.497  -4.244  -3.972  0.00  0.00    +0.149 HD
BRANCH  34  36
ATOM     36  C   UNL     1       2.168  -2.933  -3.973  0.00  0.00    +0.135 C 
BRANCH  36  37
ATOM     37  C   UNL     1       2.209  -3.153  -5.487  0.00  0.00    +0.135 C 
ATOM     38  C   UNL     1       3.441  -2.442  -6.085  0.00  0.00    +0.035 C 
ATOM     39  C   UNL     1       2.879  -1.872  -7.416  0.00  0.00    +0.031 C 
ATOM     40  C   UNL     1       1.424  -1.537  -7.001  0.00  0.00    +0.160 C 
ATOM     41  O   UNL     1       1.042  -2.585  -6.092  0.00  0.00    -0.375 OA
ENDBRANCH  36  37
ENDBRANCH  34  36
ENDBRANCH  25  32
ENDBRANCH   1  25
TORSDOF 9
