REMARK  Name = ZINC63139881
REMARK  4 active torsions:
REMARK  status: ('A' for Active; 'I' for Inactive)
REMARK    1  A    between atoms: C_1  and  C_2
REMARK    2  A    between atoms: C_5  and  C_8
REMARK    3  A    between atoms: C_8  and  N_9
REMARK    4  A    between atoms: C_29  and  C_31
REMARK                            x       y       z     vdW  Elec       q    Type
REMARK                         _______ _______ _______ _____ _____    ______ ____
ROOT
ATOM      1  N   UNL     1       1.538  -4.548   0.323  0.00  0.00    -0.287 N 
ATOM      2  C   UNL     1       2.054  -4.792  -1.014  0.00  0.00    +0.204 C 
ATOM      3  C   UNL     1       3.438  -5.351  -0.992  0.00  0.00    +0.234 C 
ATOM      4  O   UNL     1       3.963  -5.594  -2.058  0.00  0.00    -0.274 OA
ATOM      5  N   UNL     1       4.139  -5.603   0.119  0.00  0.00    -0.279 N 
ATOM      6  C   UNL     1       3.620  -5.335   1.456  0.00  0.00    +0.167 C 
ATOM      7  C   UNL     1       2.234  -4.782   1.435  0.00  0.00    +0.237 C 
ATOM      8  O   UNL     1       1.705  -4.534   2.498  0.00  0.00    -0.274 OA
ATOM      9  C   UNL     1       4.552  -4.357   2.195  0.00  0.00    +0.065 C 
ATOM     10  C   UNL     1       5.960  -4.853   1.972  0.00  0.00    -0.034 C 
ATOM     11  C   UNL     1       6.949  -5.104   2.820  0.00  0.00    -0.001 A 
ATOM     12  C   UNL     1       7.076  -4.888   4.270  0.00  0.00    +0.010 A 
ATOM     13  C   UNL     1       8.244  -5.290   4.836  0.00  0.00    +0.001 A 
ATOM     14  C   UNL     1       9.287  -5.878   4.114  0.00  0.00    +0.002 A 
ATOM     15  C   UNL     1       9.260  -6.106   2.776  0.00  0.00    +0.026 A 
ATOM     16  C   UNL     1       8.086  -5.718   2.068  0.00  0.00    +0.043 A 
ATOM     17  N   UNL     1       7.804  -5.796   0.801  0.00  0.00    -0.375 N 
ATOM     18  C   UNL     1       6.489  -5.190   0.583  0.00  0.00    +0.131 C 
ATOM     19  C   UNL     1       5.495  -6.177  -0.035  0.00  0.00    +0.133 C 
ATOM     20  H   UNL     1       8.368  -6.188   0.117  0.00  0.00    +0.160 HD
ENDROOT
BRANCH  19  21
ATOM     21  C   UNL     1       5.574  -7.500   0.682  0.00  0.00    -0.025 A 
ATOM     22  C   UNL     1       5.320  -7.567   2.039  0.00  0.00    +0.005 A 
ATOM     23  C   UNL     1       5.393  -8.781   2.697  0.00  0.00    +0.000 A 
ATOM     24  C   UNL     1       5.720  -9.927   1.998  0.00  0.00    +0.000 A 
ATOM     25  C   UNL     1       5.974  -9.860   0.640  0.00  0.00    +0.000 A 
ATOM     26  C   UNL     1       5.897  -8.647  -0.018  0.00  0.00    +0.005 A 
ENDBRANCH  19  21
BRANCH   1  27
ATOM     27  C   UNL     1       0.182  -4.010   0.455  0.00  0.00    +0.143 C 
BRANCH  27  32
ATOM     28  C   UNL     1       0.390   1.765   0.450  0.00  0.00    +0.044 C 
ATOM     29  C   UNL     1       0.336   0.259   0.451  0.00  0.00    -0.050 A 
ATOM     30  C   UNL     1       0.197  -0.428  -0.740  0.00  0.00    +0.003 A 
ATOM     31  C   UNL     1       0.148  -1.810  -0.739  0.00  0.00    +0.005 A 
ATOM     32  C   UNL     1       0.237  -2.504   0.454  0.00  0.00    -0.030 A 
ATOM     33  C   UNL     1       0.377  -1.816   1.645  0.00  0.00    +0.005 A 
ATOM     34  C   UNL     1       0.431  -0.434   1.643  0.00  0.00    +0.003 A 
ENDBRANCH  27  32
ENDBRANCH   1  27
TORSDOF 3
