REMARK  Name = ZINC54335562
REMARK  6 active torsions:
REMARK  status: ('A' for Active; 'I' for Inactive)
REMARK    1  A    between atoms: C_1  and  C_2
REMARK    2  A    between atoms: C_6  and  N_9
REMARK    3  A    between atoms: N_12  and  C_13
REMARK    4  A    between atoms: C_13  and  C_14
REMARK    5  A    between atoms: C_14  and  C_16
REMARK    6  A    between atoms: C_14  and  C_17
REMARK                            x       y       z     vdW  Elec       q    Type
REMARK                         _______ _______ _______ _____ _____    ______ ____
ROOT
ATOM      1  N   UNL     1       0.050  -2.799   2.395  0.00  0.00    -0.267 N 
ATOM      2  C   UNL     1       0.270  -4.129   2.393  0.00  0.00    +0.304 C 
ATOM      3  O   UNL     1       0.546  -4.698   1.354  0.00  0.00    -0.253 OA
ATOM      4  N   UNL     1       0.185  -4.828   3.542  0.00  0.00    -0.298 N 
ATOM      5  H   UNL     1      -0.098  -2.334   3.232  0.00  0.00    +0.156 HD
ATOM      6  H   UNL     1      -0.035  -4.374   4.370  0.00  0.00    +0.150 HD
ENDROOT
BRANCH   1  12
ATOM      7  C   UNL     1      -2.443  -1.106  -1.493  0.00  0.00    +0.045 C 
ATOM      8  C   UNL     1      -1.159  -1.254  -0.718  0.00  0.00    -0.030 A 
ATOM      9  C   UNL     1       0.007  -0.688  -1.200  0.00  0.00    +0.006 A 
ATOM     10  C   UNL     1       1.188  -0.822  -0.493  0.00  0.00    +0.022 A 
ATOM     11  C   UNL     1       1.206  -1.521   0.700  0.00  0.00    +0.064 A 
ATOM     12  C   UNL     1       0.036  -2.090   1.187  0.00  0.00    +0.072 A 
ATOM     13  C   UNL     1      -1.150  -1.949   0.476  0.00  0.00    +0.066 A 
ATOM     14 CL   UNL     1      -2.616  -2.653   1.084  0.00  0.00    -0.081 Cl
ATOM     15 CL   UNL     1       2.688  -1.689   1.587  0.00  0.00    -0.082 Cl
ENDBRANCH   1  12
BRANCH   4  16
ATOM     16  C   UNL     1       0.424  -6.274   3.539  0.00  0.00    +0.120 C 
BRANCH  16  17
ATOM     17  C   UNL     1       0.266  -6.819   4.960  0.00  0.00    +0.116 C 
ATOM     18  C   UNL     1      -1.186  -6.649   5.413  0.00  0.00    +0.021 C 
BRANCH  17  19
ATOM     19  C   UNL     1       0.631  -8.281   4.981  0.00  0.00    +0.360 C 
ATOM     20  O   UNL     1       0.985  -8.835   3.954  0.00  0.00    -0.246 OA
ATOM     21  O   UNL     1       0.572  -8.909   6.024  0.00  0.00    -0.246 OA
ENDBRANCH  17  19
ENDBRANCH  16  17
ENDBRANCH   4  16
TORSDOF 4
