REMARK  Name = ZINC63480686
REMARK  6 active torsions:
REMARK  status: ('A' for Active; 'I' for Inactive)
REMARK    1  A    between atoms: C_1  and  N_2
REMARK    2  A    between atoms: C_3  and  C_17
REMARK    3  A    between atoms: N_19  and  C_20
REMARK    4  A    between atoms: C_20  and  C_21
REMARK    5  A    between atoms: C_26  and  O_27
REMARK    6  A    between atoms: O_27  and  C_28
REMARK                            x       y       z     vdW  Elec       q    Type
REMARK                         _______ _______ _______ _____ _____    ______ ____
ROOT
ATOM      1  C   UNL     1      -0.018   1.461   0.010  0.00  0.00    +0.130 C 
ATOM      2  N   UNL     1       0.002  -0.004   0.002  0.00  0.00    -0.317 N 
ATOM      3  C   UNL     1      -1.167  -0.887   0.106  0.00  0.00    +0.183 C 
ATOM      4  C   UNL     1      -0.630  -2.298   0.050  0.00  0.00    +0.019 C 
ATOM      5  C   UNL     1       0.715  -2.205  -0.073  0.00  0.00    +0.057 C 
ATOM      6  C   UNL     1       1.105  -0.790  -0.109  0.00  0.00    +0.051 C 
ATOM      7  C   UNL     1       2.481  -0.496  -0.241  0.00  0.00    +0.018 A 
ATOM      8  C   UNL     1       2.922   0.837  -0.278  0.00  0.00    +0.011 A 
ATOM      9  C   UNL     1       4.252   1.107  -0.404  0.00  0.00    +0.001 A 
ATOM     10  C   UNL     1       5.180   0.074  -0.499  0.00  0.00    +0.002 A 
ATOM     11  C   UNL     1       4.785  -1.230  -0.467  0.00  0.00    +0.024 A 
ATOM     12  C   UNL     1       3.422  -1.551  -0.337  0.00  0.00    +0.043 A 
ATOM     13  N   UNL     1       3.047  -2.837  -0.306  0.00  0.00    -0.281 N 
ATOM     14  C   UNL     1       1.787  -3.221  -0.176  0.00  0.00    +0.250 C 
ATOM     15  O   UNL     1       1.508  -4.410  -0.155  0.00  0.00    -0.270 OA
ATOM     16  H   UNL     1       3.733  -3.520  -0.375  0.00  0.00    +0.155 HD
ENDROOT
BRANCH   3  17
ATOM     17  C   UNL     1      -1.880  -0.652   1.413  0.00  0.00    +0.238 C 
ATOM     18  O   UNL     1      -1.458   0.175   2.194  0.00  0.00    -0.273 OA
ATOM     19  N   UNL     1      -2.986  -1.361   1.714  0.00  0.00    -0.309 N 
ATOM     20  H   UNL     1      -3.323  -2.022   1.089  0.00  0.00    +0.149 HD
BRANCH  19  21
ATOM     21  C   UNL     1      -3.679  -1.133   2.984  0.00  0.00    +0.143 C 
BRANCH  21  22
ATOM     22  C   UNL     1      -4.875  -2.046   3.075  0.00  0.00    +0.012 A 
ATOM     23  C   UNL     1      -6.136  -1.562   2.785  0.00  0.00    +0.024 A 
ATOM     24  C   UNL     1      -7.234  -2.400   2.869  0.00  0.00    +0.018 A 
ATOM     25  C   UNL     1      -7.072  -3.722   3.242  0.00  0.00    +0.019 A 
ATOM     26  C   UNL     1      -5.812  -4.209   3.531  0.00  0.00    +0.047 A 
ATOM     27  C   UNL     1      -4.709  -3.372   3.444  0.00  0.00    +0.125 A 
ATOM     28 BR   UNL     1      -8.960  -1.736   2.472  0.00  0.00    -0.050 Br
BRANCH  27  29
ATOM     29  O   UNL     1      -3.468  -3.851   3.724  0.00  0.00    -0.495 OA
ATOM     30  C   UNL     1      -3.372  -5.227   4.097  0.00  0.00    +0.277 C 
ENDBRANCH  27  29
ENDBRANCH  21  22
ENDBRANCH  19  21
ENDBRANCH   3  17
TORSDOF 4
