REMARK  Name = ZINC31158230
REMARK  11 active torsions:
REMARK  status: ('A' for Active; 'I' for Inactive)
REMARK    1  A    between atoms: C_2  and  C_10
REMARK    2  A    between atoms: C_4  and  O_9
REMARK    3  A    between atoms: C_5  and  O_8
REMARK    4  A    between atoms: C_6  and  O_7
REMARK    5  A    between atoms: C_11  and  O_23
REMARK    6  A    between atoms: C_15  and  O_22
REMARK    7  A    between atoms: C_17  and  O_21
REMARK    8  A    between atoms: O_23  and  C_24
REMARK    9  A    between atoms: C_26  and  O_36
REMARK   10  A    between atoms: C_28  and  O_35
REMARK   11  A    between atoms: C_30  and  O_34
REMARK                            x       y       z     vdW  Elec       q    Type
REMARK                         _______ _______ _______ _____ _____    ______ ____
ROOT
ATOM      1  C   UNL     1       4.248   6.108  -1.260  0.00  0.00    +0.181 A 
ATOM      2  C   UNL     1       3.545   5.899  -0.111  0.00  0.00    +0.214 A 
ATOM      3  C   UNL     1       4.042   6.412   1.115  0.00  0.00    +0.238 A 
ATOM      4  O   UNL     1       3.437   6.248   2.163  0.00  0.00    -0.283 OA
ATOM      5  C   UNL     1       5.317   7.145   1.075  0.00  0.00    +0.109 A 
ATOM      6  C   UNL     1       5.883   7.682   2.239  0.00  0.00    +0.135 A 
ATOM      7  C   UNL     1       7.080   8.370   2.158  0.00  0.00    +0.091 A 
ATOM      8  C   UNL     1       7.715   8.526   0.931  0.00  0.00    +0.124 A 
ATOM      9  C   UNL     1       7.162   7.997  -0.224  0.00  0.00    +0.092 A 
ATOM     10  C   UNL     1       5.962   7.304  -0.164  0.00  0.00    +0.147 A 
ATOM     11  O   UNL     1       5.409   6.784  -1.280  0.00  0.00    -0.451 OA
ENDROOT
BRANCH   1  13
ATOM     12  C   UNL     1       2.376   5.785  -2.867  0.00  0.00    +0.061 A 
ATOM     13  C   UNL     1       3.715   5.573  -2.526  0.00  0.00    +0.028 A 
ATOM     14  C   UNL     1       4.549   4.858  -3.390  0.00  0.00    +0.061 A 
ATOM     15  C   UNL     1       4.045   4.353  -4.574  0.00  0.00    +0.163 A 
ATOM     16  C   UNL     1       2.711   4.565  -4.911  0.00  0.00    +0.201 A 
ATOM     17  C   UNL     1       1.879   5.281  -4.056  0.00  0.00    +0.163 A 
BRANCH  17  18
ATOM     18  O   UNL     1       0.577   5.486  -4.388  0.00  0.00    -0.503 OA
ATOM     19  H   UNL     1       0.181   5.086  -5.333  0.00  0.00    +0.292 HD
ENDBRANCH  17  18
BRANCH  16  20
ATOM     20  O   UNL     1       2.220   4.071  -6.079  0.00  0.00    -0.501 OA
ATOM     21  H   UNL     1       1.166   4.238  -6.347  0.00  0.00    +0.292 HD
ENDBRANCH  16  20
BRANCH  15  22
ATOM     22  O   UNL     1       4.855   3.652  -5.413  0.00  0.00    -0.503 OA
ATOM     23  H   UNL     1       4.454   3.250  -6.355  0.00  0.00    +0.292 HD
ENDBRANCH  15  22
ENDBRANCH   1  13
BRANCH   8  24
ATOM     24  O   UNL     1       8.890   9.203   0.864  0.00  0.00    -0.507 OA
ATOM     25  H   UNL     1       9.397   9.330  -0.104  0.00  0.00    +0.292 HD
ENDBRANCH   8  24
BRANCH   6  26
ATOM     26  O   UNL     1       5.262   7.529   3.435  0.00  0.00    -0.506 OA
ATOM     27  H   UNL     1       5.710   7.952   4.346  0.00  0.00    +0.292 HD
ENDBRANCH   6  26
BRANCH   2  28
ATOM     28  O   UNL     1       2.373   5.208  -0.141  0.00  0.00    -0.453 OA
BRANCH  28  29
ATOM     29  C   UNL     1       2.433   3.814   0.170  0.00  0.00    +0.339 C 
ATOM     30  C   UNL     1       1.015   3.238   0.208  0.00  0.00    +0.214 C 
ATOM     31  C   UNL     1       1.091   1.733   0.483  0.00  0.00    +0.180 C 
ATOM     32  C   UNL     1       1.958   1.073  -0.593  0.00  0.00    +0.171 C 
ATOM     33  C   UNL     1       3.340   1.732  -0.600  0.00  0.00    +0.198 C 
ATOM     34  O   UNL     1       3.195   3.135  -0.830  0.00  0.00    -0.337 OA
BRANCH  32  35
ATOM     35  O   UNL     1       2.096  -0.321  -0.306  0.00  0.00    -0.387 OA
ATOM     36  H   UNL     1       2.689  -0.964  -0.974  0.00  0.00    +0.210 HD
ENDBRANCH  32  35
BRANCH  31  37
ATOM     37  O   UNL     1      -0.223   1.174   0.447  0.00  0.00    -0.386 OA
ATOM     38  H   UNL     1      -0.368   0.098   0.623  0.00  0.00    +0.210 HD
ENDBRANCH  31  37
BRANCH  30  39
ATOM     39  O   UNL     1       0.268   3.876   1.246  0.00  0.00    -0.383 OA
ATOM     40  H   UNL     1      -0.779   3.590   1.426  0.00  0.00    +0.210 HD
ENDBRANCH  30  39
ENDBRANCH  28  29
ENDBRANCH   2  28
TORSDOF 11
