REMARK  Name = ZINC02431850
REMARK  6 active torsions:
REMARK  status: ('A' for Active; 'I' for Inactive)
REMARK    1  A    between atoms: C_1  and  C_2
REMARK    2  A    between atoms: N_8  and  C_9
REMARK    3  A    between atoms: C_9  and  C_10
REMARK    4  A    between atoms: C_15  and  C_23
REMARK    5  A    between atoms: C_17  and  C_21
REMARK    6  A    between atoms: C_18  and  N_20
REMARK                            x       y       z     vdW  Elec       q    Type
REMARK                         _______ _______ _______ _____ _____    ______ ____
ROOT
ATOM      1  C   UNL     1      -0.199   6.384  -1.168  0.00  0.00    +0.064 C 
ATOM      2  C   UNL     1      -1.302   5.697  -1.932  0.00  0.00    +0.023 A 
ATOM      3  C   UNL     1      -1.568   6.075  -3.201  0.00  0.00    +0.068 A 
ATOM      4  C   UNL     1      -2.603   5.440  -3.918  0.00  0.00    +0.141 A 
ATOM      5  C   UNL     1      -3.323   4.436  -3.304  0.00  0.00    +0.072 A 
ATOM      6  C   UNL     1      -3.007   4.075  -1.988  0.00  0.00    +0.260 A 
ATOM      7  O   UNL     1      -3.636   3.188  -1.432  0.00  0.00    -0.267 OA
ATOM      8  N   UNL     1      -2.012   4.704  -1.336  0.00  0.00    -0.305 N 
ATOM      9  C   UNL     1      -4.436   3.733  -4.031  0.00  0.00    +0.106 C 
ATOM     10  C   UNL     1      -4.334   3.993  -5.509  0.00  0.00    +0.098 C 
ATOM     11  C   UNL     1      -3.574   5.003  -5.994  0.00  0.00    +0.199 C 
ATOM     12  O   UNL     1      -2.875   5.819  -5.185  0.00  0.00    -0.441 OA
ENDROOT
BRANCH   9  13
ATOM     13  C   UNL     1      -5.762   4.241  -3.526  0.00  0.00    +0.002 A 
ATOM     14  C   UNL     1      -6.077   5.583  -3.637  0.00  0.00    +0.046 A 
ATOM     15  C   UNL     1      -7.297   6.047  -3.178  0.00  0.00    +0.020 A 
ATOM     16  C   UNL     1      -8.196   5.172  -2.598  0.00  0.00    +0.003 A 
ATOM     17  C   UNL     1      -7.879   3.832  -2.481  0.00  0.00    +0.020 A 
ATOM     18  C   UNL     1      -6.662   3.365  -2.945  0.00  0.00    +0.046 A 
ATOM     19 CL   UNL     1      -6.264   1.682  -2.799  0.00  0.00    -0.083 Cl
ATOM     20 CL   UNL     1      -4.946   6.684  -4.359  0.00  0.00    -0.083 Cl
ENDBRANCH   9  13
BRANCH  11  21
ATOM     21  N   UNL     1      -3.514   5.199  -7.351  0.00  0.00    -0.328 N 
ATOM     22  H   UNL     1      -2.974   5.919  -7.713  0.00  0.00    +0.145 HD
ATOM     23  H   UNL     1      -4.012   4.619  -7.947  0.00  0.00    +0.145 HD
ENDBRANCH  11  21
BRANCH  10  24
ATOM     24  C   UNL     1      -5.054   3.155  -6.421  0.00  0.00    +0.101 C 
ATOM     25  N   UNL     1      -5.625   2.491  -7.144  0.00  0.00    -0.191 NA
ENDBRANCH  10  24
BRANCH   8  26
ATOM     26  C   UNL     1      -1.693   4.315   0.040  0.00  0.00    +0.199 C 
BRANCH  26  27
ATOM     27  C   UNL     1      -0.761   3.131   0.024  0.00  0.00    +0.125 A 
ATOM     28  C   UNL     1       0.583   3.188   0.008  0.00  0.00    +0.046 A 
ATOM     29  C   UNL     1       1.050   1.854  -0.004  0.00  0.00    +0.041 A 
ATOM     30  C   UNL     1      -0.037   1.061   0.007  0.00  0.00    +0.195 A 
ATOM     31  O   UNL     1      -1.131   1.840   0.018  0.00  0.00    -0.466 OA
ENDBRANCH  26  27
ENDBRANCH   8  26
TORSDOF 5
