REMARK  Name = ZINC31167288
REMARK  13 active torsions:
REMARK  status: ('A' for Active; 'I' for Inactive)
REMARK    1  A    between atoms: C_1  and  O_2
REMARK    2  A    between atoms: O_2  and  C_3
REMARK    3  A    between atoms: C_5  and  C_10
REMARK    4  A    between atoms: C_8  and  O_9
REMARK    5  A    between atoms: C_11  and  C_12
REMARK    6  A    between atoms: C_14  and  O_40
REMARK    7  A    between atoms: C_19  and  C_31
REMARK    8  A    between atoms: C_21  and  C_23
REMARK    9  A    between atoms: C_25  and  O_30
REMARK   10  A    between atoms: C_27  and  O_29
REMARK   11  A    between atoms: C_34  and  O_39
REMARK   12  A    between atoms: C_35  and  O_37
REMARK   13  A    between atoms: O_37  and  C_38
REMARK                            x       y       z     vdW  Elec       q    Type
REMARK                         _______ _______ _______ _____ _____    ______ ____
ROOT
ATOM      1  C   UNL     1       4.531  -6.985  -0.286  0.00  0.00    -0.018 A 
ATOM      2  C   UNL     1       4.854  -6.573  -1.581  0.00  0.00    +0.053 A 
ATOM      3  C   UNL     1       4.371  -5.364  -2.053  0.00  0.00    +0.125 A 
ATOM      4  C   UNL     1       3.573  -4.572  -1.245  0.00  0.00    +0.047 A 
ATOM      5  C   UNL     1       3.238  -4.973   0.042  0.00  0.00    +0.129 A 
ATOM      6  C   UNL     1       3.724  -6.184   0.521  0.00  0.00    +0.054 A 
ATOM      7  O   UNL     1       2.431  -4.057   0.652  0.00  0.00    -0.483 OA
ATOM      8  C   UNL     1       2.543  -2.800  -0.036  0.00  0.00    +0.216 C 
ATOM      9  C   UNL     1       2.915  -3.225  -1.476  0.00  0.00    +0.101 C 
ENDROOT
BRANCH   9  10
ATOM     10  C   UNL     1       1.683  -3.367  -2.332  0.00  0.00    -0.029 A 
ATOM     11  C   UNL     1       0.704  -4.278  -1.986  0.00  0.00    +0.050 A 
ATOM     12  C   UNL     1      -0.434  -4.407  -2.769  0.00  0.00    +0.121 A 
ATOM     13  C   UNL     1      -0.583  -3.628  -3.906  0.00  0.00    +0.090 A 
ATOM     14  C   UNL     1       0.403  -2.718  -4.254  0.00  0.00    +0.121 A 
ATOM     15  C   UNL     1       1.537  -2.589  -3.465  0.00  0.00    +0.050 A 
BRANCH  14  16
ATOM     16  O   UNL     1       0.259  -1.953  -5.368  0.00  0.00    -0.507 OA
ATOM     17  H   UNL     1       1.042  -1.231  -5.644  0.00  0.00    +0.292 HD
ENDBRANCH  14  16
BRANCH  12  18
ATOM     18  O   UNL     1      -1.399  -5.301  -2.425  0.00  0.00    -0.507 OA
ATOM     19  H   UNL     1      -2.300  -5.403  -3.047  0.00  0.00    +0.292 HD
ENDBRANCH  12  18
ENDBRANCH   9  10
BRANCH   8  20
ATOM     20  C   UNL     1       1.227  -2.064  -0.020  0.00  0.00    -0.003 A 
ATOM     21  C   UNL     1       0.041  -2.773  -0.013  0.00  0.00    +0.011 A 
ATOM     22  C   UNL     1      -1.168  -2.103   0.002  0.00  0.00    +0.049 A 
ATOM     23  C   UNL     1      -1.192  -0.718   0.010  0.00  0.00    +0.158 A 
ATOM     24  C   UNL     1       0.002  -0.004   0.002  0.00  0.00    +0.162 A 
ATOM     25  C   UNL     1       1.210  -0.682  -0.019  0.00  0.00    +0.056 A 
BRANCH  24  26
ATOM     26  O   UNL     1      -0.016   1.356   0.009  0.00  0.00    -0.491 OA
ATOM     27  C   UNL     1       1.248   2.022   0.001  0.00  0.00    +0.277 C 
ENDBRANCH  24  26
BRANCH  23  28
ATOM     28  O   UNL     1      -2.381  -0.057   0.025  0.00  0.00    -0.503 OA
ATOM     29  H   UNL     1      -2.399   1.043   0.031  0.00  0.00    +0.292 HD
ENDBRANCH  23  28
ENDBRANCH   8  20
BRANCH   1  31
ATOM     30  C   UNL     1       5.821  -9.040  -0.549  0.00  0.00    +0.008 C 
ATOM     31  C   UNL     1       5.044  -8.268   0.227  0.00  0.00    +0.009 C 
BRANCH  30  34
ATOM     32  C   UNL     1       7.620 -12.329  -0.357  0.00  0.00    +0.162 A 
ATOM     33  C   UNL     1       7.138 -11.130  -0.845  0.00  0.00    +0.057 A 
ATOM     34  C   UNL     1       6.334 -10.322  -0.036  0.00  0.00    -0.021 A 
ATOM     35  C   UNL     1       6.012 -10.738   1.259  0.00  0.00    +0.012 A 
ATOM     36  C   UNL     1       6.492 -11.938   1.737  0.00  0.00    +0.050 A 
ATOM     37  C   UNL     1       7.295 -12.737   0.935  0.00  0.00    +0.158 A 
BRANCH  32  39
ATOM     38  C   UNL     1       8.700 -12.636  -2.453  0.00  0.00    +0.277 C 
ATOM     39  O   UNL     1       8.407 -13.115  -1.140  0.00  0.00    -0.491 OA
ENDBRANCH  32  39
BRANCH  37  40
ATOM     40  O   UNL     1       7.766 -13.920   1.412  0.00  0.00    -0.503 OA
ATOM     41  H   UNL     1       7.510 -14.243   2.432  0.00  0.00    +0.292 HD
ENDBRANCH  37  40
ENDBRANCH  30  34
ENDBRANCH   1  31
BRANCH   3  42
ATOM     42  O   UNL     1       4.680  -4.954  -3.312  0.00  0.00    -0.506 OA
ATOM     43  H   UNL     1       4.296  -3.994  -3.687  0.00  0.00    +0.292 HD
ENDBRANCH   3  42
TORSDOF 11
