REMARK  Name = ZINC21324960
REMARK  16 active torsions:
REMARK  status: ('A' for Active; 'I' for Inactive)
REMARK    1  A    between atoms: C_1  and  C_2
REMARK    2  A    between atoms: C_6  and  C_36
REMARK    3  A    between atoms: C_7  and  N_8
REMARK    4  A    between atoms: C_9  and  C_11
REMARK    5  A    between atoms: C_11  and  N_12
REMARK    6  A    between atoms: N_12  and  C_13
REMARK    7  A    between atoms: N_12  and  C_25
REMARK    8  A    between atoms: C_13  and  C_14
REMARK    9  A    between atoms: N_16  and  C_17
REMARK   10  A    between atoms: C_18  and  C_24
REMARK   11  A    between atoms: C_22  and  C_23
REMARK   12  A    between atoms: C_25  and  C_26
REMARK   13  A    between atoms: N_31  and  C_32
REMARK   14  A    between atoms: C_32  and  C_33
REMARK   15  A    between atoms: C_32  and  C_34
REMARK   16  A    between atoms: C_32  and  C_35
REMARK                            x       y       z     vdW  Elec       q    Type
REMARK                         _______ _______ _______ _____ _____    ______ ____
ROOT
ATOM      1  N   UNL     1      -4.066  -3.796   1.205  0.00  0.00    +0.397 N 
ATOM      2  H   UNL     1      -4.279  -3.138   2.060  0.00  0.00    -0.080 HD
ENDROOT
BRANCH   1   3
ATOM      3  C   UNL     1      -2.734  -4.381   1.407  0.00  0.00    +0.020 C 
BRANCH   3   5
ATOM      4  N   UNL     1      -0.444  -3.587   1.900  0.00  0.00    -0.287 N 
ATOM      5  C   UNL     1      -1.739  -3.284   1.682  0.00  0.00    +0.201 C 
ATOM      6  O   UNL     1      -2.103  -2.127   1.707  0.00  0.00    -0.278 OA
ATOM      7  H   UNL     1      -0.100  -4.628   1.811  0.00  0.00    +0.155 HD
BRANCH   4  14
ATOM      8  C   UNL     1      -0.230  -1.337   0.171  0.00  0.00    +0.045 C 
ATOM      9  C   UNL     1       0.600  -1.462   1.423  0.00  0.00    -0.029 A 
ATOM     10  C   UNL     1       1.493  -0.465   1.763  0.00  0.00    +0.005 A 
ATOM     11  C   UNL     1       2.259  -0.581   2.909  0.00  0.00    +0.001 A 
ATOM     12  C   UNL     1       2.129  -1.693   3.720  0.00  0.00    +0.005 A 
ATOM     13  C   UNL     1       1.234  -2.692   3.389  0.00  0.00    -0.029 A 
ATOM     14  C   UNL     1       0.464  -2.577   2.239  0.00  0.00    +0.039 A 
ATOM     15  C   UNL     1       1.093  -3.903   4.274  0.00  0.00    +0.045 C 
ENDBRANCH   4  14
ENDBRANCH   3   5
ENDBRANCH   1   3
BRANCH   1  16
ATOM     16  C   UNL     1      -4.102  -2.978  -0.015  0.00  0.00    +0.020 C 
BRANCH  16  17
ATOM     17  C   UNL     1      -3.756  -3.835  -1.205  0.00  0.00    +0.201 C 
ATOM     18  O   UNL     1      -3.559  -5.023  -1.060  0.00  0.00    -0.278 OA
ATOM     19  N   UNL     1      -3.665  -3.282  -2.430  0.00  0.00    -0.287 N 
ATOM     20  H   UNL     1      -3.782  -2.195  -2.553  0.00  0.00    +0.155 HD
BRANCH  19  21
ATOM     21  C   UNL     1      -3.421  -4.090  -3.547  0.00  0.00    +0.039 A 
ATOM     22  C   UNL     1      -2.272  -4.867  -3.606  0.00  0.00    -0.029 A 
ATOM     23  C   UNL     1      -2.038  -5.668  -4.706  0.00  0.00    +0.005 A 
ATOM     24  C   UNL     1      -2.940  -5.687  -5.754  0.00  0.00    +0.001 A 
ATOM     25  C   UNL     1      -4.082  -4.909  -5.701  0.00  0.00    +0.005 A 
ATOM     26  C   UNL     1      -4.325  -4.111  -4.601  0.00  0.00    -0.029 A 
ATOM     27  C   UNL     1      -5.571  -3.265  -4.543  0.00  0.00    +0.045 C 
ATOM     28  C   UNL     1      -1.286  -4.843  -2.466  0.00  0.00    +0.045 C 
ENDBRANCH  19  21
ENDBRANCH  16  17
ENDBRANCH   1  16
BRANCH   1  29
ATOM     29  C   UNL     1      -5.100  -4.839   1.170  0.00  0.00    +0.020 C 
BRANCH  29  30
ATOM     30  C   UNL     1      -6.453  -4.212   1.384  0.00  0.00    +0.204 C 
ATOM     31  O   UNL     1      -6.556  -3.007   1.475  0.00  0.00    -0.277 OA
ATOM     32  N   UNL     1      -7.550  -4.990   1.475  0.00  0.00    -0.242 N 
ATOM     33  C   UNL     1      -8.771  -4.426   1.563  0.00  0.00    +0.306 C 
ATOM     34  O   UNL     1      -8.892  -3.221   1.467  0.00  0.00    -0.252 OA
ATOM     35  N   UNL     1      -9.857  -5.200   1.758  0.00  0.00    -0.294 N 
ATOM     36  H   UNL     1      -7.448  -6.085   1.478  0.00  0.00    +0.159 HD
ATOM     37  H   UNL     1      -9.748  -6.291   1.845  0.00  0.00    +0.151 HD
BRANCH  35  38
ATOM     38  C   UNL     1     -11.185  -4.587   1.854  0.00  0.00    +0.028 C 
ATOM     39  C   UNL     1     -11.494  -3.835   0.558  0.00  0.00    +0.031 C 
ATOM     40  C   UNL     1     -12.235  -5.678   2.074  0.00  0.00    +0.031 C 
ATOM     41  C   UNL     1     -11.211  -3.609   3.030  0.00  0.00    +0.031 C 
ENDBRANCH  35  38
ENDBRANCH  29  30
ENDBRANCH   1  29
TORSDOF 9
