REMARK  Name = ZINC64774839
REMARK  8 active torsions:
REMARK  status: ('A' for Active; 'I' for Inactive)
REMARK    1  A    between atoms: C_1  and  C_2
REMARK    2  A    between atoms: C_6  and  C_12
REMARK    3  A    between atoms: C_7  and  N_8
REMARK    4  A    between atoms: C_9  and  C_11
REMARK    5  A    between atoms: C_16  and  S_19
REMARK    6  A    between atoms: S_19  and  C_20
REMARK    7  A    between atoms: C_20  and  C_21
REMARK    8  A    between atoms: N_23  and  C_24
REMARK                            x       y       z     vdW  Elec       q    Type
REMARK                         _______ _______ _______ _____ _____    ______ ____
ROOT
ATOM      1  C   UNL     1      -0.482  -1.951   2.779  0.00  0.00    +0.161 A 
ATOM      2  C   UNL     1      -0.917  -3.222   3.200  0.00  0.00    +0.300 A 
ATOM      3  O   UNL     1      -1.084  -4.227   2.307  0.00  0.00    -0.263 OA
ATOM      4  N   UNL     1      -1.160  -3.414   4.490  0.00  0.00    -0.180 NA
ATOM      5  C   UNL     1      -0.988  -2.411   5.344  0.00  0.00    +0.213 A 
ATOM      6  N   UNL     1      -0.577  -1.220   4.926  0.00  0.00    -0.122 NA
ATOM      7  N   UNL     1      -0.324  -0.993   3.684  0.00  0.00    -0.141 NA
ENDROOT
BRANCH   1  13
ATOM      8  C   UNL     1       2.434   0.036  -0.768  0.00  0.00    +0.045 C 
ATOM      9  C   UNL     1       1.203  -0.733  -0.363  0.00  0.00    -0.029 A 
ATOM     10  C   UNL     1       0.331  -1.199  -1.329  0.00  0.00    +0.005 A 
ATOM     11  C   UNL     1      -0.801  -1.906  -0.966  0.00  0.00    +0.001 A 
ATOM     12  C   UNL     1      -1.070  -2.153   0.366  0.00  0.00    +0.012 A 
ATOM     13  C   UNL     1      -0.199  -1.689   1.349  0.00  0.00    +0.029 A 
ATOM     14  C   UNL     1       0.950  -0.979   0.978  0.00  0.00    +0.046 A 
BRANCH  14  15
ATOM     15  N   UNL     1       1.834  -0.514   1.955  0.00  0.00    -0.285 N 
ATOM     16  C   UNL     1       2.339  -1.368   2.867  0.00  0.00    +0.214 C 
ATOM     17  O   UNL     1       1.950  -2.516   2.905  0.00  0.00    -0.276 OA
ATOM     18  C   UNL     1       3.388  -0.896   3.841  0.00  0.00    +0.109 C 
ATOM     19  H   UNL     1       2.084   0.423   1.977  0.00  0.00    +0.155 HD
ENDBRANCH  14  15
ENDBRANCH   1  13
BRANCH   5  20
ATOM     20  S   UNL     1      -1.310  -2.665   7.057  0.00  0.00    -0.075 S 
BRANCH  20  21
ATOM     21  C   UNL     1      -0.946  -1.058   7.815  0.00  0.00    +0.173 C 
BRANCH  21  22
ATOM     22  C   UNL     1      -1.185  -1.138   9.301  0.00  0.00    +0.227 C 
ATOM     23  O   UNL     1      -1.563  -2.177   9.800  0.00  0.00    -0.275 OA
ATOM     24  N   UNL     1      -0.977  -0.055  10.076  0.00  0.00    -0.285 N 
ATOM     25  H   UNL     1      -0.749   0.796   9.670  0.00  0.00    +0.155 HD
BRANCH  24  26
ATOM     26  C   UNL     1      -1.092  -0.158  11.468  0.00  0.00    +0.035 A 
ATOM     27  C   UNL     1      -1.596   0.906  12.204  0.00  0.00    +0.026 A 
ATOM     28  C   UNL     1      -1.709   0.803  13.577  0.00  0.00    +0.041 A 
ATOM     29  C   UNL     1      -1.319  -0.359  14.220  0.00  0.00    +0.142 A 
ATOM     30  C   UNL     1      -0.816  -1.422  13.487  0.00  0.00    +0.078 A 
ATOM     31  C   UNL     1      -0.707  -1.325  12.113  0.00  0.00    +0.046 A 
ATOM     32 CL   UNL     1      -0.328  -2.879  14.295  0.00  0.00    -0.081 Cl
ATOM     33  F   UNL     1      -1.429  -0.458  15.563  0.00  0.00    -0.204 F 
ENDBRANCH  24  26
ENDBRANCH  21  22
ENDBRANCH  20  21
ENDBRANCH   5  20
TORSDOF 6
