REMARK  Name = ZINC09830065
REMARK  3 active torsions:
REMARK  status: ('A' for Active; 'I' for Inactive)
REMARK    1  A    between atoms: C_1  and  C_2
REMARK    2  A    between atoms: C_8  and  C_13
REMARK    3  A    between atoms: N_15  and  C_16
REMARK                            x       y       z     vdW  Elec       q    Type
REMARK                         _______ _______ _______ _____ _____    ______ ____
ROOT
ATOM      1  C   UNL     1      -8.549   3.325   0.800  0.00  0.00    +0.045 C 
ATOM      2  C   UNL     1      -7.255   4.090   0.683  0.00  0.00    -0.034 A 
ATOM      3  C   UNL     1      -7.268   5.491   0.689  0.00  0.00    +0.008 A 
ATOM      4  C   UNL     1      -6.092   6.175   0.583  0.00  0.00    +0.047 A 
ATOM      5  C   UNL     1      -4.886   5.463   0.470  0.00  0.00    +0.140 A 
ATOM      6  N   UNL     1      -3.738   6.139   0.366  0.00  0.00    -0.237 NA
ATOM      7  C   UNL     1      -2.579   5.522   0.264  0.00  0.00    +0.131 A 
ATOM      8  C   UNL     1      -2.534   4.121   0.249  0.00  0.00    +0.120 A 
ATOM      9  C   UNL     1      -3.751   3.405   0.358  0.00  0.00    +0.271 A 
ATOM     10  O   UNL     1      -3.757   2.186   0.353  0.00  0.00    -0.266 OA
ATOM     11  N   UNL     1      -4.906   4.098   0.467  0.00  0.00    -0.267 N 
ATOM     12  C   UNL     1      -6.083   3.423   0.573  0.00  0.00    +0.099 A 
ENDROOT
BRANCH   8  13
ATOM     13  C   UNL     1      -1.255   3.412   0.128  0.00  0.00    +0.255 C 
ATOM     14  O   UNL     1      -0.210   4.035   0.153  0.00  0.00    -0.270 OA
ATOM     15  N   UNL     1      -1.238   2.071  -0.010  0.00  0.00    -0.281 N 
ATOM     16  H   UNL     1      -2.071   1.583  -0.104  0.00  0.00    +0.155 HD
BRANCH  15  17
ATOM     17  C   UNL     1      -0.019   1.385  -0.018  0.00  0.00    +0.034 A 
ATOM     18  C   UNL     1       1.100   1.961  -0.605  0.00  0.00    +0.024 A 
ATOM     19  C   UNL     1       2.301   1.279  -0.615  0.00  0.00    +0.017 A 
ATOM     20  C   UNL     1       2.389   0.022  -0.044  0.00  0.00    +0.018 A 
ATOM     21  C   UNL     1       1.275  -0.555   0.540  0.00  0.00    +0.017 A 
ATOM     22  C   UNL     1       0.072   0.123   0.555  0.00  0.00    +0.024 A 
ATOM     23 BR   UNL     1       4.035  -0.909  -0.062  0.00  0.00    -0.050 Br
ENDBRANCH  15  17
ENDBRANCH   8  13
TORSDOF 2
