REMARK  Name = ZINC51784578
REMARK  3 active torsions:
REMARK  status: ('A' for Active; 'I' for Inactive)
REMARK    1  A    between atoms: C_1  and  C_2
REMARK    2  A    between atoms: C_2  and  N_3
REMARK    3  A    between atoms: N_8  and  C_11
REMARK                            x       y       z     vdW  Elec       q    Type
REMARK                         _______ _______ _______ _____ _____    ______ ____
ROOT
ATOM      1  N   UNL     1      -1.373  -0.498   0.008  0.00  0.00    -0.285 N 
ATOM      2  C   UNL     1      -2.033  -0.761   1.288  0.00  0.00    +0.118 C 
ATOM      3  C   UNL     1      -3.521  -0.421   1.176  0.00  0.00    +0.115 C 
ATOM      4  C   UNL     1      -4.072  -1.019  -0.094  0.00  0.00    +0.225 C 
ATOM      5  O   UNL     1      -5.212  -1.431  -0.126  0.00  0.00    -0.275 OA
ATOM      6  N   UNL     1      -3.297  -1.095  -1.192  0.00  0.00    -0.220 N 
ATOM      7  C   UNL     1      -2.008  -0.721  -1.155  0.00  0.00    +0.312 C 
ATOM      8  O   UNL     1      -1.399  -0.587  -2.198  0.00  0.00    -0.252 OA
ENDROOT
BRANCH   6   9
ATOM      9  C   UNL     1      -3.871  -1.587  -2.447  0.00  0.00    +0.047 C 
ATOM     10  C   UNL     1      -3.044  -2.768  -2.958  0.00  0.00    +0.030 C 
ATOM     11  C   UNL     1      -3.643  -3.282  -4.268  0.00  0.00    -0.008 C 
ATOM     12  C   UNL     1      -5.084  -3.736  -4.027  0.00  0.00    +0.007 C 
ATOM     13  C   UNL     1      -5.912  -2.554  -3.516  0.00  0.00    -0.008 C 
ATOM     14  C   UNL     1      -5.312  -2.040  -2.206  0.00  0.00    +0.030 C 
ATOM     15  C   UNL     1      -5.897  -1.433  -4.558  0.00  0.00    +0.007 C 
ATOM     16  C   UNL     1      -4.456  -0.980  -4.799  0.00  0.00    -0.008 C 
ATOM     17  C   UNL     1      -3.628  -2.161  -5.310  0.00  0.00    +0.007 C 
ATOM     18  C   UNL     1      -3.857  -0.466  -3.489  0.00  0.00    +0.030 C 
ENDBRANCH   6   9
BRANCH   1  20
ATOM     19  C   UNL     1      -0.040   1.553   0.010  0.00  0.00    +0.024 C 
ATOM     20  C   UNL     1      -0.004   0.023  -0.006  0.00  0.00    +0.106 C 
ENDBRANCH   1  20
TORSDOF 2
