REMARK  Name = ZINC02520951
REMARK  11 active torsions:
REMARK  status: ('A' for Active; 'I' for Inactive)
REMARK    1  A    between atoms: C_1  and  C_2
REMARK    2  A    between atoms: C_5  and  N_33
REMARK    3  A    between atoms: C_7  and  N_8
REMARK    4  A    between atoms: C_11  and  C_18
REMARK    5  A    between atoms: C_13  and  C_16
REMARK    6  A    between atoms: C_14  and  N_15
REMARK    7  A    between atoms: C_20  and  C_25
REMARK    8  A    between atoms: C_22  and  S_23
REMARK    9  A    between atoms: S_23  and  C_24
REMARK   10  A    between atoms: C_29  and  C_31
REMARK   11  A    between atoms: C_29  and  C_32
REMARK                            x       y       z     vdW  Elec       q    Type
REMARK                         _______ _______ _______ _____ _____    ______ ____
ROOT
ATOM      1  N   UNL     1      -2.426  -2.735   0.556  0.00  0.00    -0.260 N 
ATOM      2  C   UNL     1      -1.411  -2.046  -0.055  0.00  0.00    +0.025 C 
ATOM      3  C   UNL     1      -0.418  -2.703  -0.690  0.00  0.00    +0.025 C 
ATOM      4  C   UNL     1      -0.405  -4.209  -0.758  0.00  0.00    +0.099 C 
ATOM      5  C   UNL     1      -1.308  -4.806   0.281  0.00  0.00    +0.077 C 
ATOM      6  C   UNL     1      -2.270  -4.062   0.886  0.00  0.00    +0.107 C 
ATOM      7  C   UNL     1       0.637  -2.005  -1.304  0.00  0.00    +0.162 C 
ATOM      8  O   UNL     1       1.510  -2.626  -1.877  0.00  0.00    -0.292 OA
ATOM      9  C   UNL     1       0.710  -0.502  -1.262  0.00  0.00    +0.086 C 
ATOM     10  C   UNL     1       0.002  -0.004   0.002  0.00  0.00    -0.023 C 
ATOM     11  C   UNL     1      -1.432  -0.538   0.003  0.00  0.00    +0.058 C 
ATOM     12  C   UNL     1      -0.019   1.526   0.010  0.00  0.00    +0.011 C 
ATOM     13  C   UNL     1       0.741  -0.515   1.240  0.00  0.00    +0.011 C 
ENDROOT
BRANCH   1  20
ATOM     14  C   UNL     1      -2.682  -1.444   3.079  0.00  0.00    +0.045 C 
ATOM     15  C   UNL     1      -3.798  -1.442   2.066  0.00  0.00    -0.029 A 
ATOM     16  C   UNL     1      -4.988  -0.801   2.350  0.00  0.00    +0.007 A 
ATOM     17  C   UNL     1      -6.012  -0.797   1.421  0.00  0.00    +0.033 A 
ATOM     18  C   UNL     1      -5.848  -1.436   0.205  0.00  0.00    +0.128 A 
ATOM     19  C   UNL     1      -4.659  -2.074  -0.087  0.00  0.00    +0.056 A 
ATOM     20  C   UNL     1      -3.630  -2.084   0.847  0.00  0.00    +0.045 A 
BRANCH  18  21
ATOM     21  N   UNL     1      -6.947  -1.429  -0.787  0.00  0.00    +0.056 N 
ATOM     22  O   UNL     1      -7.994  -0.862  -0.532  0.00  0.00    -0.126 OA
ATOM     23  O   UNL     1      -6.803  -1.991  -1.858  0.00  0.00    -0.126 OA
ENDBRANCH  18  21
ENDBRANCH   1  20
BRANCH   4  24
ATOM     24  C   UNL     1      -0.868  -4.644  -2.124  0.00  0.00    -0.014 A 
ATOM     25  C   UNL     1      -2.142  -4.335  -2.568  0.00  0.00    +0.016 A 
ATOM     26  C   UNL     1      -2.524  -4.736  -3.804  0.00  0.00    -0.012 A 
ATOM     27  S   UNL     1      -1.069  -5.593  -4.384  0.00  0.00    -0.087 S 
ATOM     28  C   UNL     1      -0.042  -5.354  -2.944  0.00  0.00    +0.049 A 
ATOM     29  C   UNL     1      -3.840  -4.521  -4.505  0.00  0.00    +0.051 C 
BRANCH  28  30
ATOM     30  S   UNL     1       1.609  -5.896  -2.656  0.00  0.00    -0.121 S 
ATOM     31  C   UNL     1       2.055  -6.773  -4.180  0.00  0.00    +0.090 C 
ENDBRANCH  28  30
ENDBRANCH   4  24
BRANCH   6  32
ATOM     32  N   UNL     1      -3.089  -4.635   1.829  0.00  0.00    -0.345 N 
ATOM     33  H   UNL     1      -2.965  -5.696   2.094  0.00  0.00    +0.144 HD
ATOM     34  H   UNL     1      -3.868  -4.034   2.320  0.00  0.00    +0.144 HD
ENDBRANCH   6  32
BRANCH   5  35
ATOM     35  C   UNL     1      -1.153  -6.184   0.640  0.00  0.00    +0.099 C 
ATOM     36  N   UNL     1      -1.030  -7.276   0.926  0.00  0.00    -0.191 NA
ENDBRANCH   5  35
TORSDOF 6
