REMARK  Name = ZINC05248624
REMARK  6 active torsions:
REMARK  status: ('A' for Active; 'I' for Inactive)
REMARK    1  A    between atoms: C_1  and  O_2
REMARK    2  A    between atoms: O_2  and  C_3
REMARK    3  A    between atoms: C_7  and  C_9
REMARK    4  A    between atoms: C_16  and  N_30
REMARK    5  A    between atoms: C_17  and  C_28
REMARK    6  A    between atoms: C_18  and  C_20
REMARK                            x       y       z     vdW  Elec       q    Type
REMARK                         _______ _______ _______ _____ _____    ______ ____
ROOT
ATOM      1  C   UNL     1      -2.706  -4.606  -0.133  0.00  0.00    +0.074 A 
ATOM      2  C   UNL     1      -3.417  -5.170   0.873  0.00  0.00    +0.054 A 
ATOM      3  C   UNL     1      -3.314  -6.569   0.750  0.00  0.00    +0.245 A 
ATOM      4  N   UNL     1      -2.574  -6.836  -0.288  0.00  0.00    -0.135 NA
ATOM      5  N   UNL     1      -2.175  -5.625  -0.873  0.00  0.00    -0.273 N 
ATOM      6  H   UNL     1      -1.620  -5.527  -1.663  0.00  0.00    +0.189 HD
ATOM      7  O   UNL     1      -3.925  -7.416   1.623  0.00  0.00    -0.421 OA
ATOM      8  C   UNL     1      -4.405  -6.888   2.767  0.00  0.00    +0.201 C 
ATOM      9  C   UNL     1      -4.560  -5.567   2.994  0.00  0.00    +0.098 C 
ATOM     10  C   UNL     1      -4.209  -4.513   1.974  0.00  0.00    +0.103 C 
ENDROOT
BRANCH  10  11
ATOM     11  C   UNL     1      -5.470  -3.915   1.406  0.00  0.00    -0.016 A 
ATOM     12  C   UNL     1      -6.332  -4.699   0.662  0.00  0.00    +0.007 A 
ATOM     13  C   UNL     1      -7.489  -4.151   0.141  0.00  0.00    +0.020 A 
ATOM     14  C   UNL     1      -7.786  -2.818   0.364  0.00  0.00    +0.042 A 
ATOM     15  C   UNL     1      -6.924  -2.033   1.109  0.00  0.00    +0.040 A 
ATOM     16  C   UNL     1      -5.768  -2.583   1.634  0.00  0.00    +0.046 A 
ATOM     17 CL   UNL     1      -4.688  -1.601   2.574  0.00  0.00    -0.083 Cl
ATOM     18 CL   UNL     1      -9.239  -2.130  -0.291  0.00  0.00    -0.083 Cl
ENDBRANCH  10  11
BRANCH   1  23
ATOM     19  C   UNL     1      -2.571  -1.290  -1.901  0.00  0.00    +0.121 A 
ATOM     20  C   UNL     1      -2.228  -0.443  -0.855  0.00  0.00    +0.045 A 
ATOM     21  C   UNL     1      -2.042  -0.949   0.418  0.00  0.00    +0.004 A 
ATOM     22  C   UNL     1      -2.196  -2.299   0.657  0.00  0.00    +0.010 A 
ATOM     23  C   UNL     1      -2.540  -3.158  -0.387  0.00  0.00    +0.004 A 
ATOM     24  C   UNL     1      -2.733  -2.646  -1.669  0.00  0.00    +0.055 A 
BRANCH  19  26
ATOM     25  C   UNL     1      -2.570   0.620  -3.317  0.00  0.00    +0.277 C 
ATOM     26  O   UNL     1      -2.753  -0.788  -3.150  0.00  0.00    -0.495 OA
ENDBRANCH  19  26
ENDBRANCH   1  23
BRANCH   8  27
ATOM     27  N   UNL     1      -4.763  -7.755   3.769  0.00  0.00    -0.328 N 
ATOM     28  H   UNL     1      -4.666  -8.712   3.641  0.00  0.00    +0.145 HD
ATOM     29  H   UNL     1      -5.113  -7.411   4.606  0.00  0.00    +0.145 HD
ENDBRANCH   8  27
BRANCH   9  30
ATOM     30  C   UNL     1      -5.080  -5.147   4.260  0.00  0.00    +0.101 C 
ATOM     31  N   UNL     1      -5.494  -4.814   5.264  0.00  0.00    -0.191 NA
ENDBRANCH   9  30
TORSDOF 5
