REMARK  Name = ZINC12306664
REMARK  10 active torsions:
REMARK  status: ('A' for Active; 'I' for Inactive)
REMARK    1  A    between atoms: C_1  and  C_2
REMARK    2  A    between atoms: C_2  and  N_3
REMARK    3  A    between atoms: C_4  and  C_33
REMARK    4  A    between atoms: C_5  and  C_9
REMARK    5  A    between atoms: C_6  and  C_8
REMARK    6  A    between atoms: C_9  and  N_10
REMARK    7  A    between atoms: C_15  and  C_17
REMARK    8  A    between atoms: N_19  and  C_20
REMARK    9  A    between atoms: C_23  and  O_26
REMARK   10  A    between atoms: O_26  and  C_27
REMARK                            x       y       z     vdW  Elec       q    Type
REMARK                         _______ _______ _______ _____ _____    ______ ____
ROOT
ATOM      1  N   UNL     1       0.923   0.214  -6.123  0.00  0.00    +0.390 N 
ATOM      2  C   UNL     1       2.282   0.736  -5.931  0.00  0.00    -0.077 C 
ATOM      3  C   UNL     1       2.616   1.724  -7.050  0.00  0.00    -0.019 C 
ATOM      4  C   UNL     1       2.530   1.006  -8.400  0.00  0.00    -0.003 C 
ATOM      5  C   UNL     1       1.131   0.403  -8.558  0.00  0.00    -0.006 C 
ATOM      6  C   UNL     1       0.852  -0.537  -7.382  0.00  0.00    +0.020 C 
ATOM      7  H   UNL     1       0.271   0.983  -6.154  0.00  0.00    -0.080 HD
ENDROOT
BRANCH   6   8
ATOM      8  C   UNL     1      -0.523  -1.134  -7.533  0.00  0.00    +0.204 C 
ATOM      9  O   UNL     1      -1.486  -0.566  -7.062  0.00  0.00    -0.277 OA
ATOM     10  N   UNL     1      -0.684  -2.299  -8.192  0.00  0.00    -0.287 N 
ATOM     11  H   UNL     1       0.090  -2.776  -8.529  0.00  0.00    +0.155 HD
BRANCH  10  12
ATOM     12  C   UNL     1      -1.969  -2.821  -8.389  0.00  0.00    +0.034 A 
ATOM     13  C   UNL     1      -2.241  -3.592  -9.511  0.00  0.00    +0.027 A 
ATOM     14  C   UNL     1      -3.507  -4.106  -9.705  0.00  0.00    +0.048 A 
ATOM     15  C   UNL     1      -4.508  -3.853  -8.778  0.00  0.00    +0.129 A 
ATOM     16  C   UNL     1      -4.237  -3.082  -7.657  0.00  0.00    +0.048 A 
ATOM     17  C   UNL     1      -2.970  -2.572  -7.459  0.00  0.00    +0.027 A 
BRANCH  15  18
ATOM     18  O   UNL     1      -5.756  -4.359  -8.970  0.00  0.00    -0.455 OA
BRANCH  18  19
ATOM     19  C   UNL     1      -5.961  -5.673  -8.691  0.00  0.00    +0.146 A 
ATOM     20  C   UNL     1      -4.955  -6.435  -8.104  0.00  0.00    +0.049 A 
ATOM     21  C   UNL     1      -5.211  -7.770  -7.838  0.00  0.00    +0.023 A 
ATOM     22  C   UNL     1      -6.447  -8.298  -8.163  0.00  0.00    +0.111 A 
ATOM     23  N   UNL     1      -7.378  -7.548  -8.719  0.00  0.00    -0.260 NA
ATOM     24  C   UNL     1      -7.177  -6.272  -8.982  0.00  0.00    +0.156 A 
ENDBRANCH  18  19
ENDBRANCH  15  18
ENDBRANCH  10  12
ENDBRANCH   6   8
BRANCH   1  25
ATOM     25  C   UNL     1       0.578  -0.674  -5.005  0.00  0.00    -0.038 C 
BRANCH  25  28
ATOM     26  N   UNL     1      -0.832   1.313  -2.292  0.00  0.00    -0.268 N 
ATOM     27  C   UNL     1      -0.965   0.623  -3.444  0.00  0.00    +0.038 A 
ATOM     28  C   UNL     1       0.257   0.154  -3.787  0.00  0.00    -0.021 A 
ATOM     29  C   UNL     1       1.168   0.572  -2.812  0.00  0.00    +0.062 A 
ATOM     30  N   UNL     1       0.518   1.272  -1.919  0.00  0.00    -0.176 NA
ATOM     31  C   UNL     1       2.645   0.274  -2.798  0.00  0.00    +0.068 C 
ATOM     32  C   UNL     1      -2.246   0.411  -4.209  0.00  0.00    +0.065 C 
BRANCH  26  34
ATOM     33  C   UNL     1      -2.036   3.430  -2.067  0.00  0.00    +0.029 C 
ATOM     34  C   UNL     1      -1.907   1.991  -1.564  0.00  0.00    +0.140 C 
ENDBRANCH  26  34
ENDBRANCH  25  28
ENDBRANCH   1  25
TORSDOF 7
