REMARK  Name = ZINC45617510
REMARK  17 active torsions:
REMARK  status: ('A' for Active; 'I' for Inactive)
REMARK    1  A    between atoms: C_1  and  C_2
REMARK    2  A    between atoms: C_2  and  C_3
REMARK    3  A    between atoms: C_3  and  C_4
REMARK    4  A    between atoms: C_4  and  O_5
REMARK    5  A    between atoms: O_5  and  C_6
REMARK    6  A    between atoms: C_6  and  C_7
REMARK    7  A    between atoms: C_7  and  O_8
REMARK    8  A    between atoms: O_8  and  C_9
REMARK    9  A    between atoms: C_9  and  C_10
REMARK   10  A    between atoms: C_10  and  C_11
REMARK   11  A    between atoms: C_11  and  C_12
REMARK   12  A    between atoms: C_12  and  C_13
REMARK   13  A    between atoms: C_13  and  C_15
REMARK   14  A    between atoms: C_13  and  N_16
REMARK   15  A    between atoms: N_16  and  C_17
REMARK   16  A    between atoms: C_17  and  C_18
REMARK   17  A    between atoms: C_18  and  C_19
REMARK                            x       y       z     vdW  Elec       q    Type
REMARK                         _______ _______ _______ _____ _____    ______ ____
ROOT
ATOM      1  C   UNL     1       5.773  -3.628  -4.733  0.00  0.00    +0.028 C 
ENDROOT
BRANCH   1   2
ATOM      2  C   UNL     1       4.347  -4.148  -4.923  0.00  0.00    +0.160 C 
BRANCH   2   3
ATOM      3  O   UNL     1       3.571  -3.844  -3.762  0.00  0.00    -0.377 OA
BRANCH   3   4
ATOM      4  C   UNL     1       2.215  -4.289  -3.836  0.00  0.00    +0.188 C 
BRANCH   4   5
ATOM      5  C   UNL     1       1.483  -3.911  -2.547  0.00  0.00    +0.188 C 
BRANCH   5   6
ATOM      6  O   UNL     1       1.408  -2.488  -2.441  0.00  0.00    -0.377 OA
BRANCH   6   7
ATOM      7  C   UNL     1       0.739  -2.027  -1.265  0.00  0.00    +0.160 C 
BRANCH   7   8
ATOM      8  C   UNL     1       0.718  -0.497  -1.257  0.00  0.00    +0.028 C 
BRANCH   8  10
ATOM      9  C   UNL     1      -0.019   1.526   0.010  0.00  0.00    +0.004 C 
ATOM     10  C   UNL     1       0.002  -0.004   0.002  0.00  0.00    -0.001 C 
ENDBRANCH   8  10
ENDBRANCH   7   8
ENDBRANCH   6   7
ENDBRANCH   5   6
ENDBRANCH   4   5
ENDBRANCH   3   4
ENDBRANCH   2   3
ENDBRANCH   1   2
BRANCH   1  11
ATOM     11  C   UNL     1       6.604  -3.954  -5.976  0.00  0.00    +0.001 C 
BRANCH  11  12
ATOM     12  C   UNL     1       8.030  -3.433  -5.786  0.00  0.00    -0.016 C 
BRANCH  12  13
ATOM     13  C   UNL     1       8.861  -3.759  -7.029  0.00  0.00    -0.075 C 
ATOM     14  C   UNL     1      10.317  -3.351  -6.791  0.00  0.00    -0.014 C 
BRANCH  13  15
ATOM     15  N   UNL     1       8.328  -3.021  -8.182  0.00  0.00    +0.381 N 
ATOM     16  H   UNL     1       7.347  -3.228  -8.289  0.00  0.00    -0.086 HD
ATOM     17  H   UNL     1       8.449  -2.030  -8.032  0.00  0.00    -0.086 HD
BRANCH  15  18
ATOM     18  C   UNL     1       9.049  -3.424  -9.397  0.00  0.00    -0.083 C 
BRANCH  18  19
ATOM     19  C   UNL     1       8.494  -2.655 -10.598  0.00  0.00    -0.022 C 
ATOM     20  C   UNL     1       9.244  -3.075 -11.863  0.00  0.00    +0.002 C 
ENDBRANCH  18  19
ENDBRANCH  15  18
ENDBRANCH  13  15
ENDBRANCH  12  13
ENDBRANCH  11  12
ENDBRANCH   1  11
TORSDOF 14
