REMARK  Name = ZINC40828016
REMARK  11 active torsions:
REMARK  status: ('A' for Active; 'I' for Inactive)
REMARK    1  A    between atoms: C_4  and  N_31
REMARK    2  A    between atoms: N_7  and  C_10
REMARK    3  A    between atoms: C_13  and  C_21
REMARK    4  A    between atoms: C_15  and  O_20
REMARK    5  A    between atoms: C_17  and  O_19
REMARK    6  A    between atoms: C_21  and  S_22
REMARK    7  A    between atoms: S_22  and  C_23
REMARK    8  A    between atoms: C_23  and  C_24
REMARK    9  A    between atoms: C_24  and  C_25
REMARK   10  A    between atoms: C_25  and  C_27
REMARK   11  A    between atoms: C_25  and  N_30
REMARK                            x       y       z     vdW  Elec       q    Type
REMARK                         _______ _______ _______ _____ _____    ______ ____
ROOT
ATOM      1  C   UNK     1      -2.405  -0.797   0.021  0.00  0.00    +0.120 C 
ATOM      2  C   UNK     1      -3.015  -1.467   1.269  0.00  0.00    +0.034 C 
ATOM      3  C   UNK     1      -4.364  -2.041   0.771  0.00  0.00    +0.032 C 
ATOM      4  C   UNK     1      -4.017  -2.543  -0.653  0.00  0.00    +0.149 C 
ATOM      5  C   UNK     1      -3.042  -1.480  -1.202  0.00  0.00    +0.166 C 
ENDROOT
BRANCH   1  12
ATOM      6  C   UNK     1      -0.017   1.389   0.010  0.00  0.00    +0.048 A 
ATOM      7  C   UNK     1       1.168   2.069   0.002  0.00  0.00    +0.115 A 
ATOM      8  N   UNK     1       2.330   1.435  -0.013  0.00  0.00    -0.238 NA
ATOM      9  C   UNK     1       2.413   0.115  -0.021  0.00  0.00    +0.144 A 
ATOM     10  C   UNK     1       1.245  -0.661  -0.013  0.00  0.00    +0.128 A 
ATOM     11  C   UNK     1       0.002  -0.004   0.002  0.00  0.00    +0.074 A 
ATOM     12  N   UNK     1      -0.953  -0.992   0.005  0.00  0.00    -0.324 N 
ATOM     13  C   UNK     1      -0.299  -2.188  -0.007  0.00  0.00    +0.200 A 
ATOM     14  N   UNK     1       0.987  -1.992  -0.018  0.00  0.00    -0.232 NA
BRANCH   9  15
ATOM     15  N   UNK     1       3.657  -0.502  -0.037  0.00  0.00    -0.341 N 
ATOM     16  H   UNK     1       4.465   0.035  -0.042  0.00  0.00    +0.144 HD
ATOM     17  H   UNK     1       3.718  -1.470  -0.043  0.00  0.00    +0.144 HD
ENDBRANCH   9  15
ENDBRANCH   1  12
BRANCH   5  18
ATOM     18  O   UNK     1      -2.031  -2.106  -1.995  0.00  0.00    -0.387 OA
ATOM     19  H   UNK     1      -2.370  -2.554  -2.782  0.00  0.00    +0.210 HD
ENDBRANCH   5  18
BRANCH   4  20
ATOM     20  O   UNK     1      -3.384  -3.823  -0.591  0.00  0.00    -0.389 OA
ATOM     21  H   UNK     1      -3.144  -4.185  -1.455  0.00  0.00    +0.210 HD
ENDBRANCH   4  20
BRANCH   3  22
ATOM     22  C   UNK     1      -4.823  -3.198   1.661  0.00  0.00    +0.075 C 
BRANCH  22  23
ATOM     23  S   UNK     1      -6.471  -3.746   1.138  0.00  0.00    -0.160 S 
BRANCH  23  24
ATOM     24  C   UNK     1      -6.865  -5.102   2.277  0.00  0.00    +0.068 C 
BRANCH  24  25
ATOM     25  C   UNK     1      -8.248  -5.664   1.943  0.00  0.00    +0.005 C 
BRANCH  25  26
ATOM     26  C   UNK     1      -8.580  -6.807   2.904  0.00  0.00    +0.041 C 
BRANCH  26  27
ATOM     27  N   UNK     1      -7.645  -7.919   2.683  0.00  0.00    +0.387 N 
ATOM     28  H   UNK     1      -7.728  -8.244   1.732  0.00  0.00    -0.089 HD
ATOM     29  H   UNK     1      -6.702  -7.603   2.849  0.00  0.00    -0.089 HD
ATOM     30  H   UNK     1      -7.864  -8.673   3.317  0.00  0.00    -0.089 HD
ENDBRANCH  26  27
BRANCH  26  31
ATOM     31  C   UNK     1      -9.989  -7.279   2.655  0.00  0.00    +0.342 C 
ATOM     32  O   UNK     1     -10.201  -8.168   1.848  0.00  0.00    -0.248 OA
ATOM     33  O   UNK     1     -10.918  -6.772   3.261  0.00  0.00    -0.248 OA
ENDBRANCH  26  31
ENDBRANCH  25  26
ENDBRANCH  24  25
ENDBRANCH  23  24
ENDBRANCH  22  23
ENDBRANCH   3  22
TORSDOF 11
