REMARK  Name = ZINC63589273
REMARK  10 active torsions:
REMARK  status: ('A' for Active; 'I' for Inactive)
REMARK    1  A    between atoms: C_1  and  C_2
REMARK    2  A    between atoms: C_2  and  C_3
REMARK    3  A    between atoms: C_8  and  N_9
REMARK    4  A    between atoms: N_11  and  C_12
REMARK    5  A    between atoms: C_12  and  C_13
REMARK    6  A    between atoms: C_13  and  C_14
REMARK    7  A    between atoms: N_23  and  C_24
REMARK    8  A    between atoms: C_24  and  C_26
REMARK    9  A    between atoms: C_29  and  N_32
REMARK   10  A    between atoms: C_33  and  C_35
REMARK                            x       y       z     vdW  Elec       q    Type
REMARK                         _______ _______ _______ _____ _____    ______ ____
ROOT
ATOM      1  N   UNL     1       4.458  -2.029   0.165  0.00  0.00    -0.328 N 
ATOM      2  C   UNL     1       5.614  -1.303   0.124  0.00  0.00    +0.194 C 
ATOM      3  N   UNL     1       6.033  -0.626   1.231  0.00  0.00    -0.357 N 
ATOM      4  N   UNL     1       6.327  -1.256  -0.991  0.00  0.00    -0.143 NA
ATOM      5  H   UNL     1       6.823  -0.064   1.186  0.00  0.00    +0.162 HD
ATOM      6  H   UNL     1       4.494  -2.999   0.159  0.00  0.00    +0.169 HD
ENDROOT
BRANCH   1  12
ATOM      7  C   UNL     1       2.060  -2.101   0.438  0.00  0.00    -0.024 A 
ATOM      8  C   UNL     1       0.842  -1.452   0.493  0.00  0.00    +0.005 A 
ATOM      9  C   UNL     1       0.779  -0.082   0.320  0.00  0.00    +0.000 A 
ATOM     10  C   UNL     1       1.935   0.643   0.091  0.00  0.00    +0.002 A 
ATOM     11  C   UNL     1       3.155   0.000   0.035  0.00  0.00    +0.026 A 
ATOM     12  C   UNL     1       3.223  -1.376   0.215  0.00  0.00    +0.045 A 
BRANCH   7  14
ATOM     13  C   UNL     1       2.431  -3.910   2.093  0.00  0.00    +0.009 C 
ATOM     14  C   UNL     1       2.127  -3.595   0.627  0.00  0.00    +0.034 C 
ENDBRANCH   7  14
ENDBRANCH   1  12
BRANCH   4  15
ATOM     15  C   UNL     1       5.822  -1.747  -2.131  0.00  0.00    +0.270 C 
ATOM     16  O   UNL     1       4.667  -2.134  -2.169  0.00  0.00    -0.268 OA
BRANCH  15  17
ATOM     17  C   UNL     1       6.666  -1.819  -3.343  0.00  0.00    +0.039 A 
ATOM     18  C   UNL     1       8.021  -1.489  -3.273  0.00  0.00    +0.015 A 
ATOM     19  C   UNL     1       8.804  -1.557  -4.403  0.00  0.00    +0.024 A 
ATOM     20  C   UNL     1       8.247  -1.954  -5.614  0.00  0.00    +0.033 A 
ATOM     21  C   UNL     1       6.898  -2.284  -5.688  0.00  0.00    +0.024 A 
ATOM     22  C   UNL     1       6.111  -2.223  -4.559  0.00  0.00    +0.015 A 
BRANCH  20  23
ATOM     23  N   UNL     1       9.043  -2.022  -6.758  0.00  0.00    -0.286 N 
ATOM     24  C   UNL     1      10.351  -2.330  -6.651  0.00  0.00    +0.214 C 
ATOM     25  O   UNL     1      10.813  -2.652  -5.577  0.00  0.00    -0.276 OA
ATOM     26  C   UNL     1      11.240  -2.275  -7.867  0.00  0.00    +0.109 C 
ATOM     27  H   UNL     1       8.656  -1.847  -7.630  0.00  0.00    +0.155 HD
ENDBRANCH  20  23
ENDBRANCH  15  17
ENDBRANCH   4  15
BRANCH   3  28
ATOM     28  C   UNL     1       5.291  -0.747   2.489  0.00  0.00    +0.120 C 
BRANCH  28  29
ATOM     29  C   UNL     1       5.935   0.149   3.549  0.00  0.00    +0.054 C 
BRANCH  29  30
ATOM     30  C   UNL     1       5.246  -0.064   4.872  0.00  0.00    -0.040 C 
ATOM     31  C   UNL     1       5.505  -1.036   5.777  0.00  0.00    -0.001 A 
ATOM     32  C   UNL     1       6.469  -2.143   5.798  0.00  0.00    +0.010 A 
ATOM     33  C   UNL     1       6.492  -2.971   6.867  0.00  0.00    +0.001 A 
ATOM     34  C   UNL     1       5.621  -2.800   7.952  0.00  0.00    +0.002 A 
ATOM     35  C   UNL     1       4.709  -1.806   8.005  0.00  0.00    +0.026 A 
ATOM     36  C   UNL     1       4.597  -0.876   6.935  0.00  0.00    +0.043 A 
ATOM     37  N   UNL     1       3.807   0.154   6.753  0.00  0.00    -0.380 N 
ATOM     38  C   UNL     1       4.129   0.769   5.460  0.00  0.00    +0.144 C 
ATOM     39  H   UNL     1       3.126   0.462   7.371  0.00  0.00    +0.160 HD
ENDBRANCH  29  30
ENDBRANCH  28  29
ENDBRANCH   3  28
TORSDOF 8
