REMARK  Name = ZINC14684624
REMARK  10 active torsions:
REMARK  status: ('A' for Active; 'I' for Inactive)
REMARK    1  A    between atoms: C_3  and  O_35
REMARK    2  A    between atoms: C_4  and  O_34
REMARK    3  A    between atoms: C_6  and  C_7
REMARK    4  A    between atoms: C_8  and  O_20
REMARK    5  A    between atoms: C_12  and  O_19
REMARK    6  A    between atoms: C_14  and  O_18
REMARK    7  A    between atoms: O_20  and  C_21
REMARK    8  A    between atoms: C_23  and  O_33
REMARK    9  A    between atoms: C_25  and  O_32
REMARK   10  A    between atoms: C_27  and  O_31
REMARK                            x       y       z     vdW  Elec       q    Type
REMARK                         _______ _______ _______ _____ _____    ______ ____
ROOT
ATOM      1  C   UNL     1      -1.604  -0.903   0.038  0.00  0.00    +0.181 A 
ATOM      2  C   UNL     1      -2.632  -0.049   0.300  0.00  0.00    +0.214 A 
ATOM      3  C   UNL     1      -3.911  -0.574   0.621  0.00  0.00    +0.238 A 
ATOM      4  O   UNL     1      -4.856   0.160   0.861  0.00  0.00    -0.283 OA
ATOM      5  C   UNL     1      -4.053  -2.039   0.652  0.00  0.00    +0.109 A 
ATOM      6  C   UNL     1      -5.279  -2.643   0.959  0.00  0.00    +0.135 A 
ATOM      7  C   UNL     1      -5.373  -4.022   0.978  0.00  0.00    +0.091 A 
ATOM      8  C   UNL     1      -4.256  -4.802   0.695  0.00  0.00    +0.124 A 
ATOM      9  C   UNL     1      -3.040  -4.211   0.391  0.00  0.00    +0.092 A 
ATOM     10  C   UNL     1      -2.927  -2.829   0.366  0.00  0.00    +0.147 A 
ATOM     11  O   UNL     1      -1.751  -2.239   0.066  0.00  0.00    -0.451 OA
ENDROOT
BRANCH   1  17
ATOM     12  C   UNL     1       0.270   0.668   0.499  0.00  0.00    +0.015 A 
ATOM     13  C   UNL     1       1.506   1.192   0.188  0.00  0.00    +0.050 A 
ATOM     14  C   UNL     1       2.206   0.720  -0.913  0.00  0.00    +0.158 A 
ATOM     15  C   UNL     1       1.663  -0.288  -1.709  0.00  0.00    +0.159 A 
ATOM     16  C   UNL     1       0.424  -0.818  -1.403  0.00  0.00    +0.060 A 
ATOM     17  C   UNL     1      -0.281  -0.342  -0.294  0.00  0.00    +0.025 A 
BRANCH  15  18
ATOM     18  O   UNL     1       2.352  -0.749  -2.787  0.00  0.00    -0.503 OA
ATOM     19  H   UNL     1       2.938  -1.492  -2.591  0.00  0.00    +0.292 HD
ENDBRANCH  15  18
BRANCH  14  20
ATOM     20  O   UNL     1       3.424   1.240  -1.217  0.00  0.00    -0.503 OA
ATOM     21  H   UNL     1       4.164   0.781  -0.796  0.00  0.00    +0.292 HD
ENDBRANCH  14  20
ENDBRANCH   1  17
BRANCH   8  22
ATOM     22  O   UNL     1      -4.359  -6.156   0.716  0.00  0.00    -0.507 OA
ATOM     23  H   UNL     1      -4.604  -6.545  -0.134  0.00  0.00    +0.292 HD
ENDBRANCH   8  22
BRANCH   6  24
ATOM     24  O   UNL     1      -6.367  -1.881   1.236  0.00  0.00    -0.506 OA
ATOM     25  H   UNL     1      -6.899  -1.657   0.460  0.00  0.00    +0.292 HD
ENDBRANCH   6  24
BRANCH   2  26
ATOM     26  O   UNL     1      -2.435   1.296   0.255  0.00  0.00    -0.453 OA
BRANCH  26  27
ATOM     27  C   UNL     1      -3.123   2.019  -0.768  0.00  0.00    +0.339 C 
ATOM     28  C   UNL     1      -3.009   3.522  -0.497  0.00  0.00    +0.214 C 
ATOM     29  C   UNL     1      -3.697   4.291  -1.629  0.00  0.00    +0.180 C 
ATOM     30  C   UNL     1      -3.061   3.890  -2.963  0.00  0.00    +0.171 C 
ATOM     31  C   UNL     1      -3.173   2.374  -3.139  0.00  0.00    +0.198 C 
ATOM     32  O   UNL     1      -2.541   1.719  -2.038  0.00  0.00    -0.337 OA
BRANCH  30  33
ATOM     33  O   UNL     1      -3.742   4.548  -4.034  0.00  0.00    -0.387 OA
ATOM     34  H   UNL     1      -3.391   4.340  -4.910  0.00  0.00    +0.210 HD
ENDBRANCH  30  33
BRANCH  29  35
ATOM     35  O   UNL     1      -5.090   3.971  -1.646  0.00  0.00    -0.386 OA
ATOM     36  H   UNL     1      -5.603   4.486  -2.284  0.00  0.00    +0.210 HD
ENDBRANCH  29  35
BRANCH  28  37
ATOM     37  O   UNL     1      -1.630   3.892  -0.436  0.00  0.00    -0.383 OA
ATOM     38  H   UNL     1      -1.131   3.438   0.258  0.00  0.00    +0.210 HD
ENDBRANCH  28  37
ENDBRANCH  26  27
ENDBRANCH   2  26
TORSDOF 10
