REMARK  Name = ZINC23440228
REMARK  16 active torsions:
REMARK  status: ('A' for Active; 'I' for Inactive)
REMARK    1  A    between atoms: C_1  and  C_2
REMARK    2  A    between atoms: C_2  and  C_3
REMARK    3  A    between atoms: C_3  and  C_4
REMARK    4  A    between atoms: C_4  and  C_5
REMARK    5  A    between atoms: C_5  and  C_7
REMARK    6  A    between atoms: C_5  and  C_9
REMARK    7  A    between atoms: C_7  and  C_8
REMARK    8  A    between atoms: C_9  and  O_10
REMARK    9  A    between atoms: O_10  and  C_11
REMARK   10  A    between atoms: C_11  and  C_12
REMARK   11  A    between atoms: C_12  and  C_13
REMARK   12  A    between atoms: C_13  and  N_14
REMARK   13  A    between atoms: C_15  and  C_17
REMARK   14  A    between atoms: N_21  and  C_22
REMARK   15  A    between atoms: C_26  and  C_28
REMARK   16  A    between atoms: C_33  and  C_34
REMARK                            x       y       z     vdW  Elec       q    Type
REMARK                         _______ _______ _______ _____ _____    ______ ____
ROOT
ATOM      1  C   UNL     1       2.787   2.542   2.770  0.00  0.00    +0.128 A 
ATOM      2  C   UNL     1       4.075   2.121   2.587  0.00  0.00    +0.143 A 
ATOM      3  N   UNL     1       4.837   3.201   2.417  0.00  0.00    -0.243 NA
ATOM      4  C   UNL     1       4.099   4.279   2.493  0.00  0.00    +0.204 A 
ATOM      5  N   UNL     1       2.818   3.923   2.711  0.00  0.00    -0.295 N 
ENDROOT
BRANCH   5   6
ATOM      6  C   UNL     1       1.725   4.789   2.852  0.00  0.00    +0.049 A 
ATOM      7  C   UNL     1       0.645   4.691   1.984  0.00  0.00    +0.026 A 
ATOM      8  C   UNL     1      -0.437   5.539   2.124  0.00  0.00    +0.003 A 
ATOM      9  C   UNL     1      -0.446   6.496   3.119  0.00  0.00    +0.008 A 
ATOM     10  C   UNL     1       0.636   6.605   3.991  0.00  0.00    -0.015 A 
ATOM     11  C   UNL     1       1.724   5.747   3.854  0.00  0.00    +0.034 A 
BRANCH  10  12
ATOM     12  C   UNL     1       0.628   7.632   5.061  0.00  0.00    -0.006 A 
ATOM     13  C   UNL     1       1.642   8.586   5.122  0.00  0.00    +0.009 A 
ATOM     14  C   UNL     1       1.629   9.540   6.120  0.00  0.00    +0.001 A 
ATOM     15  C   UNL     1       0.613   9.549   7.059  0.00  0.00    +0.001 A 
ATOM     16  C   UNL     1      -0.395   8.604   7.003  0.00  0.00    +0.013 A 
ATOM     17  C   UNL     1      -0.396   7.649   6.006  0.00  0.00    +0.062 A 
BRANCH  17  18
ATOM     18  C   UNL     1      -1.498   6.624   5.943  0.00  0.00    +0.418 C 
ATOM     19  F   UNL     1      -2.313   6.745   7.074  0.00  0.00    -0.166 F 
ATOM     20  F   UNL     1      -2.265   6.834   4.792  0.00  0.00    -0.166 F 
ATOM     21  F   UNL     1      -0.941   5.341   5.905  0.00  0.00    -0.166 F 
ENDBRANCH  17  18
ENDBRANCH  10  12
ENDBRANCH   5   6
BRANCH   1  23
ATOM     22  N   UNL     1       1.745   0.359   3.080  0.00  0.00    -0.310 N 
ATOM     23  C   UNL     1       1.608   1.697   2.991  0.00  0.00    +0.262 C 
ATOM     24  O   UNL     1       0.507   2.204   3.095  0.00  0.00    -0.269 OA
ATOM     25  H   UNL     1       2.747  -0.093   3.068  0.00  0.00    +0.149 HD
BRANCH  22  26
ATOM     26  C   UNL     1       0.558  -0.493   3.191  0.00  0.00    +0.107 C 
BRANCH  26  27
ATOM     27  C   UNL     1       0.989  -1.959   3.276  0.00  0.00    +0.047 C 
BRANCH  27  28
ATOM     28  C   UNL     1      -0.251  -2.848   3.392  0.00  0.00    +0.161 C 
BRANCH  28  29
ATOM     29  O   UNL     1       0.151  -4.217   3.471  0.00  0.00    -0.379 OA
BRANCH  29  30
ATOM     30  C   UNL     1      -0.937  -5.137   3.583  0.00  0.00    +0.163 C 
BRANCH  30  31
ATOM     31  C   UNL     1      -0.392  -6.564   3.660  0.00  0.00    +0.014 C 
BRANCH  31  32
ATOM     32  C   UNL     1       0.415  -6.733   4.949  0.00  0.00    +0.002 C 
ATOM     33  C   UNL     1       1.043  -8.128   4.979  0.00  0.00    +0.004 C 
ENDBRANCH  31  32
BRANCH  31  34
ATOM     34  C   UNL     1      -1.557  -7.556   3.655  0.00  0.00    +0.006 C 
BRANCH  34  35
ATOM     35  C   UNL     1      -2.261  -7.507   2.297  0.00  0.00    +0.000 C 
BRANCH  35  37
ATOM     36  C   UNL     1      -4.187  -8.381   0.966  0.00  0.00    +0.004 C 
ATOM     37  C   UNL     1      -3.482  -8.429   2.323  0.00  0.00    -0.003 C 
ENDBRANCH  35  37
ENDBRANCH  34  35
ENDBRANCH  31  34
ENDBRANCH  30  31
ENDBRANCH  29  30
ENDBRANCH  28  29
ENDBRANCH  27  28
ENDBRANCH  26  27
ENDBRANCH  22  26
ENDBRANCH   1  23
TORSDOF 14
