REMARK  Name = ZINC38799189
REMARK  4 active torsions:
REMARK  status: ('A' for Active; 'I' for Inactive)
REMARK    1  A    between atoms: C_4  and  C_7
REMARK    2  A    between atoms: C_18  and  C_20
REMARK    3  A    between atoms: C_20  and  C_22
REMARK    4  A    between atoms: C_23  and  C_24
REMARK                            x       y       z     vdW  Elec       q    Type
REMARK                         _______ _______ _______ _____ _____    ______ ____
ROOT
ATOM      1  C   UNL     1       3.691  -0.679  -0.038  0.00  0.00    -0.016 C 
ATOM      2  C   UNL     1       4.561  -0.607   1.007  0.00  0.00    -0.017 C 
ATOM      3  C   UNL     1       4.246   0.170   2.136  0.00  0.00    +0.026 C 
ATOM      4  C   UNL     1       5.173   0.401   3.094  0.00  0.00    +0.041 C 
ATOM      5  C   UNL     1       6.518  -0.155   2.959  0.00  0.00    +0.018 C 
ATOM      6  C   UNL     1       6.829  -0.967   1.958  0.00  0.00    +0.001 C 
ATOM      7  C   UNL     1       5.850  -1.377   0.905  0.00  0.00    +0.127 C 
ATOM      8  N   UNL     1       6.417  -1.174  -0.435  0.00  0.00    -0.304 N 
ATOM      9  C   UNL     1       5.574  -1.246  -1.498  0.00  0.00    +0.229 C 
ATOM     10  O   UNL     1       5.977  -1.087  -2.630  0.00  0.00    -0.275 OA
ATOM     11  C   UNL     1       4.109  -1.536  -1.218  0.00  0.00    +0.176 C 
ATOM     12 CL   UNL     1       4.766   1.359   4.483  0.00  0.00    -0.084 Cl
ATOM     13  H   UNL     1       7.363  -0.994  -0.557  0.00  0.00    +0.150 HD
ENDROOT
BRANCH   1  17
ATOM     14  C   UNL     1      -0.017   1.380   0.010  0.00  0.00    +0.000 A 
ATOM     15  C   UNL     1       1.168   2.095   0.002  0.00  0.00    +0.001 A 
ATOM     16  C   UNL     1       2.377   1.433  -0.013  0.00  0.00    +0.008 A 
ATOM     17  C   UNL     1       2.405   0.035  -0.021  0.00  0.00    -0.020 A 
ATOM     18  C   UNL     1       1.203  -0.681  -0.013  0.00  0.00    +0.008 A 
ATOM     19  C   UNL     1       0.002  -0.004   0.002  0.00  0.00    +0.001 A 
ENDBRANCH   1  17
BRANCH  11  20
ATOM     20  C   UNL     1       3.928  -2.994  -0.880  0.00  0.00    +0.172 C 
ATOM     21  O   UNL     1       3.950  -3.355   0.277  0.00  0.00    -0.292 OA
BRANCH  20  22
ATOM     22  C   UNL     1       3.726  -3.972  -1.949  0.00  0.00    +0.044 C 
ATOM     23  C   UNL     1       3.566  -5.263  -1.649  0.00  0.00    -0.007 C 
BRANCH  23  24
ATOM     24  C   UNL     1       3.358  -6.271  -2.750  0.00  0.00    +0.121 C 
ATOM     25  C   UNL     1       1.976  -6.870  -2.577  0.00  0.00    -0.001 C 
ATOM     26  C   UNL     1       1.895  -8.222  -2.422  0.00  0.00    -0.007 A 
ATOM     27  C   UNL     1       0.601  -8.883  -2.248  0.00  0.00    +0.009 A 
ATOM     28  C   UNL     1       0.569 -10.232  -2.097  0.00  0.00    +0.001 A 
ATOM     29  C   UNL     1       1.739 -10.991  -2.104  0.00  0.00    +0.002 A 
ATOM     30  C   UNL     1       2.971 -10.439  -2.261  0.00  0.00    +0.024 A 
ATOM     31  C   UNL     1       3.114  -9.049  -2.426  0.00  0.00    +0.040 A 
ATOM     32  N   UNL     1       4.327  -8.518  -2.579  0.00  0.00    -0.284 N 
ATOM     33  C   UNL     1       4.533  -7.222  -2.736  0.00  0.00    +0.228 C 
ATOM     34  O   UNL     1       5.665  -6.796  -2.871  0.00  0.00    -0.274 OA
ATOM     35  H   UNL     1       5.095  -9.111  -2.574  0.00  0.00    +0.155 HD
ENDBRANCH  23  24
ENDBRANCH  20  22
ENDBRANCH  11  20
TORSDOF 4
