REMARK  Name = ZINC63139453
REMARK  8 active torsions:
REMARK  status: ('A' for Active; 'I' for Inactive)
REMARK    1  A    between atoms: C_1  and  C_2
REMARK    2  A    between atoms: C_2  and  C_3
REMARK    3  A    between atoms: C_2  and  C_4
REMARK    4  A    between atoms: C_4  and  N_5
REMARK    5  A    between atoms: C_25  and  C_27
REMARK    6  A    between atoms: C_30  and  C_33
REMARK    7  A    between atoms: C_33  and  C_34
REMARK    8  A    between atoms: C_33  and  C_35
REMARK                            x       y       z     vdW  Elec       q    Type
REMARK                         _______ _______ _______ _____ _____    ______ ____
ROOT
ATOM      1  N   UNL     1      -1.446  -1.993  -0.114  0.00  0.00    -0.291 N 
ATOM      2  C   UNL     1      -1.481  -2.565  -1.450  0.00  0.00    +0.203 C 
ATOM      3  C   UNL     1      -1.462  -4.058  -1.425  0.00  0.00    +0.234 C 
ATOM      4  O   UNL     1      -1.490  -4.639  -2.489  0.00  0.00    -0.274 OA
ATOM      5  N   UNL     1      -1.415  -4.800  -0.312  0.00  0.00    -0.279 N 
ATOM      6  C   UNL     1      -1.359  -4.215   1.024  0.00  0.00    +0.167 C 
ATOM      7  C   UNL     1      -1.385  -2.722   0.999  0.00  0.00    +0.237 C 
ATOM      8  O   UNL     1      -1.353  -2.136   2.060  0.00  0.00    -0.274 OA
ATOM      9  C   UNL     1      -0.091  -4.694   1.754  0.00  0.00    +0.065 C 
ATOM     10  C   UNL     1      -0.005  -6.184   1.534  0.00  0.00    -0.034 C 
ATOM     11  C   UNL     1       0.151  -7.192   2.383  0.00  0.00    -0.001 A 
ATOM     12  C   UNL     1       0.410  -7.222   3.831  0.00  0.00    +0.010 A 
ATOM     13  C   UNL     1       0.496  -8.454   4.400  0.00  0.00    +0.001 A 
ATOM     14  C   UNL     1       0.351  -9.645   3.681  0.00  0.00    +0.002 A 
ATOM     15  C   UNL     1       0.121  -9.711   2.345  0.00  0.00    +0.026 A 
ATOM     16  C   UNL     1       0.019  -8.480   1.635  0.00  0.00    +0.043 A 
ATOM     17  N   UNL     1      -0.171  -8.252   0.369  0.00  0.00    -0.375 N 
ATOM     18  C   UNL     1      -0.122  -6.807   0.147  0.00  0.00    +0.131 C 
ATOM     19  C   UNL     1      -1.421  -6.272  -0.463  0.00  0.00    +0.133 C 
ATOM     20  H   UNL     1      -0.319  -8.927  -0.313  0.00  0.00    +0.160 HD
ENDROOT
BRANCH  19  21
ATOM     21  C   UNL     1      -1.487  -6.636  -1.924  0.00  0.00    -0.025 A 
ATOM     22  C   UNL     1      -0.326  -6.715  -2.670  0.00  0.00    +0.006 A 
ATOM     23  C   UNL     1      -0.386  -7.049  -4.010  0.00  0.00    +0.004 A 
ATOM     24  C   UNL     1      -1.608  -7.304  -4.604  0.00  0.00    -0.045 A 
ATOM     25  C   UNL     1      -2.769  -7.226  -3.858  0.00  0.00    +0.004 A 
ATOM     26  C   UNL     1      -2.708  -6.896  -2.517  0.00  0.00    +0.006 A 
BRANCH  24  27
ATOM     27  C   UNL     1      -1.674  -7.667  -6.065  0.00  0.00    +0.013 C 
ATOM     28  C   UNL     1      -2.306  -9.052  -6.219  0.00  0.00    +0.012 C 
ATOM     29  C   UNL     1      -2.523  -6.634  -6.809  0.00  0.00    +0.012 C 
ENDBRANCH  24  27
ENDBRANCH  19  21
BRANCH   1  30
ATOM     30  C   UNL     1      -1.473  -0.534   0.015  0.00  0.00    +0.111 C 
BRANCH  30  32
ATOM     31  C   UNL     1      -0.073   1.535   0.011  0.00  0.00    +0.009 C 
ATOM     32  C   UNL     1      -0.041   0.006   0.002  0.00  0.00    +0.000 C 
ATOM     33  C   UNL     1       0.704  -0.496   1.240  0.00  0.00    +0.009 C 
ENDBRANCH  30  32
ENDBRANCH   1  30
TORSDOF 4
