REMARK  Name = ZINC49937233
REMARK  2 active torsions:
REMARK  status: ('A' for Active; 'I' for Inactive)
REMARK    1  A    between atoms: C_3  and  C_7
REMARK    2  A    between atoms: C_18  and  C_20
REMARK                            x       y       z     vdW  Elec       q    Type
REMARK                         _______ _______ _______ _____ _____    ______ ____
ROOT
ATOM      1  C   UNL     1       4.479   1.801  -0.078  0.00  0.00    +0.155 C 
ATOM      2  C   UNL     1       4.808   1.357  -1.515  0.00  0.00    +0.113 C 
ATOM      3  C   UNL     1       5.897   0.304  -1.639  0.00  0.00    +0.065 C 
ATOM      4  C   UNL     1       6.011  -0.378  -2.934  0.00  0.00    +0.040 A 
ATOM      5  C   UNL     1       7.156  -1.093  -3.284  0.00  0.00    +0.033 A 
ATOM      6  C   UNL     1       7.216  -1.727  -4.509  0.00  0.00    +0.042 A 
ATOM      7  C   UNL     1       6.143  -1.653  -5.384  0.00  0.00    +0.023 A 
ATOM      8  C   UNL     1       5.006  -0.944  -5.048  0.00  0.00    +0.048 A 
ATOM      9  C   UNL     1       4.925  -0.296  -3.824  0.00  0.00    +0.130 A 
ATOM     10  O   UNL     1       3.816   0.411  -3.502  0.00  0.00    -0.483 OA
ATOM     11  C   UNL     1       3.560   0.725  -2.131  0.00  0.00    +0.215 C 
ATOM     12 CL   UNL     1       8.638  -2.618  -4.954  0.00  0.00    -0.084 Cl
ATOM     13  N   UNL     1       6.623   0.003  -0.615  0.00  0.00    -0.215 NA
ATOM     14  C   UNL     1       6.429   0.489   0.636  0.00  0.00    +0.249 A 
ATOM     15  N   UNL     1       5.411   1.323   0.955  0.00  0.00    -0.221 N 
ATOM     16  N   UNL     1       5.503   1.567   2.330  0.00  0.00    -0.156 NA
ATOM     17  C   UNL     1       6.554   0.919   2.760  0.00  0.00    +0.247 A 
ATOM     18  N   UNL     1       7.117   0.278   1.753  0.00  0.00    -0.198 NA
ENDROOT
BRANCH  11  19
ATOM     19  C   UNL     1       3.214  -0.536  -1.382  0.00  0.00    -0.007 A 
ATOM     20  C   UNL     1       2.051  -1.222  -1.683  0.00  0.00    +0.008 A 
ATOM     21  C   UNL     1       1.734  -2.379  -0.997  0.00  0.00    +0.015 A 
ATOM     22  C   UNL     1       2.579  -2.851  -0.009  0.00  0.00    +0.018 A 
ATOM     23  C   UNL     1       3.742  -2.165   0.291  0.00  0.00    +0.015 A 
ATOM     24  C   UNL     1       4.061  -1.011  -0.399  0.00  0.00    +0.008 A 
ATOM     25 BR   UNL     1       2.144  -4.434   0.930  0.00  0.00    -0.050 Br
ENDBRANCH  11  19
BRANCH   1  28
ATOM     26  C   UNL     1       0.731   1.372  -0.000  0.00  0.00    +0.020 A 
ATOM     27  C   UNL     1       1.983   1.858  -0.347  0.00  0.00    +0.009 A 
ATOM     28  C   UNL     1       3.098   1.307   0.265  0.00  0.00    -0.004 A 
ATOM     29  C   UNL     1       2.926   0.298   1.194  0.00  0.00    +0.116 A 
ATOM     30  N   UNL     1       1.720  -0.140   1.499  0.00  0.00    -0.263 NA
ATOM     31  C   UNL     1       0.638   0.361   0.937  0.00  0.00    +0.111 A 
ENDBRANCH   1  28
TORSDOF 2
