REMARK  Name = ZINC09354055
REMARK  6 active torsions:
REMARK  status: ('A' for Active; 'I' for Inactive)
REMARK    1  A    between atoms: C_1  and  C_2
REMARK    2  A    between atoms: C_5  and  N_8
REMARK    3  A    between atoms: C_16  and  C_36
REMARK    4  A    between atoms: C_19  and  C_25
REMARK    5  A    between atoms: C_25  and  C_27
REMARK    6  A    between atoms: C_31  and  N_33
REMARK                            x       y       z     vdW  Elec       q    Type
REMARK                         _______ _______ _______ _____ _____    ______ ____
ROOT
ATOM      1  N   UNL     1      -1.336   0.777  -1.730  0.00  0.00    -0.210 N 
ATOM      2  C   UNL     1      -0.853   1.903  -1.181  0.00  0.00    +0.232 C 
ATOM      3  O   UNL     1      -0.964   3.020  -1.637  0.00  0.00    -0.274 OA
ATOM      4  C   UNL     1      -0.145   1.537   0.107  0.00  0.00    +0.113 C 
ATOM      5  C   UNL     1       1.246   2.165   0.159  0.00  0.00    +0.093 C 
ATOM      6  C   UNL     1       1.294   3.474  -0.590  0.00  0.00    +0.013 C 
ATOM      7  C   UNL     1       2.430   3.806  -1.239  0.00  0.00    +0.051 C 
ATOM      8  C   UNL     1       3.610   2.920  -1.218  0.00  0.00    +0.032 C 
ATOM      9  C   UNL     1       3.464   1.626  -0.866  0.00  0.00    +0.054 C 
ATOM     10  C   UNL     1       1.500  -0.018  -0.799  0.00  0.00    +0.141 C 
ATOM     11  C   UNL     1       0.129   0.015  -0.095  0.00  0.00    +0.116 C 
ATOM     12  C   UNL     1      -0.935  -0.349  -1.118  0.00  0.00    +0.232 C 
ATOM     13  O   UNL     1      -1.350  -1.465  -1.344  0.00  0.00    -0.274 OA
ATOM     14  N   UNL     1       2.206   1.145  -0.181  0.00  0.00    -0.384 NA
ATOM     15  H   UNL     1       2.543   0.796   0.724  0.00  0.00    +0.127 HD
ENDROOT
BRANCH   1  20
ATOM     16  C   UNL     1      -4.779   0.778  -6.242  0.00  0.00    +0.044 C 
ATOM     17  C   UNL     1      -3.865   0.778  -5.044  0.00  0.00    -0.050 A 
ATOM     18  C   UNL     1      -4.338   0.356  -3.815  0.00  0.00    +0.005 A 
ATOM     19  C   UNL     1      -3.503   0.354  -2.715  0.00  0.00    +0.024 A 
ATOM     20  C   UNL     1      -2.186   0.777  -2.844  0.00  0.00    +0.044 A 
ATOM     21  C   UNL     1      -1.715   1.204  -4.078  0.00  0.00    +0.024 A 
ATOM     22  C   UNL     1      -2.554   1.199  -5.176  0.00  0.00    +0.005 A 
ENDBRANCH   1  20
BRANCH  10  23
ATOM     23  C   UNL     1       1.307  -0.176  -2.285  0.00  0.00    +0.183 C 
ATOM     24  O   UNL     1       1.470   0.773  -3.022  0.00  0.00    -0.290 OA
BRANCH  23  25
ATOM     25  C   UNL     1       0.920  -1.482  -2.843  0.00  0.00    +0.021 A 
ATOM     26  C   UNL     1       0.736  -2.580  -1.997  0.00  0.00    +0.011 A 
ATOM     27  C   UNL     1       0.368  -3.799  -2.526  0.00  0.00    +0.003 A 
ATOM     28  C   UNL     1       0.192  -3.940  -3.892  0.00  0.00    +0.033 A 
ATOM     29  C   UNL     1       0.377  -2.859  -4.736  0.00  0.00    +0.127 A 
ATOM     30  C   UNL     1       0.739  -1.632  -4.221  0.00  0.00    +0.044 A 
BRANCH  29  31
ATOM     31  N   UNL     1       0.186  -3.020  -6.195  0.00  0.00    +0.056 N 
ATOM     32  O   UNL     1       0.348  -2.070  -6.939  0.00  0.00    -0.126 OA
ATOM     33  O   UNL     1      -0.134  -4.103  -6.651  0.00  0.00    -0.126 OA
ENDBRANCH  29  31
ENDBRANCH  23  25
ENDBRANCH  10  23
BRANCH   7  34
ATOM     34  C   UNL     1       2.491   5.041  -1.962  0.00  0.00    +0.099 C 
ATOM     35  N   UNL     1       2.539   6.021  -2.534  0.00  0.00    -0.191 NA
ENDBRANCH   7  34
TORSDOF 5
