REMARK  Name = ZINC35750265
REMARK  7 active torsions:
REMARK  status: ('A' for Active; 'I' for Inactive)
REMARK    1  A    between atoms: C_1  and  N_2
REMARK    2  A    between atoms: C_8  and  C_10
REMARK    3  A    between atoms: C_12  and  C_26
REMARK    4  A    between atoms: N_17  and  C_18
REMARK    5  A    between atoms: C_18  and  C_19
REMARK    6  A    between atoms: C_29  and  N_32
REMARK    7  A    between atoms: C_33  and  C_35
REMARK                            x       y       z     vdW  Elec       q    Type
REMARK                         _______ _______ _______ _____ _____    ______ ____
ROOT
ATOM      1  C   UNL     1       2.415  -4.054   1.327  0.00  0.00    +0.211 C 
ATOM      2  C   UNL     1       1.491  -5.216   1.764  0.00  0.00    +0.238 C 
ATOM      3  O   UNL     1       2.072  -6.338   1.071  0.00  0.00    -0.440 OA
ATOM      4  C   UNL     1       3.374  -6.072   0.868  0.00  0.00    +0.405 C 
ATOM      5  O   UNL     1       4.202  -6.924   0.614  0.00  0.00    -0.226 OA
ATOM      6  N   UNL     1       3.665  -4.757   0.978  0.00  0.00    -0.248 N 
ENDROOT
BRANCH   1  14
ATOM      7  C   UNL     1      -0.301   1.583   0.896  0.00  0.00    +0.105 C 
ATOM      8  N   UNL     1      -0.210   0.132   0.686  0.00  0.00    -0.302 NA
ATOM      9  C   UNL     1       0.424  -0.175  -0.602  0.00  0.00    +0.103 C 
ATOM     10  C   UNL     1       0.337  -1.682  -0.865  0.00  0.00    +0.123 C 
ATOM     11  N   UNL     1       0.904  -2.391   0.292  0.00  0.00    -0.297 N 
ATOM     12  C   UNL     1       0.414  -2.038   1.633  0.00  0.00    +0.123 C 
ATOM     13  C   UNL     1       0.498  -0.517   1.797  0.00  0.00    +0.103 C 
ATOM     14  C   UNL     1       1.847  -3.340   0.128  0.00  0.00    +0.240 C 
ATOM     15  O   UNL     1       2.240  -3.619  -0.986  0.00  0.00    -0.273 OA
ENDBRANCH   1  14
BRANCH   2  16
ATOM     16  C   UNL     1       0.074  -4.978   1.310  0.00  0.00    -0.005 A 
ATOM     17  C   UNL     1      -0.315  -5.352   0.036  0.00  0.00    +0.009 A 
ATOM     18  C   UNL     1      -1.612  -5.135  -0.383  0.00  0.00    +0.024 A 
ATOM     19  C   UNL     1      -2.527  -4.540   0.476  0.00  0.00    +0.034 A 
ATOM     20  C   UNL     1      -2.134  -4.165   1.754  0.00  0.00    +0.024 A 
ATOM     21  C   UNL     1      -0.836  -4.389   2.169  0.00  0.00    +0.009 A 
BRANCH  19  22
ATOM     22  N   UNL     1      -3.842  -4.318   0.054  0.00  0.00    -0.281 N 
ATOM     23  C   UNL     1      -4.433  -5.183  -0.794  0.00  0.00    +0.255 C 
ATOM     24  O   UNL     1      -3.858  -6.206  -1.119  0.00  0.00    -0.269 OA
ATOM     25  H   UNL     1      -4.329  -3.542   0.373  0.00  0.00    +0.155 HD
BRANCH  23  26
ATOM     26  C   UNL     1      -5.766  -4.892  -1.327  0.00  0.00    +0.074 A 
ATOM     27  C   UNL     1      -6.543  -5.642  -2.197  0.00  0.00    +0.021 A 
ATOM     28  C   UNL     1      -7.766  -5.104  -2.520  0.00  0.00    +0.008 A 
ATOM     29  C   UNL     1      -8.124  -3.911  -1.984  0.00  0.00    +0.046 A 
ATOM     30  S   UNL     1      -6.817  -3.485  -1.019  0.00  0.00    -0.092 S 
ENDBRANCH  23  26
ENDBRANCH  19  22
ENDBRANCH   2  16
BRANCH   6  31
ATOM     31  C   UNL     1       4.979  -4.139   0.785  0.00  0.00    +0.147 C 
BRANCH  31  32
ATOM     32  C   UNL     1       5.715  -4.105   2.100  0.00  0.00    -0.030 A 
ATOM     33  C   UNL     1       5.577  -3.017   2.941  0.00  0.00    +0.008 A 
ATOM     34  C   UNL     1       6.251  -2.985   4.147  0.00  0.00    +0.038 A 
ATOM     35  C   UNL     1       7.066  -4.044   4.512  0.00  0.00    +0.123 A 
ATOM     36  C   UNL     1       7.204  -5.133   3.669  0.00  0.00    +0.038 A 
ATOM     37  C   UNL     1       6.524  -5.165   2.466  0.00  0.00    +0.008 A 
ATOM     38  F   UNL     1       7.726  -4.013   5.691  0.00  0.00    -0.205 F 
ENDBRANCH  31  32
ENDBRANCH   6  31
TORSDOF 6
