REMARK  Name = ZINC02532732
REMARK  5 active torsions:
REMARK  status: ('A' for Active; 'I' for Inactive)
REMARK    1  A    between atoms: C_1  and  C_2
REMARK    2  A    between atoms: C_7  and  N_8
REMARK    3  A    between atoms: N_11  and  N_12
REMARK    4  A    between atoms: N_12  and  S_13
REMARK    5  A    between atoms: S_13  and  C_16
REMARK                            x       y       z     vdW  Elec       q    Type
REMARK                         _______ _______ _______ _____ _____    ______ ____
ROOT
ATOM      1  N   UNL     1      -0.151   0.903   0.173  0.00  0.00    -0.107 NA
ATOM      2  H   UNL     1      -0.107  -0.066   0.210  0.00  0.00    +0.172 HD
ENDROOT
BRANCH   1   6
ATOM      3  N   UNL     1      -2.277   0.304  -1.419  0.00  0.00    -0.268 N 
ATOM      4  C   UNL     1      -2.420   1.244  -0.463  0.00  0.00    +0.319 C 
ATOM      5  O   UNL     1      -3.486   1.810  -0.322  0.00  0.00    -0.251 OA
ATOM      6  N   UNL     1      -1.380   1.555   0.336  0.00  0.00    -0.215 N 
ATOM      7  H   UNL     1      -1.405  -0.087  -1.588  0.00  0.00    +0.156 HD
ATOM      8  H   UNL     1      -1.483   2.232   1.024  0.00  0.00    +0.172 HD
BRANCH   3  15
ATOM      9  C   UNL     1      -1.819  -0.842  -3.983  0.00  0.00    +0.045 C 
ATOM     10  C   UNL     1      -3.208  -0.672  -3.423  0.00  0.00    -0.029 A 
ATOM     11  C   UNL     1      -4.304  -1.078  -4.158  0.00  0.00    +0.005 A 
ATOM     12  C   UNL     1      -5.579  -0.922  -3.644  0.00  0.00    +0.000 A 
ATOM     13  C   UNL     1      -5.760  -0.361  -2.394  0.00  0.00    +0.002 A 
ATOM     14  C   UNL     1      -4.667   0.042  -1.651  0.00  0.00    +0.023 A 
ATOM     15  C   UNL     1      -3.386  -0.108  -2.167  0.00  0.00    +0.038 A 
ENDBRANCH   3  15
ENDBRANCH   1   6
BRANCH   1  16
ATOM     16  S   UNL     1       1.226   1.784  -0.089  0.00  0.00    +0.075 S 
ATOM     17  O   UNL     1       2.317   0.882   0.042  0.00  0.00    -0.152 OA
ATOM     18  O   UNL     1       1.003   2.544  -1.269  0.00  0.00    -0.152 OA
BRANCH  16  19
ATOM     19  C   UNL     1       1.366   2.938   1.234  0.00  0.00    +0.126 A 
ATOM     20  C   UNL     1       1.288   4.295   0.980  0.00  0.00    +0.051 A 
ATOM     21  C   UNL     1       1.397   5.201   2.018  0.00  0.00    +0.061 A 
ATOM     22  C   UNL     1       1.586   4.750   3.314  0.00  0.00    +0.061 A 
ATOM     23  C   UNL     1       1.665   3.393   3.568  0.00  0.00    +0.043 A 
ATOM     24  C   UNL     1       1.549   2.487   2.529  0.00  0.00    +0.069 A 
ATOM     25 CL   UNL     1       1.640   0.783   2.850  0.00  0.00    -0.081 Cl
ATOM     26 CL   UNL     1       1.724   5.888   4.618  0.00  0.00    -0.082 Cl
ATOM     27 CL   UNL     1       1.298   6.905   1.698  0.00  0.00    -0.082 Cl
ENDBRANCH  16  19
ENDBRANCH   1  16
TORSDOF 4
