REMARK  Name = ZINC63271498
REMARK  5 active torsions:
REMARK  status: ('A' for Active; 'I' for Inactive)
REMARK    1  A    between atoms: C_6  and  C_11
REMARK    2  A    between atoms: C_11  and  C_12
REMARK    3  A    between atoms: C_12  and  N_13
REMARK    4  A    between atoms: C_14  and  C_16
REMARK    5  A    between atoms: C_16  and  N_17
REMARK                            x       y       z     vdW  Elec       q    Type
REMARK                         _______ _______ _______ _____ _____    ______ ____
ROOT
ATOM      1  C   UNL     1       5.817  -5.608  -2.685  0.00  0.00    +0.201 C 
ENDROOT
BRANCH   1   2
ATOM      2  N   UNL     1       6.085  -6.019  -4.066  0.00  0.00    -0.291 N 
ATOM      3  C   UNL     1       6.547  -7.259  -4.322  0.00  0.00    +0.303 C 
ATOM      4  O   UNL     1       6.830  -8.004  -3.404  0.00  0.00    -0.253 OA
ATOM      5  N   UNL     1       6.694  -7.673  -5.596  0.00  0.00    -0.284 N 
ATOM      6  C   UNL     1       6.460  -6.732  -6.695  0.00  0.00    +0.110 C 
ATOM      7  C   UNL     1       5.578  -7.370  -7.787  0.00  0.00    +0.025 C 
ATOM      8  C   UNL     1       6.234  -8.691  -8.154  0.00  0.00    +0.029 C 
ATOM      9  C   UNL     1       6.106  -9.596  -6.889  0.00  0.00    +0.127 C 
ATOM     10  C   UNL     1       7.097  -9.070  -5.868  0.00  0.00    +0.136 C 
ATOM     11  N   UNL     1       6.263 -10.940  -7.405  0.00  0.00    -0.282 NA
ATOM     12  C   UNL     1       5.895 -10.981  -8.655  0.00  0.00    +0.043 C 
ATOM     13  C   UNL     1       5.488  -9.576  -9.146  0.00  0.00    +0.065 C 
ATOM     14  C   UNL     1       5.949  -9.394 -10.559  0.00  0.00    -0.017 C 
ATOM     15  C   UNL     1       6.203 -10.437 -11.343  0.00  0.00    -0.004 C 
ATOM     16  C   UNL     1       6.060 -11.818 -10.886  0.00  0.00    +0.001 C 
ATOM     17  C   UNL     1       5.900 -12.100  -9.529  0.00  0.00    +0.023 C 
ATOM     18  H   UNL     1       5.930  -5.399  -4.795  0.00  0.00    +0.151 HD
ENDBRANCH   1   2
BRANCH   1  20
ATOM     19  N   UNL     1       5.000  -3.595  -1.504  0.00  0.00    -0.314 N 
ATOM     20  C   UNL     1       5.313  -4.188  -2.672  0.00  0.00    +0.230 C 
ATOM     21  O   UNL     1       5.190  -3.579  -3.714  0.00  0.00    -0.274 OA
ATOM     22  H   UNL     1       5.099  -4.082  -0.671  0.00  0.00    +0.149 HD
BRANCH  19  23
ATOM     23  C   UNL     1       4.510  -2.214  -1.491  0.00  0.00    +0.108 C 
BRANCH  23  24
ATOM     24  C   UNL     1       4.231  -1.785  -0.050  0.00  0.00    +0.052 C 
BRANCH  24  30
ATOM     25  C   UNL     1      -0.011   1.407   0.001  0.00  0.00    +0.022 A 
ATOM     26  C   UNL     1       1.116   2.149  -0.002  0.00  0.00    +0.027 A 
ATOM     27  C   UNL     1       2.391   1.520  -0.015  0.00  0.00    +0.043 A 
ATOM     28  N   UNL     1       3.607   2.011  -0.021  0.00  0.00    -0.380 N 
ATOM     29  C   UNL     1       4.561   0.896  -0.035  0.00  0.00    +0.144 C 
ATOM     30  C   UNL     1       3.726  -0.365  -0.037  0.00  0.00    -0.040 C 
ATOM     31  C   UNL     1       2.436   0.040  -0.025  0.00  0.00    +0.000 A 
ATOM     32  C   UNL     1       1.164  -0.693  -0.021  0.00  0.00    +0.030 A 
ATOM     33  C   UNL     1       0.005   0.005  -0.009  0.00  0.00    +0.042 A 
ATOM     34 CL   UNL     1      -1.501  -0.859  -0.003  0.00  0.00    -0.084 Cl
ATOM     35  H   UNL     1       3.837   2.953  -0.017  0.00  0.00    +0.160 HD
ENDBRANCH  24  30
ENDBRANCH  23  24
ENDBRANCH  19  23
ENDBRANCH   1  20
TORSDOF 5
