REMARK  Name = ZINC40209497
REMARK  14 active torsions:
REMARK  status: ('A' for Active; 'I' for Inactive)
REMARK    1  A    between atoms: C_2  and  C_3
REMARK    2  A    between atoms: C_3  and  C_4
REMARK    3  A    between atoms: C_9  and  O_10
REMARK    4  A    between atoms: O_10  and  C_11
REMARK    5  A    between atoms: C_11  and  C_12
REMARK    6  A    between atoms: C_12  and  C_13
REMARK    7  A    between atoms: C_13  and  C_14
REMARK    8  A    between atoms: C_14  and  N_15
REMARK    9  A    between atoms: C_23  and  C_24
REMARK   10  A    between atoms: C_24  and  C_25
REMARK   11  A    between atoms: C_25  and  C_26
REMARK   12  A    between atoms: C_26  and  N_27
REMARK   13  A    between atoms: C_28  and  C_30
REMARK   14  A    between atoms: C_31  and  C_32
REMARK                            x       y       z     vdW  Elec       q    Type
REMARK                         _______ _______ _______ _____ _____    ______ ____
ROOT
ATOM      1  N   UNL     1       3.784  -8.708   2.483  0.00  0.00    -0.328 N 
ATOM      2  C   UNL     1       3.098  -9.810   2.954  0.00  0.00    +0.069 A 
ATOM      3  C   UNL     1       1.755 -10.102   3.149  0.00  0.00    +0.028 A 
ATOM      4  C   UNL     1       1.390 -11.333   3.650  0.00  0.00    +0.002 A 
ATOM      5  C   UNL     1       2.356 -12.280   3.962  0.00  0.00    +0.002 A 
ATOM      6  C   UNL     1       3.682 -12.010   3.777  0.00  0.00    +0.030 A 
ATOM      7  C   UNL     1       4.075 -10.769   3.269  0.00  0.00    +0.089 A 
ATOM      8  N   UNL     1       5.281 -10.215   2.980  0.00  0.00    -0.232 NA
ATOM      9  C   UNL     1       5.109  -9.012   2.515  0.00  0.00    +0.111 A 
ENDROOT
BRANCH   1  10
ATOM     10  C   UNL     1       3.193  -7.447   2.028  0.00  0.00    +0.123 C 
BRANCH  10  11
ATOM     11  C   UNL     1       2.899  -7.533   0.529  0.00  0.00    +0.025 C 
BRANCH  11  12
ATOM     12  C   UNL     1       2.282  -6.216   0.053  0.00  0.00    +0.043 C 
BRANCH  12  13
ATOM     13  C   UNL     1       1.988  -6.303  -1.446  0.00  0.00    +0.229 C 
BRANCH  13  14
ATOM     14  O   UNL     1       1.412  -5.073  -1.890  0.00  0.00    -0.492 OA
BRANCH  14  20
ATOM     15  C   UNL     1       0.526  -3.818  -3.706  0.00  0.00    -0.002 A 
ATOM     16  C   UNL     1       0.205  -3.727  -5.047  0.00  0.00    +0.007 A 
ATOM     17  C   UNL     1       0.438  -4.798  -5.889  0.00  0.00    +0.001 A 
ATOM     18  C   UNL     1       0.994  -5.963  -5.393  0.00  0.00    +0.004 A 
ATOM     19  C   UNL     1       1.318  -6.059  -4.053  0.00  0.00    +0.046 A 
ATOM     20  C   UNL     1       1.089  -4.983  -3.207  0.00  0.00    +0.124 A 
BRANCH  15  21
ATOM     21  C   UNL     1       0.271  -2.650  -2.788  0.00  0.00    +0.065 C 
BRANCH  21  23
ATOM     22  C   UNL     1       1.491  -0.541  -2.942  0.00  0.00    +0.004 C 
ATOM     23  C   UNL     1       1.524  -1.822  -2.669  0.00  0.00    -0.030 C 
ENDBRANCH  21  23
ENDBRANCH  15  21
ENDBRANCH  14  20
ENDBRANCH  13  14
ENDBRANCH  12  13
ENDBRANCH  11  12
ENDBRANCH  10  11
ENDBRANCH   1  10
BRANCH   9  24
ATOM     24  C   UNL     1       6.218  -8.088   2.080  0.00  0.00    +0.076 C 
BRANCH  24  25
ATOM     25  C   UNL     1       6.681  -7.250   3.273  0.00  0.00    +0.026 C 
BRANCH  25  26
ATOM     26  C   UNL     1       7.806  -6.312   2.830  0.00  0.00    +0.105 C 
BRANCH  26  27
ATOM     27  N   UNL     1       8.250  -5.509   3.972  0.00  0.00    -0.312 N 
ATOM     28  C   UNL     1       9.240  -4.607   3.818  0.00  0.00    +0.237 C 
ATOM     29  O   UNL     1       9.765  -4.460   2.730  0.00  0.00    -0.271 OA
ATOM     30  H   UNL     1       7.832  -5.626   4.840  0.00  0.00    +0.149 HD
BRANCH  28  31
ATOM     31  C   UNL     1       9.683  -3.804   4.960  0.00  0.00    +0.068 C 
ATOM     32  C   UNL     1      10.576  -2.810   4.778  0.00  0.00    +0.013 C 
BRANCH  32  33
ATOM     33  C   UNL     1      10.914  -2.363   3.417  0.00  0.00    -0.025 A 
ATOM     34  C   UNL     1       9.900  -2.123   2.485  0.00  0.00    +0.008 A 
ATOM     35  C   UNL     1      10.224  -1.705   1.211  0.00  0.00    +0.001 A 
ATOM     36  C   UNL     1      11.549  -1.522   0.855  0.00  0.00    +0.000 A 
ATOM     37  C   UNL     1      12.558  -1.758   1.773  0.00  0.00    +0.001 A 
ATOM     38  C   UNL     1      12.250  -2.171   3.052  0.00  0.00    +0.008 A 
ENDBRANCH  32  33
ENDBRANCH  28  31
ENDBRANCH  26  27
ENDBRANCH  25  26
ENDBRANCH  24  25
ENDBRANCH   9  24
TORSDOF 14
