REMARK  Name = ZINC12905091
REMARK  9 active torsions:
REMARK  status: ('A' for Active; 'I' for Inactive)
REMARK    1  A    between atoms: C_1  and  C_2
REMARK    2  A    between atoms: C_2  and  C_3
REMARK    3  A    between atoms: C_2  and  C_4
REMARK    4  A    between atoms: C_4  and  C_6
REMARK    5  A    between atoms: C_4  and  N_13
REMARK    6  A    between atoms: N_13  and  C_14
REMARK    7  A    between atoms: C_14  and  C_15
REMARK    8  A    between atoms: N_17  and  C_18
REMARK    9  A    between atoms: C_21  and  C_25
REMARK                            x       y       z     vdW  Elec       q    Type
REMARK                         _______ _______ _______ _____ _____    ______ ____
ROOT
ATOM      1  C   UNL     1      -2.668   1.098  -1.177  0.00  0.00    +0.178 C 
ENDROOT
BRANCH   1   2
ATOM      2  C   UNL     1      -3.232   1.507  -2.513  0.00  0.00    +0.231 C 
ATOM      3  O   UNL     1      -3.217   0.727  -3.442  0.00  0.00    -0.274 OA
ATOM      4  N   UNL     1      -3.753   2.739  -2.676  0.00  0.00    -0.284 N 
ATOM      5  H   UNL     1      -3.700   3.387  -1.956  0.00  0.00    +0.155 HD
BRANCH   4   6
ATOM      6  C   UNL     1      -4.368   3.083  -3.881  0.00  0.00    +0.035 A 
ATOM      7  C   UNL     1      -5.047   2.114  -4.614  0.00  0.00    +0.024 A 
ATOM      8  C   UNL     1      -5.655   2.448  -5.803  0.00  0.00    +0.022 A 
ATOM      9  C   UNL     1      -5.591   3.763  -6.274  0.00  0.00    +0.070 A 
ATOM     10  C   UNL     1      -4.908   4.734  -5.535  0.00  0.00    +0.060 A 
ATOM     11  C   UNL     1      -4.306   4.393  -4.342  0.00  0.00    +0.044 A 
ATOM     12 CL   UNL     1      -4.824   6.368  -6.114  0.00  0.00    -0.082 Cl
BRANCH   9  13
ATOM     13  C   UNL     1      -6.222   4.114  -7.511  0.00  0.00    +0.101 C 
ATOM     14  N   UNL     1      -6.722   4.392  -8.492  0.00  0.00    -0.191 NA
ENDBRANCH   9  13
ENDBRANCH   4   6
ENDBRANCH   1   2
BRANCH   1  15
ATOM     15  N   UNL     1      -2.165  -0.280  -1.258  0.00  0.00    -0.301 NA
ATOM     16  H   UNL     1      -1.526  -0.387  -2.031  0.00  0.00    +0.123 HD
BRANCH  15  17
ATOM     17  C   UNL     1      -1.535  -0.686   0.006  0.00  0.00    +0.087 C 
BRANCH  17  18
ATOM     18  C   UNL     1      -1.559  -2.188   0.119  0.00  0.00    -0.030 A 
ATOM     19  C   UNL     1      -1.303  -2.969  -0.993  0.00  0.00    +0.006 A 
ATOM     20  C   UNL     1      -1.325  -4.347  -0.890  0.00  0.00    +0.020 A 
ATOM     21  C   UNL     1      -1.602  -4.945   0.326  0.00  0.00    +0.041 A 
ATOM     22  C   UNL     1      -1.858  -4.163   1.438  0.00  0.00    +0.020 A 
ATOM     23  C   UNL     1      -1.830  -2.785   1.335  0.00  0.00    +0.006 A 
ATOM     24 CL   UNL     1      -1.629  -6.676   0.456  0.00  0.00    -0.084 Cl
ENDBRANCH  17  18
BRANCH  17  26
ATOM     25  C   UNL     1       0.564  -0.602   1.357  0.00  0.00    +0.009 C 
ATOM     26  C   UNL     1      -0.087  -0.195   0.034  0.00  0.00    +0.004 C 
ATOM     27  C   UNL     1       0.687  -0.820  -1.129  0.00  0.00    +0.009 C 
ENDBRANCH  17  26
ENDBRANCH  15  17
ENDBRANCH   1  15
TORSDOF 7
