REMARK  Name = ZINC34949109
REMARK  6 active torsions:
REMARK  status: ('A' for Active; 'I' for Inactive)
REMARK    1  A    between atoms: C_4  and  N_7
REMARK    2  A    between atoms: N_7  and  C_8
REMARK    3  A    between atoms: C_8  and  C_9
REMARK    4  A    between atoms: C_9  and  N_10
REMARK    5  A    between atoms: C_11  and  C_13
REMARK    6  A    between atoms: N_22  and  C_23
REMARK                            x       y       z     vdW  Elec       q    Type
REMARK                         _______ _______ _______ _____ _____    ______ ____
ROOT
ATOM      1  N   UNL     1       3.712  -0.780   0.400  0.00  0.00    -0.254 N 
ATOM      2  C   UNL     1       4.826  -0.044   0.213  0.00  0.00    +0.311 C 
ATOM      3  O   UNL     1       4.820   1.143   0.477  0.00  0.00    -0.252 OA
ATOM      4  N   UNL     1       5.945  -0.623  -0.265  0.00  0.00    -0.269 N 
ATOM      5  H   UNL     1       5.914  -1.532  -0.603  0.00  0.00    +0.156 HD
ENDROOT
BRANCH   4   6
ATOM      6  C   UNL     1       7.151   0.087  -0.273  0.00  0.00    +0.035 A 
ATOM      7  C   UNL     1       7.141   1.476  -0.260  0.00  0.00    +0.025 A 
ATOM      8  C   UNL     1       8.333   2.174  -0.269  0.00  0.00    +0.022 A 
ATOM      9  C   UNL     1       9.536   1.491  -0.290  0.00  0.00    +0.041 A 
ATOM     10  C   UNL     1       9.549   0.107  -0.303  0.00  0.00    +0.022 A 
ATOM     11  C   UNL     1       8.360  -0.596  -0.289  0.00  0.00    +0.025 A 
ATOM     12 CL   UNL     1      11.032   2.371  -0.301  0.00  0.00    -0.084 Cl
ENDBRANCH   4   6
BRANCH   1  16
ATOM     13  C   UNL     1       0.134   1.081   1.441  0.00  0.00    +0.000 A 
ATOM     14  C   UNL     1       0.715   0.171   2.305  0.00  0.00    +0.002 A 
ATOM     15  C   UNL     1       1.901  -0.448   1.963  0.00  0.00    +0.023 A 
ATOM     16  C   UNL     1       2.510  -0.155   0.749  0.00  0.00    +0.038 A 
ATOM     17  C   UNL     1       1.924   0.759  -0.116  0.00  0.00    +0.023 A 
ATOM     18  C   UNL     1       0.738   1.375   0.232  0.00  0.00    +0.002 A 
ENDBRANCH   1  16
BRANCH   1  19
ATOM     19  C   UNL     1       3.761  -2.235   0.236  0.00  0.00    +0.134 C 
BRANCH  19  20
ATOM     20  C   UNL     1       3.448  -2.596  -1.217  0.00  0.00    +0.124 C 
BRANCH  20  21
ATOM     21  N   UNL     1       3.497  -4.051  -1.381  0.00  0.00    -0.310 N 
ATOM     22  C   UNL     1       3.252  -4.602  -2.586  0.00  0.00    +0.244 C 
ATOM     23  O   UNL     1       2.990  -3.892  -3.538  0.00  0.00    -0.270 OA
ATOM     24  H   UNL     1       3.705  -4.618  -0.622  0.00  0.00    +0.149 HD
BRANCH  22  25
ATOM     25  C   UNL     1       3.301  -6.069  -2.751  0.00  0.00    +0.037 A 
ATOM     26  C   UNL     1       3.595  -6.888  -1.658  0.00  0.00    +0.016 A 
ATOM     27  C   UNL     1       3.639  -8.256  -1.818  0.00  0.00    +0.039 A 
ATOM     28  C   UNL     1       3.393  -8.820  -3.060  0.00  0.00    +0.123 A 
ATOM     29  C   UNL     1       3.101  -8.012  -4.149  0.00  0.00    +0.039 A 
ATOM     30  C   UNL     1       3.047  -6.643  -3.999  0.00  0.00    +0.016 A 
ATOM     31  F   UNL     1       3.439 -10.162  -3.211  0.00  0.00    -0.205 F 
ENDBRANCH  22  25
ENDBRANCH  20  21
ENDBRANCH  19  20
ENDBRANCH   1  19
TORSDOF 6
