REMARK  Name = ZINC10121042
REMARK  13 active torsions:
REMARK  status: ('A' for Active; 'I' for Inactive)
REMARK    1  A    between atoms: C_1  and  C_2
REMARK    2  A    between atoms: C_2  and  C_3
REMARK    3  A    between atoms: C_3  and  C_5
REMARK    4  A    between atoms: C_3  and  C_6
REMARK    5  A    between atoms: C_11  and  O_12
REMARK    6  A    between atoms: O_12  and  C_13
REMARK    7  A    between atoms: C_13  and  C_15
REMARK    8  A    between atoms: C_13  and  C_16
REMARK    9  A    between atoms: N_18  and  C_19
REMARK   10  A    between atoms: C_22  and  O_25
REMARK   11  A    between atoms: O_25  and  C_26
REMARK   12  A    between atoms: C_26  and  C_27
REMARK   13  A    between atoms: C_27  and  C_28
REMARK                            x       y       z     vdW  Elec       q    Type
REMARK                         _______ _______ _______ _____ _____    ______ ____
ROOT
ATOM      1  C   UNL     1       7.069  -3.049  -1.443  0.00  0.00    +0.258 C 
ATOM      2  O   UNL     1       8.249  -3.009  -1.166  0.00  0.00    -0.271 OA
ATOM      3  N   UNL     1       6.611  -2.407  -2.536  0.00  0.00    -0.282 N 
ATOM      4  H   UNL     1       5.659  -2.374  -2.716  0.00  0.00    +0.155 HD
ENDROOT
BRANCH   3   5
ATOM      5  C   UNL     1       7.512  -1.786  -3.412  0.00  0.00    +0.034 A 
ATOM      6  C   UNL     1       7.145  -0.623  -4.076  0.00  0.00    +0.027 A 
ATOM      7  C   UNL     1       8.034  -0.012  -4.939  0.00  0.00    +0.047 A 
ATOM      8  C   UNL     1       9.291  -0.560  -5.143  0.00  0.00    +0.121 A 
ATOM      9  C   UNL     1       9.658  -1.722  -4.481  0.00  0.00    +0.047 A 
ATOM     10  C   UNL     1       8.773  -2.331  -3.613  0.00  0.00    +0.027 A 
BRANCH   8  11
ATOM     11  O   UNL     1      10.165   0.042  -5.993  0.00  0.00    -0.492 OA
BRANCH  11  12
ATOM     12  C   UNL     1      11.443  -0.577  -6.156  0.00  0.00    +0.229 C 
BRANCH  12  13
ATOM     13  C   UNL     1      12.282   0.237  -7.142  0.00  0.00    +0.044 C 
BRANCH  13  14
ATOM     14  C   UNL     1      13.650  -0.425  -7.317  0.00  0.00    -0.008 C 
ATOM     15  C   UNL     1      14.415  -0.371  -5.993  0.00  0.00    +0.003 C 
ATOM     16  C   UNL     1      15.783  -1.034  -6.168  0.00  0.00    +0.000 C 
ATOM     17  C   UNL     1      16.576  -0.292  -7.246  0.00  0.00    +0.000 C 
ATOM     18  C   UNL     1      15.810  -0.346  -8.569  0.00  0.00    +0.000 C 
ATOM     19  C   UNL     1      14.442   0.317  -8.395  0.00  0.00    +0.003 C 
ENDBRANCH  13  14
ENDBRANCH  12  13
ENDBRANCH  11  12
ENDBRANCH   8  11
ENDBRANCH   3   5
BRANCH   1  20
ATOM     20  C   UNL     1       6.114  -3.816  -0.565  0.00  0.00    +0.256 C 
ATOM     21  C   UNL     1       5.533  -4.993  -1.350  0.00  0.00    +0.062 C 
BRANCH  20  22
ATOM     22  O   UNL     1       6.811  -4.306   0.583  0.00  0.00    -0.480 OA
BRANCH  22  28
ATOM     23  C   UNL     1       6.694  -4.924   2.877  0.00  0.00    -0.003 A 
ATOM     24  C   UNL     1       5.940  -5.170   4.008  0.00  0.00    +0.007 A 
ATOM     25  C   UNL     1       4.563  -5.052   3.961  0.00  0.00    +0.001 A 
ATOM     26  C   UNL     1       3.938  -4.688   2.782  0.00  0.00    +0.004 A 
ATOM     27  C   UNL     1       4.688  -4.441   1.649  0.00  0.00    +0.046 A 
ATOM     28  C   UNL     1       6.070  -4.553   1.695  0.00  0.00    +0.125 A 
BRANCH  23  29
ATOM     29  C   UNL     1       8.195  -5.054   2.929  0.00  0.00    +0.019 C 
ATOM     30  C   UNL     1       8.755  -4.083   3.970  0.00  0.00    +0.012 C 
BRANCH  29  32
ATOM     31  C   UNL     1      10.090  -6.651   3.244  0.00  0.00    +0.004 C 
ATOM     32  C   UNL     1       8.570  -6.486   3.313  0.00  0.00    +0.004 C 
ENDBRANCH  29  32
ENDBRANCH  23  29
ENDBRANCH  22  28
ENDBRANCH  20  22
ENDBRANCH   1  20
TORSDOF 10
