REMARK  Name = ZINC13633588
REMARK  6 active torsions:
REMARK  status: ('A' for Active; 'I' for Inactive)
REMARK    1  A    between atoms: C_1  and  C_2
REMARK    2  A    between atoms: C_6  and  N_9
REMARK    3  A    between atoms: C_7  and  C_8
REMARK    4  A    between atoms: N_12  and  C_13
REMARK    5  A    between atoms: C_15  and  C_27
REMARK    6  A    between atoms: N_17  and  C_20
REMARK                            x       y       z     vdW  Elec       q    Type
REMARK                         _______ _______ _______ _____ _____    ______ ____
ROOT
ATOM      1  C   UNL     1      -5.953   3.115  -0.233  0.00  0.00    +0.091 C 
ATOM      2  C   UNL     1      -7.141   3.792  -0.424  0.00  0.00    +0.075 C 
ATOM      3  C   UNL     1      -7.349   5.249  -0.448  0.00  0.00    +0.070 C 
ATOM      4  N   UNL     1      -8.612   5.461  -0.656  0.00  0.00    -0.176 NA
ATOM      5  N   UNL     1      -9.314   4.263  -0.782  0.00  0.00    -0.156 N 
ATOM      6  C   UNL     1      -8.473   3.216  -0.656  0.00  0.00    +0.273 C 
ATOM      7  O   UNL     1      -8.761   2.033  -0.719  0.00  0.00    -0.268 OA
ATOM      8  C   UNL     1      -6.287   6.303  -0.264  0.00  0.00    +0.068 C 
ENDROOT
BRANCH   5   9
ATOM      9  C   UNL     1     -10.693   4.162  -1.012  0.00  0.00    +0.060 A 
ATOM     10  C   UNL     1     -11.289   2.913  -1.127  0.00  0.00    +0.026 A 
ATOM     11  C   UNL     1     -12.648   2.816  -1.349  0.00  0.00    +0.017 A 
ATOM     12  C   UNL     1     -13.415   3.962  -1.467  0.00  0.00    +0.018 A 
ATOM     13  C   UNL     1     -12.822   5.207  -1.358  0.00  0.00    +0.017 A 
ATOM     14  C   UNL     1     -11.464   5.310  -1.131  0.00  0.00    +0.026 A 
ATOM     15 BR   UNL     1     -15.275   3.825  -1.777  0.00  0.00    -0.050 Br
ENDBRANCH   5   9
BRANCH   1  19
ATOM     16  N   UNL     1      -2.455   3.823   0.037  0.00  0.00    -0.269 N 
ATOM     17  C   UNL     1      -3.614   3.140  -0.054  0.00  0.00    +0.308 C 
ATOM     18  O   UNL     1      -3.604   1.924  -0.059  0.00  0.00    -0.252 OA
ATOM     19  N   UNL     1      -4.783   3.804  -0.140  0.00  0.00    -0.275 N 
ATOM     20  H   UNL     1      -2.467   4.789   0.124  0.00  0.00    +0.156 HD
ATOM     21  H   UNL     1      -4.791   4.774  -0.136  0.00  0.00    +0.156 HD
BRANCH  16  27
ATOM     22  C   UNL     1       2.321   3.634   1.189  0.00  0.00    +0.044 C 
ATOM     23  C   UNL     1       1.096   3.024   0.558  0.00  0.00    -0.046 A 
ATOM     24  C   UNL     1       1.177   1.785  -0.051  0.00  0.00    +0.004 A 
ATOM     25  C   UNL     1       0.056   1.221  -0.631  0.00  0.00    +0.002 A 
ATOM     26  C   UNL     1      -1.149   1.897  -0.608  0.00  0.00    +0.023 A 
ATOM     27  C   UNL     1      -1.235   3.138   0.007  0.00  0.00    +0.038 A 
ATOM     28  C   UNL     1      -0.107   3.702   0.589  0.00  0.00    -0.026 A 
ATOM     29  C   UNL     1      -0.195   5.052   1.253  0.00  0.00    +0.046 C 
ENDBRANCH  16  27
ENDBRANCH   1  19
TORSDOF 3
