REMARK  Name = ZINC40455500
REMARK  9 active torsions:
REMARK  status: ('A' for Active; 'I' for Inactive)
REMARK    1  A    between atoms: C_1  and  C_2
REMARK    2  A    between atoms: C_2  and  C_3
REMARK    3  A    between atoms: C_3  and  C_5
REMARK    4  A    between atoms: C_3  and  N_6
REMARK    5  A    between atoms: C_7  and  C_9
REMARK    6  A    between atoms: C_18  and  N_21
REMARK    7  A    between atoms: N_24  and  C_25
REMARK    8  A    between atoms: C_28  and  C_32
REMARK    9  A    between atoms: C_30  and  C_31
REMARK                            x       y       z     vdW  Elec       q    Type
REMARK                         _______ _______ _______ _____ _____    ______ ____
ROOT
ATOM      1  C   UNL     1      -1.728  -0.355   5.978  0.00  0.00    +0.078 C 
ATOM      2  C   UNL     1      -0.902  -0.347   7.266  0.00  0.00    +0.031 C 
ATOM      3  C   UNL     1       0.057   0.847   7.245  0.00  0.00    +0.107 C 
ATOM      4  N   UNL     1      -0.719   2.074   7.018  0.00  0.00    -0.317 N 
ATOM      5  C   UNL     1      -1.616   2.137   5.856  0.00  0.00    +0.107 C 
ATOM      6  C   UNL     1      -2.557   0.929   5.893  0.00  0.00    +0.031 C 
ATOM      7  C   UNL     1      -0.607   3.155   7.888  0.00  0.00    +0.099 A 
ATOM      8  C   UNL     1      -1.269   4.344   7.596  0.00  0.00    +0.043 A 
ATOM      9  C   UNL     1      -1.152   5.411   8.467  0.00  0.00    +0.028 A 
ATOM     10  C   UNL     1      -0.369   5.253   9.610  0.00  0.00    +0.051 A 
ATOM     11  C   UNL     1       0.261   4.040   9.835  0.00  0.00    +0.107 A 
ATOM     12  N   UNL     1       0.123   3.039   8.985  0.00  0.00    -0.348 N 
ATOM     13  H   UNL     1       0.572   2.199   9.168  0.00  0.00    +0.167 HD
ENDROOT
BRANCH  10  14
ATOM     14  N   UNL     1      -0.222   6.309  10.520  0.00  0.00    -0.268 N 
ATOM     15  C   UNL     1      -1.248   7.153  10.746  0.00  0.00    +0.308 C 
ATOM     16  O   UNL     1      -2.332   6.942  10.236  0.00  0.00    -0.252 OA
ATOM     17  N   UNL     1      -1.075   8.229  11.539  0.00  0.00    -0.269 N 
ATOM     18  H   UNL     1       0.619   6.433  10.987  0.00  0.00    +0.156 HD
ATOM     19  H   UNL     1      -0.237   8.352  12.013  0.00  0.00    +0.156 HD
BRANCH  17  20
ATOM     20  C   UNL     1      -2.102   9.169  11.678  0.00  0.00    +0.038 A 
ATOM     21  C   UNL     1      -3.055   9.312  10.677  0.00  0.00    +0.024 A 
ATOM     22  C   UNL     1      -4.068  10.239  10.818  0.00  0.00    +0.005 A 
ATOM     23  C   UNL     1      -4.134  11.026  11.953  0.00  0.00    -0.050 A 
ATOM     24  C   UNL     1      -3.187  10.887  12.951  0.00  0.00    +0.008 A 
ATOM     25  C   UNL     1      -2.175   9.957  12.819  0.00  0.00    -0.029 A 
ATOM     26  C   UNL     1      -1.146   9.801  13.910  0.00  0.00    +0.045 C 
ATOM     27  C   UNL     1      -5.241  12.038  12.103  0.00  0.00    +0.044 C 
ENDBRANCH  17  20
ENDBRANCH  10  14
BRANCH   1  29
ATOM     28  N   UNL     1      -2.139  -2.793   6.049  0.00  0.00    -0.313 N 
ATOM     29  C   UNL     1      -2.650  -1.548   5.980  0.00  0.00    +0.216 C 
ATOM     30  O   UNL     1      -3.850  -1.387   5.919  0.00  0.00    -0.276 OA
ATOM     31  H   UNL     1      -1.179  -2.922   6.097  0.00  0.00    +0.149 HD
BRANCH  28  32
ATOM     32  C   UNL     1      -3.035  -3.953   6.051  0.00  0.00    +0.070 C 
ATOM     33  C   UNL     1      -3.381  -4.332   4.609  0.00  0.00    +0.028 C 
BRANCH  32  35
ATOM     34  C   UNL     1      -2.108  -4.798   8.211  0.00  0.00    +0.005 C 
ATOM     35  C   UNL     1      -2.342  -5.132   6.736  0.00  0.00    +0.018 C 
ENDBRANCH  32  35
ENDBRANCH  28  32
ENDBRANCH   1  29
TORSDOF 5
