REMARK  Name = ZINC15858798
REMARK  6 active torsions:
REMARK  status: ('A' for Active; 'I' for Inactive)
REMARK    1  A    between atoms: C_1  and  C_2
REMARK    2  A    between atoms: C_7  and  C_8
REMARK    3  A    between atoms: C_20  and  C_22
REMARK    4  A    between atoms: C_27  and  C_28
REMARK    5  A    between atoms: N_29  and  C_36
REMARK    6  A    between atoms: N_32  and  C_35
REMARK                            x       y       z     vdW  Elec       q    Type
REMARK                         _______ _______ _______ _____ _____    ______ ____
ROOT
ATOM      1  C   UNL     1      -0.222   6.234  -3.596  0.00  0.00    +0.069 A 
ATOM      2  C   UNL     1       1.146   6.113  -3.641  0.00  0.00    +0.089 A 
ATOM      3  C   UNL     1       1.575   5.652  -2.296  0.00  0.00    +0.084 A 
ATOM      4  C   UNL     1       0.476   5.533  -1.569  0.00  0.00    +0.094 A 
ATOM      5  N   UNL     1      -0.620   5.899  -2.342  0.00  0.00    -0.303 N 
ATOM      6  C   UNL     1      -1.904   5.899  -1.780  0.00  0.00    +0.089 A 
ATOM      7  C   UNL     1      -3.038   6.034  -2.557  0.00  0.00    +0.030 A 
ATOM      8  C   UNL     1      -4.286   6.002  -1.961  0.00  0.00    +0.002 A 
ATOM      9  C   UNL     1      -4.394   5.834  -0.592  0.00  0.00    +0.004 A 
ATOM     10  C   UNL     1      -3.262   5.709   0.190  0.00  0.00    +0.048 A 
ATOM     11  C   UNL     1      -2.005   5.752  -0.395  0.00  0.00    +0.146 A 
ATOM     12  O   UNL     1      -0.893   5.692   0.382  0.00  0.00    -0.476 OA
ATOM     13  C   UNL     1       0.296   5.088  -0.135  0.00  0.00    +0.253 C 
ATOM     14  N   UNL     1       2.942   5.445  -2.058  0.00  0.00    -0.294 N 
ATOM     15  C   UNL     1       3.792   5.679  -3.082  0.00  0.00    +0.332 A 
ATOM     16  O   UNL     1       4.976   5.501  -2.874  0.00  0.00    -0.246 OA
ATOM     17  N   UNL     1       3.440   6.092  -4.304  0.00  0.00    -0.263 N 
ATOM     18  C   UNL     1       2.158   6.333  -4.679  0.00  0.00    +0.266 A 
ATOM     19  O   UNL     1       1.868   6.706  -5.800  0.00  0.00    -0.267 OA
ATOM     20  C   UNL     1       4.500   6.294  -5.295  0.00  0.00    +0.157 C 
ATOM     21  C   UNL     1       3.428   4.992  -0.752  0.00  0.00    +0.154 C 
ENDROOT
BRANCH   1  28
ATOM     22  C   UNL     1      -1.306   4.237  -5.388  0.00  0.00    +0.044 C 
ATOM     23  C   UNL     1      -1.628   5.697  -5.580  0.00  0.00    -0.041 A 
ATOM     24  C   UNL     1      -2.446   6.094  -6.617  0.00  0.00    +0.004 A 
ATOM     25  C   UNL     1      -2.743   7.433  -6.794  0.00  0.00    +0.000 A 
ATOM     26  C   UNL     1      -2.222   8.384  -5.934  0.00  0.00    +0.001 A 
ATOM     27  C   UNL     1      -1.407   8.001  -4.890  0.00  0.00    +0.010 A 
ATOM     28  C   UNL     1      -1.098   6.651  -4.708  0.00  0.00    +0.003 A 
ENDBRANCH   1  28
BRANCH  13  29
ATOM     29  C   UNL     1       0.164   3.587  -0.084  0.00  0.00    +0.002 A 
ATOM     30  C   UNL     1      -0.346   2.901  -1.170  0.00  0.00    +0.008 A 
ATOM     31  C   UNL     1      -0.464   1.524  -1.125  0.00  0.00    +0.000 A 
ATOM     32  C   UNL     1      -0.080   0.835   0.010  0.00  0.00    +0.000 A 
ATOM     33  C   UNL     1       0.432   1.521   1.095  0.00  0.00    +0.004 A 
ATOM     34  C   UNL     1       0.553   2.897   1.048  0.00  0.00    -0.043 A 
ATOM     35  C   UNL     1       1.110   3.645   2.232  0.00  0.00    +0.044 C 
ENDBRANCH  13  29
TORSDOF 2
