REMARK  Name = ZINC09349178
REMARK  7 active torsions:
REMARK  status: ('A' for Active; 'I' for Inactive)
REMARK    1  A    between atoms: C_6  and  C_7
REMARK    2  A    between atoms: C_7  and  C_9
REMARK    3  A    between atoms: C_7  and  N_28
REMARK    4  A    between atoms: C_9  and  C_10
REMARK    5  A    between atoms: N_12  and  C_13
REMARK    6  A    between atoms: C_16  and  S_19
REMARK    7  A    between atoms: S_19  and  N_22
REMARK                            x       y       z     vdW  Elec       q    Type
REMARK                         _______ _______ _______ _____ _____    ______ ____
ROOT
ATOM      1  C   UNL     1      -2.499   1.356   2.589  0.00  0.00    +0.219 C 
ATOM      2  O   UNL     1      -2.432   2.549   2.381  0.00  0.00    -0.275 OA
ATOM      3  N   UNL     1      -2.539   0.894   3.854  0.00  0.00    -0.285 N 
ATOM      4  H   UNL     1      -2.658  -0.054   4.021  0.00  0.00    +0.155 HD
ENDROOT
BRANCH   3   5
ATOM      5  C   UNL     1      -2.408   1.782   4.928  0.00  0.00    +0.033 A 
ATOM      6  C   UNL     1      -1.749   1.384   6.084  0.00  0.00    +0.025 A 
ATOM      7  C   UNL     1      -1.617   2.264   7.140  0.00  0.00    +0.030 A 
ATOM      8  C   UNL     1      -2.150   3.537   7.051  0.00  0.00    +0.109 A 
ATOM      9  C   UNL     1      -2.812   3.934   5.904  0.00  0.00    +0.030 A 
ATOM     10  C   UNL     1      -2.942   3.061   4.842  0.00  0.00    +0.025 A 
BRANCH   8  11
ATOM     11  S   UNL     1      -1.986   4.655   8.403  0.00  0.00    +0.074 S 
ATOM     12  O   UNL     1      -0.853   4.229   9.147  0.00  0.00    -0.150 OA
ATOM     13  O   UNL     1      -2.095   5.964   7.863  0.00  0.00    -0.150 OA
BRANCH  11  14
ATOM     14  N   UNL     1      -3.304   4.436   9.382  0.00  0.00    -0.194 N 
ATOM     15  C   UNL     1      -3.488   3.228  10.038  0.00  0.00    +0.177 A 
ATOM     16  N   UNL     1      -2.736   2.145  10.005  0.00  0.00    -0.232 NA
ATOM     17  C   UNL     1      -3.057   1.070  10.701  0.00  0.00    +0.120 A 
ATOM     18  C   UNL     1      -4.187   1.097  11.446  0.00  0.00    +0.068 A 
ATOM     19  S   UNL     1      -4.770   2.751  11.107  0.00  0.00    -0.059 S 
ATOM     20  H   UNL     1      -3.948   5.152   9.496  0.00  0.00    +0.176 HD
ENDBRANCH  11  14
ENDBRANCH   8  11
ENDBRANCH   3   5
BRANCH   1  21
ATOM     21  C   UNL     1      -2.537   0.391   1.432  0.00  0.00    +0.123 C 
BRANCH  21  22
ATOM     22  C   UNL     1      -2.480   1.169   0.116  0.00  0.00    +0.113 C 
BRANCH  22  28
ATOM     23  C   UNL     1      -1.593  -0.604  -1.411  0.00  0.00    +0.007 A 
ATOM     24  C   UNL     1      -1.742  -1.483  -2.467  0.00  0.00    +0.020 A 
ATOM     25  C   UNL     1      -2.939  -1.534  -3.160  0.00  0.00    +0.041 A 
ATOM     26  C   UNL     1      -3.987  -0.710  -2.790  0.00  0.00    +0.020 A 
ATOM     27  C   UNL     1      -3.838   0.164  -1.730  0.00  0.00    +0.007 A 
ATOM     28  C   UNL     1      -2.642   0.215  -1.039  0.00  0.00    -0.027 A 
ATOM     29 CL   UNL     1      -3.125  -2.632  -4.492  0.00  0.00    -0.084 Cl
ENDBRANCH  22  28
BRANCH  22  30
ATOM     30  N   UNL     1      -1.188   1.851   0.009  0.00  0.00    -0.292 N 
ATOM     31  C   UNL     1      -1.092   3.009  -0.675  0.00  0.00    +0.298 C 
ATOM     32  O   UNL     1      -2.055   3.440  -1.280  0.00  0.00    -0.253 OA
ATOM     33  N   UNL     1       0.070   3.691  -0.685  0.00  0.00    -0.313 N 
ATOM     34  H   UNL     1      -0.401   1.470   0.429  0.00  0.00    +0.151 HD
ATOM     35  H   UNL     1       0.138   4.526  -1.174  0.00  0.00    +0.146 HD
ATOM     36  H   UNL     1       0.839   3.347  -0.203  0.00  0.00    +0.146 HD
ENDBRANCH  22  30
ENDBRANCH  21  22
ENDBRANCH   1  21
TORSDOF 7
