REMARK  Name = ZINC28912081
REMARK  6 active torsions:
REMARK  status: ('A' for Active; 'I' for Inactive)
REMARK    1  A    between atoms: C_5  and  N_7
REMARK    2  A    between atoms: C_8  and  C_10
REMARK    3  A    between atoms: C_10  and  C_22
REMARK    4  A    between atoms: C_11  and  C_12
REMARK    5  A    between atoms: C_16  and  N_18
REMARK    6  A    between atoms: N_24  and  C_25
REMARK                            x       y       z     vdW  Elec       q    Type
REMARK                         _______ _______ _______ _____ _____    ______ ____
ROOT
ATOM      1  C   UNL     1       1.809   2.292  -0.150  0.00  0.00    +0.099 C 
ATOM      2  C   UNL     1       3.178   2.232   0.003  0.00  0.00    +0.026 C 
ENDROOT
BRANCH   2   3
ATOM      3  C   UNL     1       3.905   3.382   0.543  0.00  0.00    -0.022 A 
ATOM      4  C   UNL     1       3.445   4.684   0.299  0.00  0.00    +0.012 A 
ATOM      5  C   UNL     1       4.125   5.753   0.811  0.00  0.00    +0.054 A 
ATOM      6  C   UNL     1       5.278   5.551   1.563  0.00  0.00    +0.209 A 
ATOM      7  C   UNL     1       5.742   4.263   1.804  0.00  0.00    +0.173 A 
ATOM      8  C   UNL     1       5.068   3.186   1.302  0.00  0.00    +0.044 A 
ATOM      9  O   UNL     1       5.952   6.617   2.064  0.00  0.00    -0.285 OA
BRANCH   7  10
ATOM     10  N   UNL     1       6.970   4.058   2.605  0.00  0.00    +0.060 N 
ATOM     11  O   UNL     1       7.378   2.929   2.817  0.00  0.00    -0.126 OA
ATOM     12  O   UNL     1       7.572   5.017   3.053  0.00  0.00    -0.126 OA
ENDBRANCH   7  10
ENDBRANCH   2   3
BRANCH   1  14
ATOM     13  N   UNL     1      -0.249   1.212  -0.897  0.00  0.00    -0.280 N 
ATOM     14  C   UNL     1       1.097   1.204  -0.836  0.00  0.00    +0.253 C 
ATOM     15  O   UNL     1       1.724   0.298  -1.352  0.00  0.00    -0.270 OA
ATOM     16  H   UNL     1      -0.812   2.074  -0.509  0.00  0.00    +0.155 HD
BRANCH  13  21
ATOM     17  C   UNL     1      -0.985  -2.185  -2.097  0.00  0.00    +0.002 A 
ATOM     18  C   UNL     1      -2.279  -2.026  -2.557  0.00  0.00    +0.002 A 
ATOM     19  C   UNL     1      -2.902  -0.795  -2.467  0.00  0.00    +0.022 A 
ATOM     20  C   UNL     1      -2.232   0.281  -1.917  0.00  0.00    +0.062 A 
ATOM     21  C   UNL     1      -0.931   0.125  -1.454  0.00  0.00    +0.052 A 
ATOM     22  C   UNL     1      -0.307  -1.112  -1.550  0.00  0.00    +0.025 A 
ATOM     23 CL   UNL     1      -3.014   1.827  -1.806  0.00  0.00    -0.082 Cl
ENDBRANCH  13  21
ENDBRANCH   1  14
BRANCH   1  24
ATOM     24  C   UNL     1       1.060   3.445   0.373  0.00  0.00    +0.253 C 
ATOM     25  O   UNL     1       0.556   4.242  -0.395  0.00  0.00    -0.270 OA
ATOM     26  N   UNL     1       0.933   3.618   1.704  0.00  0.00    -0.280 N 
ATOM     27  H   UNL     1       1.461   2.948   2.398  0.00  0.00    +0.155 HD
BRANCH  26  28
ATOM     28  C   UNL     1       0.129   4.649   2.201  0.00  0.00    +0.052 A 
ATOM     29  C   UNL     1      -0.854   5.214   1.399  0.00  0.00    +0.025 A 
ATOM     30  C   UNL     1      -1.648   6.229   1.894  0.00  0.00    +0.002 A 
ATOM     31  C   UNL     1      -1.460   6.691   3.184  0.00  0.00    +0.002 A 
ATOM     32  C   UNL     1      -0.479   6.135   3.984  0.00  0.00    +0.022 A 
ATOM     33  C   UNL     1       0.317   5.115   3.497  0.00  0.00    +0.062 A 
ATOM     34 CL   UNL     1       1.548   4.418   4.502  0.00  0.00    -0.082 Cl
ENDBRANCH  26  28
ENDBRANCH   1  24
TORSDOF 6
