REMARK  Name = ZINC38989724
REMARK  9 active torsions:
REMARK  status: ('A' for Active; 'I' for Inactive)
REMARK    1  A    between atoms: C_1  and  O_2
REMARK    2  A    between atoms: O_2  and  C_3
REMARK    3  A    between atoms: C_6  and  N_9
REMARK    4  A    between atoms: C_10  and  C_12
REMARK    5  A    between atoms: C_12  and  S_13
REMARK    6  A    between atoms: S_13  and  C_14
REMARK    7  A    between atoms: C_18  and  C_22
REMARK    8  A    between atoms: N_20  and  N_21
REMARK    9  A    between atoms: C_25  and  C_28
REMARK                            x       y       z     vdW  Elec       q    Type
REMARK                         _______ _______ _______ _____ _____    ______ ____
ROOT
ATOM      1  C   UNL     1       4.320  -6.890  -6.601  0.00  0.00    +0.214 C 
ATOM      2  N   UNL     1       3.687  -6.468  -7.871  0.00  0.00    -0.228 NA
ATOM      3  N   UNL     1       4.418  -5.252  -8.260  0.00  0.00    -0.234 NA
ATOM      4  C   UNL     1       5.817  -5.560  -7.865  0.00  0.00    +0.185 C 
ATOM      5  N   UNL     1       5.680  -6.313  -6.595  0.00  0.00    -0.197 NA
ATOM      6  H   UNL     1       2.706  -6.274  -7.739  0.00  0.00    +0.143 HD
ATOM      7  H   UNL     1       4.071  -4.446  -7.761  0.00  0.00    +0.143 HD
ENDROOT
BRANCH   4   8
ATOM      8  C   UNL     1       6.608  -4.269  -7.643  0.00  0.00    +0.187 C 
ATOM      9  C   UNL     1       6.617  -3.423  -8.903  0.00  0.00    +0.034 C 
ATOM     10  C   UNL     1       7.922  -3.341  -9.227  0.00  0.00    +0.091 C 
ATOM     11  N   UNL     1       8.678  -4.024  -8.329  0.00  0.00    -0.154 NA
ATOM     12  N   UNL     1       8.033  -4.564  -7.422  0.00  0.00    -0.176 NA
BRANCH  10  13
ATOM     13  C   UNL     1       8.458  -2.608 -10.401  0.00  0.00    +0.002 A 
ATOM     14  C   UNL     1       7.592  -1.934 -11.260  0.00  0.00    +0.010 A 
ATOM     15  C   UNL     1       8.096  -1.254 -12.350  0.00  0.00    +0.001 A 
ATOM     16  C   UNL     1       9.458  -1.240 -12.590  0.00  0.00    +0.000 A 
ATOM     17  C   UNL     1      10.322  -1.908 -11.741  0.00  0.00    +0.001 A 
ATOM     18  C   UNL     1       9.829  -2.587 -10.645  0.00  0.00    +0.010 A 
ENDBRANCH  10  13
ENDBRANCH   4   8
BRANCH   5  19
ATOM     19  N   UNL     1       6.688  -7.356  -6.496  0.00  0.00    -0.264 NA
ATOM     20  H   UNL     1       6.573  -7.891  -5.648  0.00  0.00    +0.137 HD
ATOM     21  H   UNL     1       6.669  -7.957  -7.307  0.00  0.00    +0.137 HD
ENDBRANCH   5  19
BRANCH   1  22
ATOM     22  S   UNL     1       3.370  -6.255  -5.192  0.00  0.00    -0.115 S 
BRANCH  22  23
ATOM     23  C   UNL     1       3.363  -4.458  -5.442  0.00  0.00    +0.168 C 
BRANCH  23  25
ATOM     24  N   UNL     1       2.458  -2.458  -4.302  0.00  0.00    -0.285 N 
ATOM     25  C   UNL     1       2.596  -3.798  -4.325  0.00  0.00    +0.227 C 
ATOM     26  O   UNL     1       2.102  -4.474  -3.447  0.00  0.00    -0.275 OA
ATOM     27  H   UNL     1       2.786  -1.924  -5.042  0.00  0.00    +0.155 HD
BRANCH  24  31
ATOM     28  C   UNL     1       0.623  -0.606  -1.048  0.00  0.00    +0.120 A 
ATOM     29  C   UNL     1       1.376  -1.755  -0.857  0.00  0.00    +0.047 A 
ATOM     30  C   UNL     1       1.984  -2.369  -1.935  0.00  0.00    +0.027 A 
ATOM     31  C   UNL     1       1.841  -1.835  -3.208  0.00  0.00    +0.034 A 
ATOM     32  C   UNL     1       1.087  -0.685  -3.398  0.00  0.00    +0.027 A 
ATOM     33  C   UNL     1       0.475  -0.075  -2.321  0.00  0.00    +0.047 A 
BRANCH  28  35
ATOM     34  C   UNL     1       0.219  -0.601   1.296  0.00  0.00    +0.277 C 
ATOM     35  O   UNL     1       0.025  -0.001   0.013  0.00  0.00    -0.495 OA
ENDBRANCH  28  35
ENDBRANCH  24  31
ENDBRANCH  23  25
ENDBRANCH  22  23
ENDBRANCH   1  22
TORSDOF 8
