REMARK  Name = ZINC39997727
REMARK  10 active torsions:
REMARK  status: ('A' for Active; 'I' for Inactive)
REMARK    1  A    between atoms: C_6  and  C_7
REMARK    2  A    between atoms: C_7  and  S_8
REMARK    3  A    between atoms: S_8  and  C_9
REMARK    4  A    between atoms: C_12  and  N_14
REMARK    5  A    between atoms: C_15  and  C_17
REMARK    6  A    between atoms: C_17  and  C_30
REMARK    7  A    between atoms: C_18  and  C_19
REMARK    8  A    between atoms: C_22  and  O_25
REMARK    9  A    between atoms: O_25  and  C_26
REMARK   10  A    between atoms: C_26  and  C_27
REMARK                            x       y       z     vdW  Elec       q    Type
REMARK                         _______ _______ _______ _____ _____    ______ ____
ROOT
ATOM      1  N   UNL     1      -6.629  -4.308  -1.893  0.00  0.00    -0.180 NA
ATOM      2  C   UNL     1      -7.369  -4.728  -0.892  0.00  0.00    +0.290 C 
ATOM      3  O   UNL     1      -6.875  -4.712   0.368  0.00  0.00    -0.264 OA
ENDROOT
BRANCH   1   7
ATOM      4  C   UNL     1      -2.876  -2.919  -1.586  0.00  0.00    +0.161 A 
ATOM      5  N   UNL     1      -3.510  -3.312  -0.489  0.00  0.00    -0.133 NA
ATOM      6  N   UNL     1      -4.690  -3.757  -0.523  0.00  0.00    -0.120 NA
ATOM      7  C   UNL     1      -5.367  -3.858  -1.664  0.00  0.00    +0.219 A 
ATOM      8  S   UNL     1      -4.145  -3.226  -2.810  0.00  0.00    -0.020 S 
BRANCH   4   9
ATOM      9  S   UNL     1      -1.249  -2.271  -1.781  0.00  0.00    -0.092 S 
BRANCH   9  10
ATOM     10  C   UNL     1      -0.577  -2.257  -0.096  0.00  0.00    +0.111 C 
BRANCH  10  16
ATOM     11  C   UNL     1       1.052  -0.361   0.028  0.00  0.00    +0.007 A 
ATOM     12  C   UNL     1       2.342   0.135   0.005  0.00  0.00    +0.038 A 
ATOM     13  C   UNL     1       3.412  -0.728  -0.166  0.00  0.00    +0.123 A 
ATOM     14  C   UNL     1       3.188  -2.086  -0.314  0.00  0.00    +0.038 A 
ATOM     15  C   UNL     1       1.897  -2.579  -0.291  0.00  0.00    +0.007 A 
ATOM     16  C   UNL     1       0.830  -1.718  -0.120  0.00  0.00    -0.037 A 
ATOM     17  F   UNL     1       4.673  -0.244  -0.188  0.00  0.00    -0.205 F 
ENDBRANCH  10  16
ENDBRANCH   9  10
ENDBRANCH   4   9
ENDBRANCH   1   7
BRANCH   2  18
ATOM     18  C   UNL     1      -8.733  -5.214  -1.139  0.00  0.00    +0.118 C 
ATOM     19  C   UNL     1      -9.509  -5.654  -0.089  0.00  0.00    +0.032 C 
BRANCH  19  20
ATOM     20  C   UNL     1     -10.801  -6.293  -0.351  0.00  0.00    -0.023 A 
ATOM     21  C   UNL     1     -10.974  -7.091  -1.491  0.00  0.00    +0.011 A 
ATOM     22  C   UNL     1     -12.185  -7.687  -1.730  0.00  0.00    +0.046 A 
ATOM     23  C   UNL     1     -13.242  -7.501  -0.845  0.00  0.00    +0.121 A 
ATOM     24  C   UNL     1     -13.077  -6.710   0.287  0.00  0.00    +0.046 A 
ATOM     25  C   UNL     1     -11.868  -6.114   0.541  0.00  0.00    +0.011 A 
BRANCH  23  26
ATOM     26  O   UNL     1     -14.439  -8.093  -1.087  0.00  0.00    -0.483 OA
BRANCH  26  27
ATOM     27  C   UNL     1     -15.481  -7.861  -0.138  0.00  0.00    +0.324 C 
BRANCH  27  28
ATOM     28  C   UNL     1     -16.726  -8.593  -0.570  0.00  0.00    +0.248 C 
ATOM     29  O   UNL     1     -16.721  -9.249  -1.590  0.00  0.00    -0.272 OA
ATOM     30  N   UNL     1     -17.845  -8.518   0.178  0.00  0.00    -0.327 N 
ATOM     31  H   UNL     1     -17.849  -7.994   0.994  0.00  0.00    +0.145 HD
ATOM     32  H   UNL     1     -18.646  -8.990  -0.100  0.00  0.00    +0.145 HD
ENDBRANCH  27  28
ENDBRANCH  26  27
ENDBRANCH  23  26
ENDBRANCH  19  20
BRANCH  18  33
ATOM     33  C   UNL     1      -9.257  -5.230  -2.473  0.00  0.00    +0.105 C 
ATOM     34  N   UNL     1      -9.671  -5.243  -3.530  0.00  0.00    -0.191 NA
ENDBRANCH  18  33
ENDBRANCH   2  18
TORSDOF 10
