REMARK  Name = ZINC36527108
REMARK  19 active torsions:
REMARK  status: ('A' for Active; 'I' for Inactive)
REMARK    1  A    between atoms: C_1  and  C_2
REMARK    2  A    between atoms: C_2  and  C_3
REMARK    3  A    between atoms: C_3  and  C_4
REMARK    4  A    between atoms: C_4  and  C_5
REMARK    5  A    between atoms: C_5  and  C_7
REMARK    6  A    between atoms: C_5  and  C_9
REMARK    7  A    between atoms: C_7  and  C_8
REMARK    8  A    between atoms: N_11  and  C_12
REMARK    9  A    between atoms: N_11  and  C_13
REMARK   10  A    between atoms: C_13  and  C_15
REMARK   11  A    between atoms: C_13  and  C_22
REMARK   12  A    between atoms: N_24  and  C_25
REMARK   13  A    between atoms: C_25  and  C_26
REMARK   14  A    between atoms: C_25  and  C_27
REMARK   15  A    between atoms: C_25  and  C_28
REMARK   16  A    between atoms: C_28  and  C_29
REMARK   17  A    between atoms: C_29  and  C_30
REMARK   18  A    between atoms: C_29  and  C_31
REMARK   19  A    between atoms: C_29  and  C_32
REMARK                            x       y       z     vdW  Elec       q    Type
REMARK                         _______ _______ _______ _____ _____    ______ ____
ROOT
ATOM      1  C   UNL     1      -6.095  -7.987   1.296  0.00  0.00    +0.192 C 
ENDROOT
BRANCH   1   2
ATOM      2  C   UNL     1      -7.086  -8.908   1.958  0.00  0.00    -0.018 A 
ATOM      3  C   UNL     1      -8.442  -8.708   1.779  0.00  0.00    +0.007 A 
ATOM      4  C   UNL     1      -9.352  -9.553   2.386  0.00  0.00    +0.020 A 
ATOM      5  C   UNL     1      -8.906 -10.599   3.174  0.00  0.00    +0.041 A 
ATOM      6  C   UNL     1      -7.549 -10.799   3.353  0.00  0.00    +0.020 A 
ATOM      7  C   UNL     1      -6.640  -9.957   2.740  0.00  0.00    +0.007 A 
ATOM      8 CL   UNL     1     -10.048 -11.659   3.938  0.00  0.00    -0.084 Cl
ENDBRANCH   1   2
BRANCH   1  11
ATOM      9  C   UNL     1      -5.435  -5.940   2.441  0.00  0.00    +0.219 C 
ATOM     10  O   UNL     1      -4.436  -6.510   2.825  0.00  0.00    -0.275 OA
ATOM     11  N   UNL     1      -6.354  -6.608   1.715  0.00  0.00    -0.289 N 
ATOM     12  C   UNL     1      -7.612  -5.954   1.345  0.00  0.00    +0.133 C 
BRANCH   9  13
ATOM     13  C   UNL     1      -5.650  -4.486   2.775  0.00  0.00    +0.075 C 
BRANCH  13  14
ATOM     14  C   UNL     1      -4.299  -3.770   2.826  0.00  0.00    +0.009 C 
ATOM     15  C   UNL     1      -3.720  -3.670   1.413  0.00  0.00    +0.004 C 
ENDBRANCH  13  14
BRANCH  13  16
ATOM     16  C   UNL     1      -6.340  -4.372   4.135  0.00  0.00    +0.013 C 
BRANCH  16  17
ATOM     17  C   UNL     1      -6.670  -2.905   4.418  0.00  0.00    +0.000 C 
BRANCH  17  19
ATOM     18  C   UNL     1      -7.690  -1.323   6.061  0.00  0.00    +0.004 C 
ATOM     19  C   UNL     1      -7.360  -2.790   5.779  0.00  0.00    -0.003 C 
ENDBRANCH  17  19
ENDBRANCH  16  17
ENDBRANCH  13  16
ENDBRANCH   9  13
ENDBRANCH   1  11
BRANCH   1  20
ATOM     20  C   UNL     1      -6.234  -8.092  -0.201  0.00  0.00    +0.238 C 
ATOM     21  O   UNL     1      -6.522  -7.111  -0.854  0.00  0.00    -0.273 OA
ATOM     22  N   UNL     1      -6.040  -9.276  -0.815  0.00  0.00    -0.308 N 
ATOM     23  H   UNL     1      -5.810 -10.060  -0.294  0.00  0.00    +0.149 HD
BRANCH  22  24
ATOM     24  C   UNL     1      -6.176  -9.377  -2.270  0.00  0.00    +0.030 C 
ATOM     25  C   UNL     1      -7.638  -9.161  -2.663  0.00  0.00    +0.031 C 
ATOM     26  C   UNL     1      -5.305  -8.312  -2.940  0.00  0.00    +0.031 C 
BRANCH  24  27
ATOM     27  C   UNL     1      -5.725 -10.766  -2.729  0.00  0.00    +0.031 C 
BRANCH  27  28
ATOM     28  C   UNL     1      -4.216 -10.908  -2.517  0.00  0.00    -0.036 C 
ATOM     29  C   UNL     1      -3.836 -10.328  -1.153  0.00  0.00    +0.010 C 
ATOM     30  C   UNL     1      -3.832 -12.389  -2.565  0.00  0.00    +0.010 C 
ATOM     31  C   UNL     1      -3.472 -10.152  -3.619  0.00  0.00    +0.010 C 
ENDBRANCH  27  28
ENDBRANCH  24  27
ENDBRANCH  22  24
ENDBRANCH   1  20
TORSDOF 11
