REMARK  Name = ZINC43764291
REMARK  12 active torsions:
REMARK  status: ('A' for Active; 'I' for Inactive)
REMARK    1  A    between atoms: C_1  and  C_2
REMARK    2  A    between atoms: C_2  and  C_4
REMARK    3  A    between atoms: C_2  and  C_13
REMARK    4  A    between atoms: C_4  and  C_5
REMARK    5  A    between atoms: C_5  and  C_6
REMARK    6  A    between atoms: N_8  and  C_9
REMARK    7  A    between atoms: C_9  and  C_10
REMARK    8  A    between atoms: C_19  and  C_40
REMARK    9  A    between atoms: C_20  and  O_39
REMARK   10  A    between atoms: C_25  and  O_38
REMARK   11  A    between atoms: C_30  and  C_37
REMARK   12  A    between atoms: C_33  and  O_36
REMARK                            x       y       z     vdW  Elec       q    Type
REMARK                         _______ _______ _______ _____ _____    ______ ____
ROOT
ATOM      1  C   UNL     1       1.100  -0.378   1.609  0.00  0.00    +0.001 C 
ATOM      2  C   UNL     1       0.291  -0.265   2.915  0.00  0.00    +0.005 C 
ATOM      3  C   UNL     1      -0.203  -1.691   3.252  0.00  0.00    +0.007 C 
ATOM      4  C   UNL     1       0.794  -2.600   2.511  0.00  0.00    +0.030 C 
ATOM      5  C   UNL     1       1.026  -1.867   1.177  0.00  0.00    +0.002 C 
ATOM      6  C   UNL     1      -0.195  -1.997   0.263  0.00  0.00    +0.121 C 
ATOM      7  C   UNL     1      -0.589  -3.461   0.081  0.00  0.00    +0.038 C 
ATOM      8  C   UNL     1      -0.965  -4.034   1.450  0.00  0.00    +0.030 C 
ATOM      9  C   UNL     1       0.271  -4.007   2.326  0.00  0.00    +0.073 C 
ATOM     10  C   UNL     1       1.358  -4.892   1.712  0.00  0.00    +0.035 C 
ATOM     11  C   UNL     1       0.834  -6.321   1.560  0.00  0.00    +0.007 C 
ATOM     12  C   UNL     1      -0.390  -6.316   0.641  0.00  0.00    -0.002 C 
ATOM     13  C   UNL     1      -1.474  -5.466   1.291  0.00  0.00    -0.024 C 
ATOM     14  C   UNL     1      -1.857  -6.028   2.662  0.00  0.00    +0.010 C 
ATOM     15  C   UNL     1      -2.372  -7.460   2.500  0.00  0.00    +0.032 C 
ATOM     16  C   UNL     1      -1.275  -8.329   1.882  0.00  0.00    +0.115 C 
ATOM     17  C   UNL     1      -0.908  -7.745   0.471  0.00  0.00    +0.035 C 
ATOM     18  C   UNL     1      -2.705  -5.470   0.383  0.00  0.00    +0.012 C 
ATOM     19  C   UNL     1       2.316  -2.326   0.495  0.00  0.00    +0.014 C 
ENDROOT
BRANCH   1  21
ATOM     20  C   UNL     1       0.279   1.923   1.088  0.00  0.00    +0.008 C 
ATOM     21  C   UNL     1       0.482   0.514   0.530  0.00  0.00    -0.010 C 
BRANCH  21  22
ATOM     22  C   UNL     1       1.419   0.574  -0.679  0.00  0.00    +0.013 C 
BRANCH  22  23
ATOM     23  C   UNL     1       0.727   1.319  -1.823  0.00  0.00    +0.096 C 
BRANCH  23  24
ATOM     24  C   UNL     1       1.649   1.378  -3.013  0.00  0.00    +0.213 C 
ATOM     25  O   UNL     1       2.751   0.875  -2.953  0.00  0.00    -0.276 OA
ATOM     26  N   UNL     1       1.250   1.992  -4.145  0.00  0.00    -0.305 N 
ATOM     27  H   UNL     1       0.368   2.394  -4.193  0.00  0.00    +0.149 HD
BRANCH  26  28
ATOM     28  C   UNL     1       2.146   2.049  -5.302  0.00  0.00    +0.229 C 
BRANCH  28  29
ATOM     29  C   UNL     1       1.465   2.783  -6.429  0.00  0.00    +0.373 C 
ATOM     30  O   UNL     1       0.335   3.217  -6.279  0.00  0.00    -0.245 OA
ATOM     31  O   UNL     1       2.043   2.942  -7.490  0.00  0.00    -0.245 OA
ENDBRANCH  28  29
ENDBRANCH  26  28
ENDBRANCH  23  24
ENDBRANCH  22  23
ENDBRANCH  21  22
ENDBRANCH   1  21
BRANCH  16  32
ATOM     32  O   UNL     1      -1.755  -9.667   1.732  0.00  0.00    -0.392 OA
ATOM     33  H   UNL     1      -2.016 -10.086   2.564  0.00  0.00    +0.210 HD
ENDBRANCH  16  32
BRANCH   9  34
ATOM     34  O   UNL     1      -0.076  -4.543   3.605  0.00  0.00    -0.388 OA
ATOM     35  H   UNL     1       0.666  -4.598   4.222  0.00  0.00    +0.210 HD
ENDBRANCH   9  34
BRANCH   6  36
ATOM     36  O   UNL     1       0.111  -1.432  -1.013  0.00  0.00    -0.391 OA
ATOM     37  H   UNL     1      -0.616  -1.477  -1.648  0.00  0.00    +0.210 HD
ENDBRANCH   6  36
TORSDOF 9
