REMARK  Name = ZINC39846124
REMARK  7 active torsions:
REMARK  status: ('A' for Active; 'I' for Inactive)
REMARK    1  A    between atoms: C_1  and  C_2
REMARK    2  A    between atoms: C_5  and  C_19
REMARK    3  A    between atoms: C_6  and  C_7
REMARK    4  A    between atoms: C_6  and  C_8
REMARK    5  A    between atoms: C_12  and  C_17
REMARK    6  A    between atoms: C_13  and  C_15
REMARK    7  A    between atoms: N_21  and  C_22
REMARK                            x       y       z     vdW  Elec       q    Type
REMARK                         _______ _______ _______ _____ _____    ______ ____
ROOT
ATOM      1  C   UNL     1      -0.019   1.526   0.010  0.00  0.00    +0.018 C 
ATOM      2  C   UNL     1       0.002  -0.004   0.002  0.00  0.00    +0.018 C 
ATOM      3  C   UNL     1       0.743  -0.677  -1.197  0.00  0.00    +0.015 C 
ATOM      4  C   UNL     1       1.001  -2.124  -0.714  0.00  0.00    +0.024 C 
ATOM      5  C   UNL     1       0.388  -2.161   0.722  0.00  0.00    +0.096 C 
ATOM      6  C   UNL     1       0.727  -0.704   1.210  0.00  0.00    -0.005 C 
ATOM      7  C   UNL     1       2.235  -0.447   1.212  0.00  0.00    +0.013 C 
ATOM      8  C   UNL     1       0.084  -0.357   2.554  0.00  0.00    +0.013 C 
ATOM      9  C   UNL     1      -1.119  -2.021   0.492  0.00  0.00    +0.080 A 
ATOM     10  C   UNL     1      -1.360  -0.700   0.069  0.00  0.00    +0.072 A 
ATOM     11  N   UNL     1      -2.575  -0.286  -0.202  0.00  0.00    -0.236 NA
ATOM     12  C   UNL     1      -3.605  -1.117  -0.053  0.00  0.00    +0.176 A 
ATOM     13  C   UNL     1      -3.381  -2.433   0.393  0.00  0.00    +0.176 A 
ATOM     14  N   UNL     1      -2.114  -2.864   0.632  0.00  0.00    -0.236 NA
ENDROOT
BRANCH   5  15
ATOM     15  C   UNL     1       0.839  -3.291   1.610  0.00  0.00    +0.226 C 
ATOM     16  O   UNL     1       1.415  -3.052   2.651  0.00  0.00    -0.275 OA
ATOM     17  N   UNL     1       0.603  -4.568   1.249  0.00  0.00    -0.312 N 
ATOM     18  H   UNL     1       0.142  -4.759   0.417  0.00  0.00    +0.149 HD
BRANCH  17  19
ATOM     19  C   UNL     1       1.042  -5.667   2.113  0.00  0.00    +0.073 C 
ATOM     20  C   UNL     1       2.534  -5.947   1.844  0.00  0.00    +0.022 C 
ATOM     21  C   UNL     1       3.104  -6.676   3.031  0.00  0.00    +0.002 C 
ATOM     22  C   UNL     1       3.079  -8.206   2.851  0.00  0.00    +0.000 C 
ATOM     23  C   UNL     1       1.768  -8.711   2.218  0.00  0.00    +0.000 C 
ATOM     24  C   UNL     1       0.555  -8.018   2.776  0.00  0.00    +0.002 C 
ATOM     25  C   UNL     1       0.204  -6.829   1.858  0.00  0.00    +0.022 C 
ENDBRANCH  17  19
ENDBRANCH   5  15
BRANCH  13  26
ATOM     26  C   UNL     1      -4.482  -3.333   0.556  0.00  0.00    +0.122 C 
ATOM     27  N   UNL     1      -5.356  -4.048   0.686  0.00  0.00    -0.189 NA
ENDBRANCH  13  26
BRANCH  12  28
ATOM     28  C   UNL     1      -4.935  -0.674  -0.346  0.00  0.00    +0.122 C 
ATOM     29  N   UNL     1      -5.989  -0.323  -0.578  0.00  0.00    -0.189 NA
ENDBRANCH  12  28
TORSDOF 4
