REMARK  Name = ZINC01799091
REMARK  9 active torsions:
REMARK  status: ('A' for Active; 'I' for Inactive)
REMARK    1  A    between atoms: C_1  and  C_2
REMARK    2  A    between atoms: C_2  and  C_40
REMARK    3  A    between atoms: C_7  and  C_19
REMARK    4  A    between atoms: N_10  and  C_11
REMARK    5  A    between atoms: C_14  and  O_17
REMARK    6  A    between atoms: O_17  and  C_18
REMARK    7  A    between atoms: N_21  and  C_22
REMARK    8  A    between atoms: C_25  and  C_28
REMARK    9  A    between atoms: C_31  and  N_34
REMARK                            x       y       z     vdW  Elec       q    Type
REMARK                         _______ _______ _______ _____ _____    ______ ____
ROOT
ATOM      1  C   UNL     1      -1.313   3.155   0.159  0.00  0.00    +0.011 C 
ATOM      2  C   UNL     1      -0.552   1.828   0.197  0.00  0.00    -0.023 C 
ATOM      3  C   UNL     1      -1.543   0.670   0.123  0.00  0.00    +0.061 C 
ATOM      4  C   UNL     1      -2.428   0.628   1.342  0.00  0.00    +0.038 A 
ATOM      5  C   UNL     1      -2.037   1.205   2.539  0.00  0.00    +0.038 A 
ATOM      6  C   UNL     1      -2.873   1.145   3.674  0.00  0.00    +0.031 A 
ATOM      7  C   UNL     1      -4.100   0.504   3.571  0.00  0.00    +0.102 A 
ATOM      8  C   UNL     1      -4.468  -0.083   2.280  0.00  0.00    +0.268 A 
ATOM      9  O   UNL     1      -5.538  -0.650   2.150  0.00  0.00    -0.266 OA
ATOM     10  N   UNL     1      -3.623   0.007   1.240  0.00  0.00    -0.280 N 
ATOM     11  C   UNL     1      -0.741   1.897   2.643  0.00  0.00    +0.165 C 
ATOM     12  O   UNL     1      -0.472   2.580   3.609  0.00  0.00    -0.292 OA
ATOM     13  C   UNL     1       0.244   1.730   1.505  0.00  0.00    +0.086 C 
ATOM     14  C   UNL     1       0.408   1.756  -0.992  0.00  0.00    +0.011 C 
ENDROOT
BRANCH  10  15
ATOM     15  C   UNL     1      -3.992  -0.558   0.013  0.00  0.00    +0.050 A 
ATOM     16  C   UNL     1      -4.957   0.058  -0.774  0.00  0.00    +0.030 A 
ATOM     17  C   UNL     1      -5.320  -0.501  -1.983  0.00  0.00    +0.047 A 
ATOM     18  C   UNL     1      -4.722  -1.677  -2.413  0.00  0.00    +0.120 A 
ATOM     19  C   UNL     1      -3.758  -2.293  -1.627  0.00  0.00    +0.047 A 
ATOM     20  C   UNL     1      -3.389  -1.732  -0.421  0.00  0.00    +0.030 A 
BRANCH  18  21
ATOM     21  O   UNL     1      -5.081  -2.226  -3.603  0.00  0.00    -0.495 OA
ATOM     22  C   UNL     1      -4.425  -3.438  -3.983  0.00  0.00    +0.277 C 
ENDBRANCH  18  21
ENDBRANCH  10  15
BRANCH   7  23
ATOM     23  C   UNL     1      -5.006   0.416   4.727  0.00  0.00    +0.254 C 
ATOM     24  O   UNL     1      -4.633   0.789   5.822  0.00  0.00    -0.270 OA
ATOM     25  N   UNL     1      -6.251  -0.079   4.571  0.00  0.00    -0.281 N 
ATOM     26  H   UNL     1      -6.506  -0.495   3.733  0.00  0.00    +0.155 HD
BRANCH  25  27
ATOM     27  C   UNL     1      -7.173   0.009   5.617  0.00  0.00    +0.034 A 
ATOM     28  C   UNL     1      -6.727   0.137   6.927  0.00  0.00    +0.024 A 
ATOM     29  C   UNL     1      -7.636   0.224   7.960  0.00  0.00    +0.010 A 
ATOM     30  C   UNL     1      -9.002   0.184   7.691  0.00  0.00    -0.018 A 
ATOM     31  C   UNL     1      -9.448   0.056   6.376  0.00  0.00    +0.010 A 
ATOM     32  C   UNL     1      -8.536  -0.025   5.345  0.00  0.00    +0.024 A 
BRANCH  30  33
ATOM     33  C   UNL     1      -9.982   0.276   8.801  0.00  0.00    -0.018 A 
ATOM     34  C   UNL     1      -9.539   0.409  10.115  0.00  0.00    +0.011 A 
ATOM     35  C   UNL     1     -10.454   0.495  11.145  0.00  0.00    +0.033 A 
ATOM     36  C   UNL     1     -11.810   0.449  10.873  0.00  0.00    +0.126 A 
ATOM     37  C   UNL     1     -12.255   0.318   9.570  0.00  0.00    +0.033 A 
ATOM     38  C   UNL     1     -11.349   0.236   8.533  0.00  0.00    +0.011 A 
BRANCH  36  39
ATOM     39  N   UNL     1     -12.787   0.541  11.981  0.00  0.00    +0.056 N 
ATOM     40  O   UNL     1     -12.400   0.656  13.121  0.00  0.00    -0.126 OA
ATOM     41  O   UNL     1     -13.972   0.501  11.746  0.00  0.00    -0.126 OA
ENDBRANCH  36  39
ENDBRANCH  30  33
ENDBRANCH  25  27
ENDBRANCH   7  23
TORSDOF 6
