REMARK  Name = ZINC35331773
REMARK  16 active torsions:
REMARK  status: ('A' for Active; 'I' for Inactive)
REMARK    1  A    between atoms: C_1  and  C_2
REMARK    2  A    between atoms: C_2  and  C_3
REMARK    3  A    between atoms: C_3  and  C_4
REMARK    4  A    between atoms: C_4  and  C_5
REMARK    5  A    between atoms: C_5  and  N_6
REMARK    6  A    between atoms: N_6  and  C_7
REMARK    7  A    between atoms: C_7  and  C_8
REMARK    8  A    between atoms: C_10  and  C_13
REMARK    9  A    between atoms: C_13  and  O_15
REMARK   10  A    between atoms: O_15  and  C_16
REMARK   11  A    between atoms: C_17  and  C_19
REMARK   12  A    between atoms: C_22  and  O_25
REMARK   13  A    between atoms: O_25  and  C_26
REMARK   14  A    between atoms: C_26  and  C_27
REMARK   15  A    between atoms: C_27  and  C_28
REMARK   16  A    between atoms: C_28  and  C_29
REMARK                            x       y       z     vdW  Elec       q    Type
REMARK                         _______ _______ _______ _____ _____    ______ ____
ROOT
ATOM      1  N   UNL     1       1.496  -4.006   2.714  0.00  0.00    -0.291 N 
ATOM      2  C   UNL     1       0.346  -4.603   3.085  0.00  0.00    +0.247 C 
ATOM      3  O   UNL     1       0.248  -5.814   3.044  0.00  0.00    -0.270 OA
ENDROOT
BRANCH   2   4
ATOM      4  C   UNL     1      -0.796  -3.785   3.540  0.00  0.00    +0.037 A 
ATOM      5  C   UNL     1      -1.037  -2.536   2.962  0.00  0.00    +0.016 A 
ATOM      6  C   UNL     1      -2.104  -1.777   3.390  0.00  0.00    +0.046 A 
ATOM      7  C   UNL     1      -2.939  -2.252   4.394  0.00  0.00    +0.121 A 
ATOM      8  C   UNL     1      -2.702  -3.494   4.971  0.00  0.00    +0.046 A 
ATOM      9  C   UNL     1      -1.641  -4.261   4.545  0.00  0.00    +0.016 A 
BRANCH   7  10
ATOM     10  O   UNL     1      -3.989  -1.500   4.813  0.00  0.00    -0.492 OA
BRANCH  10  11
ATOM     11  C   UNL     1      -4.807  -2.048   5.849  0.00  0.00    +0.229 C 
BRANCH  11  12
ATOM     12  C   UNL     1      -5.930  -1.065   6.185  0.00  0.00    +0.041 C 
BRANCH  12  13
ATOM     13  C   UNL     1      -6.806  -1.651   7.294  0.00  0.00    -0.000 C 
ATOM     14  C   UNL     1      -7.929  -0.668   7.631  0.00  0.00    +0.004 C 
ENDBRANCH  12  13
ENDBRANCH  11  12
ENDBRANCH  10  11
ENDBRANCH   7  10
ENDBRANCH   2   4
BRANCH   1  15
ATOM     15  C   UNL     1       1.643  -2.555   2.843  0.00  0.00    +0.108 C 
BRANCH  15  16
ATOM     16  C   UNL     1       1.568  -1.909   1.458  0.00  0.00    +0.019 C 
BRANCH  16  17
ATOM     17  C   UNL     1       1.564  -0.386   1.604  0.00  0.00    +0.001 C 
BRANCH  17  19
ATOM     18  C   UNL     1       1.485   1.782   0.365  0.00  0.00    +0.004 C 
ATOM     19  C   UNL     1       1.489   0.259   0.219  0.00  0.00    -0.003 C 
ENDBRANCH  17  19
ENDBRANCH  16  17
ENDBRANCH  15  16
ENDBRANCH   1  15
BRANCH   1  20
ATOM     20  C   UNL     1       2.600  -4.810   2.183  0.00  0.00    +0.170 C 
BRANCH  20  21
ATOM     21  C   UNL     1       3.489  -5.254   3.316  0.00  0.00    +0.096 A 
ATOM     22  N   UNL     1       3.401  -6.344   4.028  0.00  0.00    -0.236 NA
ATOM     23  C   UNL     1       4.302  -6.545   4.995  0.00  0.00    +0.155 A 
ATOM     24  C   UNL     1       5.250  -5.567   5.147  0.00  0.00    +0.082 A 
ATOM     25  S   UNL     1       4.828  -4.466   3.951  0.00  0.00    -0.078 S 
BRANCH  23  26
ATOM     26  C   UNL     1       4.278  -7.745   5.846  0.00  0.00    +0.358 C 
ATOM     27  O   UNL     1       5.115  -7.891   6.715  0.00  0.00    -0.243 OA
BRANCH  26  28
ATOM     28  O   UNL     1       3.327  -8.682   5.662  0.00  0.00    -0.463 OA
ATOM     29  C   UNL     1       3.363  -9.821   6.524  0.00  0.00    +0.280 C 
ENDBRANCH  26  28
ENDBRANCH  23  26
ENDBRANCH  20  21
ENDBRANCH   1  20
TORSDOF 13
