REMARK  Name = ZINC58901784
REMARK  5 active torsions:
REMARK  status: ('A' for Active; 'I' for Inactive)
REMARK    1  A    between atoms: C_4  and  S_10
REMARK    2  A    between atoms: C_5  and  N_7
REMARK    3  A    between atoms: S_10  and  N_13
REMARK    4  A    between atoms: C_23  and  S_25
REMARK    5  A    between atoms: S_25  and  N_28
REMARK                            x       y       z     vdW  Elec       q    Type
REMARK                         _______ _______ _______ _____ _____    ______ ____
ROOT
ATOM      1  N   UNL     1       1.856  -2.105   1.779  0.00  0.00    -0.223 N 
ATOM      2  C   UNL     1       3.024  -1.988   2.649  0.00  0.00    +0.019 C 
ATOM      3  N   UNL     1       2.969  -3.062   3.662  0.00  0.00    +0.484 NA
ATOM      4  S   UNL     1       1.611  -3.078   4.630  0.00  0.00    -0.056 S 
ATOM      5  O   UNL     1       1.415  -4.423   5.048  0.00  0.00    -0.191 OA
ATOM      6  O   UNL     1       1.740  -2.000   5.546  0.00  0.00    -0.191 OA
ATOM      7  C   UNL     1       0.277  -2.676   3.542  0.00  0.00    +0.090 A 
ATOM      8  C   UNL     1       0.554  -2.225   2.256  0.00  0.00    +0.073 A 
ATOM      9  C   UNL     1      -0.503  -1.890   1.412  0.00  0.00    +0.048 A 
ATOM     10  C   UNL     1      -1.807  -2.011   1.850  0.00  0.00    +0.069 A 
ATOM     11  C   UNL     1      -2.073  -2.465   3.130  0.00  0.00    +0.125 A 
ATOM     12  C   UNL     1      -1.025  -2.805   3.975  0.00  0.00    +0.056 A 
ATOM     13 CL   UNL     1      -3.117  -1.592   0.791  0.00  0.00    -0.081 Cl
ENDROOT
BRANCH   1  14
ATOM     14  S   UNL     1       2.094  -2.087   0.140  0.00  0.00    +0.075 S 
ATOM     15  O   UNL     1       1.064  -2.885  -0.428  0.00  0.00    -0.150 OA
ATOM     16  O   UNL     1       3.472  -2.357  -0.074  0.00  0.00    -0.150 OA
BRANCH  14  20
ATOM     17  C   UNL     1       1.374   2.154  -1.271  0.00  0.00    +0.002 A 
ATOM     18  C   UNL     1       1.549   1.893   0.076  0.00  0.00    +0.002 A 
ATOM     19  C   UNL     1       1.769   0.599   0.507  0.00  0.00    +0.031 A 
ATOM     20  C   UNL     1       1.813  -0.436  -0.409  0.00  0.00    +0.139 A 
ATOM     21  C   UNL     1       1.637  -0.176  -1.755  0.00  0.00    +0.153 A 
ATOM     22  C   UNL     1       1.419   1.119  -2.186  0.00  0.00    +0.035 A 
BRANCH  21  23
ATOM     23  N   UNL     1       1.685  -1.284  -2.735  0.00  0.00    +0.058 N 
ATOM     24  O   UNL     1       0.938  -1.283  -3.686  0.00  0.00    -0.126 OA
ATOM     25  O   UNL     1       2.471  -2.190  -2.585  0.00  0.00    -0.126 OA
ENDBRANCH  21  23
ENDBRANCH  14  20
ENDBRANCH   1  14
BRANCH  11  26
ATOM     26  S   UNL     1      -3.739  -2.624   3.682  0.00  0.00    +0.057 S 
ATOM     27  O   UNL     1      -4.437  -3.332   2.667  0.00  0.00    -0.153 OA
ATOM     28  O   UNL     1      -3.679  -3.080   5.026  0.00  0.00    -0.153 OA
BRANCH  26  29
ATOM     29  N   UNL     1      -4.387  -1.101   3.727  0.00  0.00    -0.203 NA
ATOM     30  H   UNL     1      -5.337  -0.973   3.575  0.00  0.00    +0.144 HD
ATOM     31  H   UNL     1      -3.817  -0.336   3.905  0.00  0.00    +0.144 HD
ENDBRANCH  26  29
ENDBRANCH  11  26
TORSDOF 5
