REMARK  Name = ZINC39384065
REMARK  6 active torsions:
REMARK  status: ('A' for Active; 'I' for Inactive)
REMARK    1  A    between atoms: C_1  and  C_2
REMARK    2  A    between atoms: C_2  and  C_4
REMARK    3  A    between atoms: C_7  and  N_10
REMARK    4  A    between atoms: C_11  and  C_13
REMARK    5  A    between atoms: N_15  and  C_32
REMARK    6  A    between atoms: N_22  and  C_25
REMARK                            x       y       z     vdW  Elec       q    Type
REMARK                         _______ _______ _______ _____ _____    ______ ____
ROOT
ATOM      1  C   UNL     1      -6.006  -4.415  -0.175  0.00  0.00    +0.072 C 
ATOM      2  C   UNL     1      -5.792  -5.650   0.417  0.00  0.00    +0.085 C 
ATOM      3  N   UNL     1      -6.948  -6.307   0.647  0.00  0.00    -0.322 N 
ATOM      4  C   UNL     1      -8.004  -5.573  -0.036  0.00  0.00    +0.208 C 
ATOM      5  C   UNL     1      -7.385  -4.202  -0.294  0.00  0.00    +0.078 C 
ATOM      6  N   UNL     1      -8.119  -3.146  -0.530  0.00  0.00    -0.164 NA
ATOM      7  C   UNL     1      -9.430  -3.209  -0.221  0.00  0.00    +0.337 C 
ATOM      8  O   UNL     1     -10.181  -2.353  -0.651  0.00  0.00    -0.250 OA
ATOM      9  N   UNL     1      -9.930  -4.192   0.548  0.00  0.00    -0.191 N 
ATOM     10  C   UNL     1      -9.254  -5.358   0.769  0.00  0.00    +0.254 C 
ATOM     11  O   UNL     1      -9.624  -6.168   1.592  0.00  0.00    -0.272 OA
ATOM     12  C   UNL     1      -7.110  -7.531   1.435  0.00  0.00    +0.130 C 
ENDROOT
BRANCH   9  13
ATOM     13  C   UNL     1     -11.199  -4.029   1.121  0.00  0.00    +0.046 A 
ATOM     14  C   UNL     1     -12.327  -4.492   0.457  0.00  0.00    +0.025 A 
ATOM     15  C   UNL     1     -13.576  -4.330   1.024  0.00  0.00    +0.022 A 
ATOM     16  C   UNL     1     -13.704  -3.706   2.252  0.00  0.00    +0.041 A 
ATOM     17  C   UNL     1     -12.581  -3.243   2.916  0.00  0.00    +0.022 A 
ATOM     18  C   UNL     1     -11.329  -3.408   2.356  0.00  0.00    +0.025 A 
ATOM     19 CL   UNL     1     -15.275  -3.502   2.961  0.00  0.00    -0.084 Cl
ENDBRANCH   9  13
BRANCH   1  21
ATOM     20  N   UNL     1      -5.294  -2.299  -1.164  0.00  0.00    -0.281 N 
ATOM     21  C   UNL     1      -4.957  -3.478  -0.604  0.00  0.00    +0.251 C 
ATOM     22  O   UNL     1      -3.785  -3.766  -0.452  0.00  0.00    -0.270 OA
ATOM     23  H   UNL     1      -6.226  -2.035  -1.216  0.00  0.00    +0.155 HD
BRANCH  20  27
ATOM     24  C   UNL     1      -2.341   0.204  -2.672  0.00  0.00    +0.017 A 
ATOM     25  C   UNL     1      -2.187  -1.187  -2.745  0.00  0.00    +0.013 A 
ATOM     26  C   UNL     1      -3.161  -2.006  -2.247  0.00  0.00    +0.024 A 
ATOM     27  C   UNL     1      -4.304  -1.460  -1.669  0.00  0.00    +0.034 A 
ATOM     28  C   UNL     1      -4.461  -0.079  -1.595  0.00  0.00    +0.024 A 
ATOM     29  C   UNL     1      -3.490   0.748  -2.085  0.00  0.00    +0.013 A 
BRANCH  24  31
ATOM     30  C   UNL     1      -0.061   0.500  -3.836  0.00  0.00    +0.091 C 
ATOM     31  C   UNL     1      -1.297   1.088  -3.205  0.00  0.00    +0.160 C 
ATOM     32  O   UNL     1      -1.429   2.292  -3.137  0.00  0.00    -0.292 OA
ENDBRANCH  24  31
ENDBRANCH  20  27
ENDBRANCH   1  21
TORSDOF 4
