REMARK  Name = ZINC38740315
REMARK  3 active torsions:
REMARK  status: ('A' for Active; 'I' for Inactive)
REMARK    1  A    between atoms: C_8  and  N_10
REMARK    2  A    between atoms: C_11  and  C_13
REMARK    3  A    between atoms: C_19  and  C_21
REMARK                            x       y       z     vdW  Elec       q    Type
REMARK                         _______ _______ _______ _____ _____    ______ ____
ROOT
ATOM      1  C   UNL     1       5.338  -5.163   0.329  0.00  0.00    +0.091 C 
ATOM      2  C   UNL     1       4.365  -6.327   0.531  0.00  0.00    +0.040 C 
ATOM      3  C   UNL     1       5.107  -7.546   0.993  0.00  0.00    -0.030 C 
ATOM      4  C   UNL     1       6.388  -7.700   0.887  0.00  0.00    -0.030 C 
ATOM      5  C   UNL     1       7.311  -6.674   0.298  0.00  0.00    +0.040 C 
ATOM      6  C   UNL     1       6.518  -5.653  -0.520  0.00  0.00    +0.091 C 
ENDROOT
BRANCH   6   7
ATOM      7  C   UNL     1       6.002  -6.308  -1.775  0.00  0.00    +0.220 C 
ATOM      8  O   UNL     1       5.348  -7.327  -1.703  0.00  0.00    -0.275 OA
ATOM      9  N   UNL     1       6.266  -5.760  -2.978  0.00  0.00    -0.298 N 
ATOM     10  C   UNL     1       7.164  -4.602  -3.092  0.00  0.00    +0.126 C 
ATOM     11  C   UNL     1       8.285  -4.947  -4.081  0.00  0.00    +0.125 C 
ATOM     12  N   UNL     1       7.680  -5.497  -5.302  0.00  0.00    -0.314 N 
ATOM     13  C   UNL     1       6.782  -6.654  -5.189  0.00  0.00    +0.125 C 
ATOM     14  C   UNL     1       5.666  -6.313  -4.200  0.00  0.00    +0.126 C 
ATOM     15  C   UNL     1       7.953  -4.932  -6.543  0.00  0.00    +0.099 A 
ATOM     16  C   UNL     1       8.894  -3.912  -6.644  0.00  0.00    +0.042 A 
ATOM     17  C   UNL     1       9.156  -3.359  -7.885  0.00  0.00    +0.005 A 
ATOM     18  C   UNL     1       8.464  -3.846  -8.986  0.00  0.00    +0.018 A 
ATOM     19  C   UNL     1       7.544  -4.860  -8.813  0.00  0.00    +0.084 A 
ATOM     20  N   UNL     1       7.318  -5.372  -7.618  0.00  0.00    -0.350 N 
ATOM     21  H   UNL     1       6.669  -6.087  -7.524  0.00  0.00    +0.166 HD
ENDBRANCH   6   7
BRANCH   1  23
ATOM     22  N   UNL     1       3.559  -3.451   0.178  0.00  0.00    -0.312 N 
ATOM     23  C   UNL     1       4.637  -4.034  -0.382  0.00  0.00    +0.217 C 
ATOM     24  O   UNL     1       5.043  -3.651  -1.459  0.00  0.00    -0.275 OA
ATOM     25  H   UNL     1       3.234  -3.758   1.039  0.00  0.00    +0.149 HD
BRANCH  22  33
ATOM     26  C   UNL     1      -0.177   1.262  -0.056  0.00  0.00    +0.000 A 
ATOM     27  C   UNL     1       0.998   1.990  -0.057  0.00  0.00    +0.000 A 
ATOM     28  C   UNL     1       2.215   1.336  -0.062  0.00  0.00    +0.004 A 
ATOM     29  C   UNL     1       2.262  -0.048  -0.066  0.00  0.00    -0.042 A 
ATOM     30  C   UNL     1       1.087  -0.776  -0.064  0.00  0.00    -0.042 A 
ATOM     31  C   UNL     1      -0.132  -0.119  -0.059  0.00  0.00    +0.004 A 
ATOM     32  C   UNL     1       1.403  -2.257  -0.069  0.00  0.00    +0.058 C 
ATOM     33  C   UNL     1       2.878  -2.354  -0.513  0.00  0.00    +0.082 C 
ATOM     34  C   UNL     1       3.447  -0.989  -0.071  0.00  0.00    +0.058 C 
ENDBRANCH  22  33
ENDBRANCH   1  23
TORSDOF 3
