REMARK  Name = ZINC04578113
REMARK  5 active torsions:
REMARK  status: ('A' for Active; 'I' for Inactive)
REMARK    1  A    between atoms: C_1  and  O_2
REMARK    2  A    between atoms: O_2  and  C_3
REMARK    3  A    between atoms: C_8  and  S_9
REMARK    4  A    between atoms: S_9  and  N_12
REMARK    5  A    between atoms: N_15  and  C_18
REMARK                            x       y       z     vdW  Elec       q    Type
REMARK                         _______ _______ _______ _____ _____    ______ ____
ROOT
ATOM      1  N   UNL     1       0.812  -2.672   1.534  0.00  0.00    -0.180 NA
ATOM      2  C   UNL     1       1.994  -3.478   1.875  0.00  0.00    +0.091 C 
ATOM      3  C   UNL     1       1.851  -3.963   3.322  0.00  0.00    -0.061 C 
ATOM      4  N   UNL     1       1.629  -2.810   4.204  0.00  0.00    +0.385 N 
ATOM      5  C   UNL     1       0.350  -2.167   3.874  0.00  0.00    -0.061 C 
ATOM      6  C   UNL     1       0.423  -1.590   2.452  0.00  0.00    +0.091 C 
ATOM      7  H   UNL     1       2.379  -2.146   4.083  0.00  0.00    -0.081 HD
ENDROOT
BRANCH   4   8
ATOM      8  C   UNL     1       1.601  -3.263   5.601  0.00  0.00    -0.065 C 
ATOM      9  C   UNL     1       0.468  -4.274   5.787  0.00  0.00    -0.009 C 
ATOM     10  C   UNL     1       0.439  -4.746   7.242  0.00  0.00    -0.012 C 
ATOM     11  C   UNL     1       0.207  -3.546   8.162  0.00  0.00    +0.007 C 
ATOM     12  C   UNL     1       1.340  -2.534   7.977  0.00  0.00    -0.012 C 
ATOM     13  C   UNL     1       1.369  -2.063   6.521  0.00  0.00    -0.009 C 
ATOM     14  C   UNL     1       2.675  -3.195   8.326  0.00  0.00    +0.007 C 
ATOM     15  C   UNL     1       2.907  -4.395   7.405  0.00  0.00    -0.012 C 
ATOM     16  C   UNL     1       1.774  -5.406   7.591  0.00  0.00    +0.007 C 
ATOM     17  C   UNL     1       2.936  -3.923   5.950  0.00  0.00    -0.009 C 
ENDBRANCH   4   8
BRANCH   1  18
ATOM     18  S   UNL     1      -0.051  -2.969   0.153  0.00  0.00    +0.064 S 
ATOM     19  O   UNL     1      -1.359  -2.459   0.374  0.00  0.00    -0.153 OA
ATOM     20  O   UNL     1       0.188  -4.327  -0.191  0.00  0.00    -0.153 OA
BRANCH  18  26
ATOM     21  C   UNL     1       0.606  -0.607  -1.056  0.00  0.00    +0.146 A 
ATOM     22  C   UNL     1       1.173   0.161  -2.062  0.00  0.00    +0.049 A 
ATOM     23  C   UNL     1       1.786  -0.454  -3.137  0.00  0.00    +0.024 A 
ATOM     24  C   UNL     1       1.835  -1.835  -3.210  0.00  0.00    +0.043 A 
ATOM     25  C   UNL     1       1.269  -2.603  -2.207  0.00  0.00    +0.052 A 
ATOM     26  C   UNL     1       0.661  -1.991  -1.128  0.00  0.00    +0.148 A 
ATOM     27 CL   UNL     1       2.605  -2.605  -4.561  0.00  0.00    -0.083 Cl
BRANCH  21  29
ATOM     28  C   UNL     1      -0.017   1.425   0.010  0.00  0.00    +0.277 C 
ATOM     29  O   UNL     1       0.002  -0.004   0.002  0.00  0.00    -0.493 OA
ENDBRANCH  21  29
ENDBRANCH  18  26
ENDBRANCH   1  18
TORSDOF 4
