REMARK  Name = ZINC64647937
REMARK  6 active torsions:
REMARK  status: ('A' for Active; 'I' for Inactive)
REMARK    1  A    between atoms: C_1  and  O_2
REMARK    2  A    between atoms: O_2  and  C_3
REMARK    3  A    between atoms: C_6  and  C_11
REMARK    4  A    between atoms: C_8  and  O_9
REMARK    5  A    between atoms: O_9  and  C_10
REMARK    6  A    between atoms: C_26  and  C_28
REMARK                            x       y       z     vdW  Elec       q    Type
REMARK                         _______ _______ _______ _____ _____    ______ ____
ROOT
ATOM      1  C   UNL     1       2.572  -2.237  -4.336  0.00  0.00    +0.247 C 
ATOM      2  O   UNL     1       2.583  -3.452  -4.276  0.00  0.00    -0.270 OA
ATOM      3  N   UNL     1       3.067  -1.612  -5.422  0.00  0.00    -0.288 N 
ATOM      4  C   UNL     1       3.168  -0.149  -5.434  0.00  0.00    +0.113 C 
ATOM      5  C   UNL     1       4.631   0.262  -5.683  0.00  0.00    +0.052 C 
ATOM      6  C   UNL     1       5.134  -0.594  -6.819  0.00  0.00    -0.035 C 
ATOM      7  C   UNL     1       5.734  -0.276  -7.959  0.00  0.00    -0.001 A 
ATOM      8  C   UNL     1       6.226   1.009  -8.482  0.00  0.00    +0.010 A 
ATOM      9  C   UNL     1       6.784   0.978  -9.721  0.00  0.00    +0.001 A 
ATOM     10  C   UNL     1       6.901  -0.189 -10.483  0.00  0.00    +0.002 A 
ATOM     11  C   UNL     1       6.483  -1.415 -10.077  0.00  0.00    +0.026 A 
ATOM     12  C   UNL     1       5.887  -1.511  -8.787  0.00  0.00    +0.043 A 
ATOM     13  N   UNL     1       5.427  -2.546  -8.147  0.00  0.00    -0.375 N 
ATOM     14  C   UNL     1       4.986  -2.112  -6.822  0.00  0.00    +0.131 C 
ATOM     15  C   UNL     1       3.506  -2.405  -6.581  0.00  0.00    +0.133 C 
ATOM     16  H   UNL     1       5.383  -3.452  -8.491  0.00  0.00    +0.160 HD
ENDROOT
BRANCH  15  17
ATOM     17  C   UNL     1       2.708  -2.015  -7.798  0.00  0.00    -0.025 A 
ATOM     18  C   UNL     1       1.975  -2.969  -8.479  0.00  0.00    +0.007 A 
ATOM     19  C   UNL     1       1.242  -2.612  -9.595  0.00  0.00    +0.020 A 
ATOM     20  C   UNL     1       1.243  -1.299 -10.032  0.00  0.00    +0.041 A 
ATOM     21  C   UNL     1       1.978  -0.345  -9.351  0.00  0.00    +0.020 A 
ATOM     22  C   UNL     1       2.705  -0.702  -8.231  0.00  0.00    +0.007 A 
ATOM     23 CL   UNL     1       0.324  -0.850 -11.434  0.00  0.00    -0.084 Cl
ENDBRANCH  15  17
BRANCH   1  27
ATOM     24  C   UNL     1       0.971   0.038  -1.123  0.00  0.00    +0.162 A 
ATOM     25  C   UNL     1       0.677   0.386  -2.434  0.00  0.00    +0.050 A 
ATOM     26  C   UNL     1       1.195  -0.349  -3.478  0.00  0.00    +0.017 A 
ATOM     27  C   UNL     1       2.018  -1.448  -3.218  0.00  0.00    +0.041 A 
ATOM     28  C   UNL     1       2.314  -1.798  -1.899  0.00  0.00    +0.062 A 
ATOM     29  C   UNL     1       1.796  -1.054  -0.857  0.00  0.00    +0.162 A 
BRANCH  24  31
ATOM     30  C   UNL     1      -0.378   1.872  -0.442  0.00  0.00    +0.277 C 
ATOM     31  O   UNL     1       0.459   0.766  -0.098  0.00  0.00    -0.491 OA
ENDBRANCH  24  31
BRANCH  29  32
ATOM     32  O   UNL     1       2.086  -1.389   0.429  0.00  0.00    -0.491 OA
ATOM     33  C   UNL     1       2.938  -2.519   0.628  0.00  0.00    +0.277 C 
ENDBRANCH  29  32
ENDBRANCH   1  27
TORSDOF 4
