REMARK  Name = ZINC17578071
REMARK  10 active torsions:
REMARK  status: ('A' for Active; 'I' for Inactive)
REMARK    1  A    between atoms: C_1  and  C_2
REMARK    2  A    between atoms: C_7  and  C_8
REMARK    3  A    between atoms: C_8  and  C_9
REMARK    4  A    between atoms: N_11  and  N_12
REMARK    5  A    between atoms: C_13  and  C_15
REMARK    6  A    between atoms: C_19  and  S_21
REMARK    7  A    between atoms: S_21  and  N_24
REMARK    8  A    between atoms: N_24  and  C_25
REMARK    9  A    between atoms: C_30  and  O_31
REMARK   10  A    between atoms: O_31  and  C_32
REMARK                            x       y       z     vdW  Elec       q    Type
REMARK                         _______ _______ _______ _____ _____    ______ ____
ROOT
ATOM      1  C   UNL     1      -1.884   2.874  -3.348  0.00  0.00    +0.040 A 
ATOM      2  C   UNL     1      -2.996   2.041  -3.489  0.00  0.00    +0.014 A 
ATOM      3  C   UNL     1      -3.213   1.026  -2.582  0.00  0.00    +0.023 A 
ATOM      4  C   UNL     1      -2.328   0.828  -1.535  0.00  0.00    +0.068 A 
ATOM      5  C   UNL     1      -1.227   1.655  -1.386  0.00  0.00    +0.127 A 
ATOM      6  C   UNL     1      -0.999   2.673  -2.287  0.00  0.00    +0.043 A 
ATOM      7 CL   UNL     1      -2.604  -0.457  -0.400  0.00  0.00    -0.082 Cl
ENDROOT
BRANCH   1   9
ATOM      8  N   UNL     1      -2.502   4.154  -5.341  0.00  0.00    -0.230 N 
ATOM      9  C   UNL     1      -1.645   3.963  -4.318  0.00  0.00    +0.260 C 
ATOM     10  O   UNL     1      -0.676   4.687  -4.192  0.00  0.00    -0.269 OA
ATOM     11  H   UNL     1      -3.275   3.577  -5.441  0.00  0.00    +0.173 HD
BRANCH   8  14
ATOM     12  C   UNL     1      -3.132   5.378  -7.283  0.00  0.00    +0.233 C 
ATOM     13  O   UNL     1      -4.098   4.656  -7.408  0.00  0.00    -0.274 OA
ATOM     14  N   UNL     1      -2.275   5.187  -6.260  0.00  0.00    -0.234 N 
ATOM     15  H   UNL     1      -1.502   5.764  -6.160  0.00  0.00    +0.173 HD
BRANCH  12  16
ATOM     16  C   UNL     1      -2.888   6.489  -8.272  0.00  0.00    +0.132 C 
BRANCH  16  23
ATOM     17  C   UNL     1      -5.372   7.870  -7.753  0.00  0.00    +0.044 C 
ATOM     18  C   UNL     1      -5.170   7.148  -9.060  0.00  0.00    -0.047 A 
ATOM     19  C   UNL     1      -6.174   7.147 -10.011  0.00  0.00    +0.003 A 
ATOM     20  C   UNL     1      -5.988   6.486 -11.211  0.00  0.00    +0.000 A 
ATOM     21  C   UNL     1      -4.799   5.825 -11.459  0.00  0.00    +0.000 A 
ATOM     22  C   UNL     1      -3.794   5.830 -10.510  0.00  0.00    +0.004 A 
ATOM     23  C   UNL     1      -3.982   6.488  -9.308  0.00  0.00    -0.036 A 
ENDBRANCH  16  23
ENDBRANCH  12  16
ENDBRANCH   8  14
ENDBRANCH   1   9
BRANCH   5  24
ATOM     24  S   UNL     1      -0.111   1.400  -0.046  0.00  0.00    +0.074 S 
ATOM     25  O   UNL     1       0.234   0.021  -0.061  0.00  0.00    -0.150 OA
ATOM     26  O   UNL     1       0.865   2.429  -0.130  0.00  0.00    -0.150 OA
BRANCH  24  27
ATOM     27  N   UNL     1      -0.957   1.661   1.353  0.00  0.00    -0.213 N 
ATOM     28  H   UNL     1      -1.143   0.922   1.952  0.00  0.00    +0.174 HD
BRANCH  27  29
ATOM     29  C   UNL     1      -1.403   2.950   1.670  0.00  0.00    +0.090 A 
ATOM     30  C   UNL     1      -1.823   3.807   0.664  0.00  0.00    +0.028 A 
ATOM     31  C   UNL     1      -2.269   5.077   0.980  0.00  0.00    +0.002 A 
ATOM     32  C   UNL     1      -2.287   5.499   2.297  0.00  0.00    +0.004 A 
ATOM     33  C   UNL     1      -1.865   4.651   3.304  0.00  0.00    +0.047 A 
ATOM     34  C   UNL     1      -1.422   3.375   2.996  0.00  0.00    +0.142 A 
BRANCH  34  35
ATOM     35  O   UNL     1      -1.006   2.541   3.986  0.00  0.00    -0.493 OA
ATOM     36  C   UNL     1      -1.052   3.045   5.322  0.00  0.00    +0.277 C 
ENDBRANCH  34  35
ENDBRANCH  27  29
ENDBRANCH  24  27
ENDBRANCH   5  24
TORSDOF 8
