REMARK  Name = ZINC39480534
REMARK  5 active torsions:
REMARK  status: ('A' for Active; 'I' for Inactive)
REMARK    1  A    between atoms: C_1  and  N_2
REMARK    2  A    between atoms: C_6  and  S_11
REMARK    3  A    between atoms: C_8  and  O_9
REMARK    4  A    between atoms: O_9  and  C_10
REMARK    5  A    between atoms: S_11  and  C_14
REMARK                            x       y       z     vdW  Elec       q    Type
REMARK                         _______ _______ _______ _____ _____    ______ ____
ROOT
ATOM      1  C   UNL     1      -0.018   1.461   0.010  0.00  0.00    +0.137 C 
ATOM      2  N   UNL     1       0.002  -0.004   0.002  0.00  0.00    -0.283 N 
ATOM      3  C   UNL     1      -1.245  -0.586   0.005  0.00  0.00    +0.081 A 
ATOM      4  C   UNL     1      -2.255   0.123   0.624  0.00  0.00    -0.014 A 
ATOM      5  C   UNL     1      -3.565   0.031   0.329  0.00  0.00    +0.033 A 
ATOM      6  C   UNL     1      -3.941  -1.080  -0.434  0.00  0.00    +0.097 A 
ATOM      7  C   UNL     1      -2.976  -1.988  -0.837  0.00  0.00    +0.075 A 
ATOM      8  C   UNL     1      -1.620  -1.762  -0.632  0.00  0.00    +0.143 A 
ATOM      9  C   UNL     1      -1.765   0.590   2.033  0.00  0.00    +0.100 C 
ATOM     10  C   UNL     1      -0.373  -0.032   1.996  0.00  0.00    +0.089 C 
ATOM     11  N   UNL     1       0.753   0.584   1.905  0.00  0.00    -0.238 NA
ATOM     12  C   UNL     1       1.751  -0.137   1.323  0.00  0.00    +0.142 A 
ATOM     13  C   UNL     1       1.256  -0.548  -0.013  0.00  0.00    +0.156 A 
ATOM     14  N   UNL     1       2.017  -1.235  -0.775  0.00  0.00    -0.218 NA
ATOM     15  C   UNL     1       3.237  -1.583  -0.380  0.00  0.00    +0.225 A 
ATOM     16  N   UNL     1       3.721  -1.244   0.800  0.00  0.00    -0.222 NA
ATOM     17  C   UNL     1       2.999  -0.523   1.679  0.00  0.00    +0.160 A 
ATOM     18 CL   UNL     1       3.651  -0.090   3.228  0.00  0.00    -0.060 Cl
ATOM     19 BR   UNL     1      -0.293  -1.918   2.095  0.00  0.00    -0.033 Br
ENDROOT
BRANCH   6  20
ATOM     20  S   UNL     1      -5.628  -1.323  -0.878  0.00  0.00    +0.025 S 
ATOM     21  O   UNL     1      -5.788  -2.714  -1.122  0.00  0.00    -0.164 OA
ATOM     22  O   UNL     1      -6.406  -0.624   0.084  0.00  0.00    -0.164 OA
BRANCH  20  23
ATOM     23  C   UNL     1      -5.883  -0.509  -2.420  0.00  0.00    +0.094 A 
ATOM     24  C   UNL     1      -6.275   0.817  -2.445  0.00  0.00    +0.027 A 
ATOM     25  C   UNL     1      -6.475   1.455  -3.655  0.00  0.00    +0.002 A 
ATOM     26  C   UNL     1      -6.283   0.768  -4.839  0.00  0.00    +0.000 A 
ATOM     27  C   UNL     1      -5.891  -0.557  -4.814  0.00  0.00    +0.002 A 
ATOM     28  C   UNL     1      -5.686  -1.194  -3.604  0.00  0.00    +0.027 A 
ENDBRANCH  20  23
ENDBRANCH   6  20
BRANCH   8  29
ATOM     29  O   UNL     1      -0.689  -2.663  -1.044  0.00  0.00    -0.493 OA
ATOM     30  C   UNL     1      -1.170  -3.843  -1.691  0.00  0.00    +0.277 C 
ENDBRANCH   8  29
TORSDOF 3
