REMARK  Name = ZINC35844811
REMARK  19 active torsions:
REMARK  status: ('A' for Active; 'I' for Inactive)
REMARK    1  A    between atoms: C_1  and  C_2
REMARK    2  A    between atoms: C_2  and  C_3
REMARK    3  A    between atoms: C_3  and  C_4
REMARK    4  A    between atoms: C_4  and  C_6
REMARK    5  A    between atoms: C_4  and  N_11
REMARK    6  A    between atoms: C_6  and  O_8
REMARK    7  A    between atoms: O_8  and  C_9
REMARK    8  A    between atoms: C_9  and  C_10
REMARK    9  A    between atoms: N_11  and  C_12
REMARK   10  A    between atoms: N_11  and  C_15
REMARK   11  A    between atoms: C_12  and  C_13
REMARK   12  A    between atoms: C_13  and  C_14
REMARK   13  A    between atoms: C_15  and  C_16
REMARK   14  A    between atoms: N_18  and  C_19
REMARK   15  A    between atoms: N_18  and  C_27
REMARK   16  A    between atoms: C_19  and  C_20
REMARK   17  A    between atoms: C_20  and  C_21
REMARK   18  A    between atoms: C_27  and  C_28
REMARK   19  A    between atoms: C_31  and  C_33
REMARK                            x       y       z     vdW  Elec       q    Type
REMARK                         _______ _______ _______ _____ _____    ______ ____
ROOT
ATOM      1  C   UNL     1      -2.511  -3.361  -0.752  0.00  0.00    +0.199 C 
ATOM      2  O   UNL     1      -2.587  -4.014  -1.771  0.00  0.00    -0.278 OA
ATOM      3  N   UNL     1      -3.571  -3.277   0.076  0.00  0.00    -0.295 N 
ENDROOT
BRANCH   1   4
ATOM      4  C   UNL     1      -1.230  -2.643  -0.412  0.00  0.00    +0.020 C 
BRANCH   4   5
ATOM      5  N   UNL     1      -0.270  -2.807  -1.512  0.00  0.00    +0.394 N 
ATOM      6  H   UNL     1      -0.171  -3.787  -1.728  0.00  0.00    -0.080 HD
BRANCH   5   7
ATOM      7  C   UNL     1      -0.757  -2.090  -2.698  0.00  0.00    +0.043 C 
BRANCH   7   8
ATOM      8  C   UNL     1      -0.824  -0.614  -2.400  0.00  0.00    +0.293 C 
ATOM      9  O   UNL     1      -0.533  -0.205  -1.301  0.00  0.00    -0.253 OA
BRANCH   8  10
ATOM     10  O   UNL     1      -1.207   0.247  -3.357  0.00  0.00    -0.466 OA
BRANCH  10  11
ATOM     11  C   UNL     1      -1.247   1.631  -3.005  0.00  0.00    +0.228 C 
ATOM     12  C   UNL     1      -1.702   2.451  -4.214  0.00  0.00    +0.048 C 
ENDBRANCH  10  11
ENDBRANCH   8  10
ENDBRANCH   7   8
BRANCH   7  13
ATOM     13  C   UNL     1       0.199  -2.331  -3.868  0.00  0.00    -0.005 C 
BRANCH  13  15
ATOM     14  C   UNL     1       1.215  -4.075  -5.340  0.00  0.00    +0.004 C 
ATOM     15  C   UNL     1       0.182  -3.815  -4.242  0.00  0.00    -0.004 C 
ENDBRANCH  13  15
ENDBRANCH   7  13
ENDBRANCH   5   7
BRANCH   5  16
ATOM     16  C   UNL     1       1.033  -2.260  -1.110  0.00  0.00    -0.077 C 
BRANCH  16  17
ATOM     17  C   UNL     1       1.617  -3.111   0.020  0.00  0.00    -0.022 C 
ATOM     18  C   UNL     1       2.928  -2.488   0.502  0.00  0.00    +0.002 C 
ENDBRANCH  16  17
ENDBRANCH   5  16
ENDBRANCH   4   5
ENDBRANCH   1   4
BRANCH   3  19
ATOM     19  C   UNL     1      -4.776  -4.064  -0.195  0.00  0.00    +0.113 C 
BRANCH  19  20
ATOM     20  C   UNL     1      -4.665  -5.423   0.499  0.00  0.00    +0.054 C 
BRANCH  20  21
ATOM     21  C   UNL     1      -5.905  -6.232   0.220  0.00  0.00    -0.046 A 
ATOM     22  C   UNL     1      -6.995  -6.142   1.067  0.00  0.00    +0.004 A 
ATOM     23  C   UNL     1      -8.132  -6.885   0.811  0.00  0.00    +0.000 A 
ATOM     24  C   UNL     1      -8.180  -7.717  -0.292  0.00  0.00    +0.000 A 
ATOM     25  C   UNL     1      -7.091  -7.807  -1.139  0.00  0.00    +0.000 A 
ATOM     26  C   UNL     1      -5.955  -7.061  -0.885  0.00  0.00    +0.004 A 
ENDBRANCH  20  21
ENDBRANCH  19  20
ENDBRANCH   3  19
BRANCH   3  27
ATOM     27  C   UNL     1      -3.517  -2.399   1.248  0.00  0.00    +0.181 C 
BRANCH  27  28
ATOM     28  C   UNL     1      -4.161  -1.078   0.915  0.00  0.00    +0.122 A 
ATOM     29  C   UNL     1      -5.477  -0.807   0.974  0.00  0.00    +0.046 A 
ATOM     30  C   UNL     1      -5.635   0.542   0.580  0.00  0.00    +0.045 A 
ATOM     31  C   UNL     1      -4.406   1.015   0.304  0.00  0.00    +0.102 A 
ATOM     32  O   UNL     1      -3.517   0.031   0.514  0.00  0.00    -0.463 OA
ATOM     33  C   UNL     1      -4.082   2.412  -0.157  0.00  0.00    +0.086 C 
ENDBRANCH  27  28
ENDBRANCH   3  27
TORSDOF 15
