REMARK  Name = ZINC62179859
REMARK  3 active torsions:
REMARK  status: ('A' for Active; 'I' for Inactive)
REMARK    1  A    between atoms: C_1  and  N_2
REMARK    2  A    between atoms: C_6  and  N_12
REMARK    3  A    between atoms: C_13  and  C_15
REMARK                            x       y       z     vdW  Elec       q    Type
REMARK                         _______ _______ _______ _____ _____    ______ ____
ROOT
ATOM      1  N   UNL     1      -3.773  -4.056  -0.002  0.00  0.00    -0.281 N 
ATOM      2  C   UNL     1      -3.473  -5.181  -0.680  0.00  0.00    +0.248 C 
ATOM      3  O   UNL     1      -2.387  -5.298  -1.214  0.00  0.00    -0.270 OA
ATOM      4  H   UNL     1      -4.612  -3.989   0.480  0.00  0.00    +0.155 HD
ENDROOT
BRANCH   1  10
ATOM      5  C   UNL     1       0.000   1.448   0.038  0.00  0.00    +0.156 C 
ATOM      6  N   UNL     1       0.015  -0.017   0.029  0.00  0.00    -0.277 N 
ATOM      7  C   UNL     1      -1.102  -0.854   0.022  0.00  0.00    +0.090 A 
ATOM      8  C   UNL     1      -2.468  -0.617   0.021  0.00  0.00    +0.031 A 
ATOM      9  C   UNL     1      -3.351  -1.677   0.013  0.00  0.00    +0.025 A 
ATOM     10  C   UNL     1      -2.873  -2.983   0.006  0.00  0.00    +0.037 A 
ATOM     11  C   UNL     1      -1.508  -3.225   0.007  0.00  0.00    +0.071 A 
ATOM     12  C   UNL     1      -0.618  -2.163   0.015  0.00  0.00    +0.159 A 
ATOM     13  O   UNL     1       0.735  -2.091   0.018  0.00  0.00    -0.407 OA
ATOM     14  C   UNL     1       1.110  -0.803   0.022  0.00  0.00    +0.421 A 
ATOM     15  O   UNL     1       2.260  -0.406   0.021  0.00  0.00    -0.223 OA
ENDBRANCH   1  10
BRANCH   2  16
ATOM     16  C   UNL     1      -4.464  -6.273  -0.774  0.00  0.00    +0.038 A 
ATOM     17  C   UNL     1      -5.714  -6.139  -0.166  0.00  0.00    +0.014 A 
ATOM     18  C   UNL     1      -6.636  -7.161  -0.258  0.00  0.00    +0.022 A 
ATOM     19  C   UNL     1      -6.324  -8.319  -0.950  0.00  0.00    +0.059 A 
ATOM     20  C   UNL     1      -5.084  -8.459  -1.555  0.00  0.00    +0.060 A 
ATOM     21  C   UNL     1      -4.156  -7.440  -1.475  0.00  0.00    +0.034 A 
ATOM     22 CL   UNL     1      -4.701  -9.915  -2.420  0.00  0.00    -0.082 Cl
ATOM     23 CL   UNL     1      -7.489  -9.601  -1.060  0.00  0.00    -0.082 Cl
ENDBRANCH   2  16
TORSDOF 2
