REMARK  Name = ZINC50587110
REMARK  4 active torsions:
REMARK  status: ('A' for Active; 'I' for Inactive)
REMARK    1  A    between atoms: C_1  and  C_2
REMARK    2  A    between atoms: C_4  and  C_17
REMARK    3  A    between atoms: N_5  and  C_7
REMARK    4  A    between atoms: C_8  and  C_15
REMARK                            x       y       z     vdW  Elec       q    Type
REMARK                         _______ _______ _______ _____ _____    ______ ____
ROOT
ATOM      1  C   UNL     1       0.053  -3.246   1.452  0.00  0.00    +0.178 A 
ATOM      2  C   UNL     1       0.053  -3.243   2.801  0.00  0.00    +0.084 A 
ATOM      3  N   UNL     1       0.075  -4.571   3.226  0.00  0.00    -0.294 N 
ATOM      4  C   UNL     1       0.088  -5.269   4.414  0.00  0.00    +0.101 A 
ATOM      5  C   UNL     1       0.110  -6.601   4.422  0.00  0.00    +0.067 A 
ATOM      6  S   UNL     1       0.115  -6.981   2.677  0.00  0.00    -0.058 S 
ATOM      7  C   UNL     1       0.087  -5.309   2.072  0.00  0.00    +0.180 A 
ATOM      8  N   UNL     1       0.068  -4.524   1.034  0.00  0.00    -0.202 NA
ENDROOT
BRANCH   1  13
ATOM      9  C   UNL     1      -0.018   1.503   0.010  0.00  0.00    +0.069 C 
ATOM     10  C   UNL     1       0.002  -0.004   0.002  0.00  0.00    +0.079 A 
ATOM     11  C   UNL     1       0.008  -0.818  -1.136  0.00  0.00    +0.085 A 
ATOM     12  C   UNL     1       0.027  -2.108  -0.726  0.00  0.00    +0.062 A 
ATOM     13  N   UNL     1       0.034  -2.110   0.627  0.00  0.00    -0.215 N 
ATOM     14  N   UNL     1       0.023  -0.777   1.059  0.00  0.00    -0.168 NA
ATOM     15  C   UNL     1       0.039  -3.324  -1.616  0.00  0.00    +0.067 C 
ATOM     16 CL   UNL     1      -0.007  -0.270  -2.784  0.00  0.00    -0.080 Cl
ENDBRANCH   1  13
BRANCH   2  17
ATOM     17  C   UNL     1       0.034  -2.025   3.688  0.00  0.00    +0.166 C 
ATOM     18 CL   UNL     1       1.726  -1.512   4.041  0.00  0.00    -0.119 Cl
ENDBRANCH   2  17
TORSDOF 2
