REMARK  Name = ZINC63806697
REMARK  4 active torsions:
REMARK  status: ('A' for Active; 'I' for Inactive)
REMARK    1  A    between atoms: C_7  and  C_10
REMARK    2  A    between atoms: C_13  and  S_15
REMARK    3  A    between atoms: S_15  and  C_16
REMARK    4  A    between atoms: C_16  and  C_17
REMARK                            x       y       z     vdW  Elec       q    Type
REMARK                         _______ _______ _______ _____ _____    ______ ____
ROOT
ATOM      1  C   UNL     1       0.676  -3.130  -0.022  0.00  0.00    +0.248 A 
ATOM      2  N   UNL     1      -0.646  -3.061  -0.014  0.00  0.00    -0.107 NA
ATOM      3  N   UNL     1      -1.132  -4.253  -0.015  0.00  0.00    -0.101 NA
ATOM      4  C   UNL     1      -0.141  -5.131  -0.023  0.00  0.00    +0.278 A 
ATOM      5  O   UNL     1       1.013  -4.441  -0.033  0.00  0.00    -0.411 OA
ENDROOT
BRANCH   1  12
ATOM      6  C   UNL     1      -0.016   1.354   0.009  0.00  0.00    +0.001 A 
ATOM      7  C   UNL     1       1.163   2.101   0.002  0.00  0.00    +0.002 A 
ATOM      8  C   UNL     1       2.384   1.511  -0.013  0.00  0.00    +0.026 A 
ATOM      9  C   UNL     1       2.483   0.096  -0.022  0.00  0.00    +0.043 A 
ATOM     10  N   UNL     1       3.531  -0.705  -0.037  0.00  0.00    -0.380 N 
ATOM     11  C   UNL     1       3.075  -2.098  -0.041  0.00  0.00    +0.154 C 
ATOM     12  C   UNL     1       1.563  -2.044  -0.025  0.00  0.00    +0.044 C 
ATOM     13  C   UNL     1       1.237  -0.687  -0.013  0.00  0.00    +0.008 A 
ATOM     14  C   UNL     1       0.002  -0.004   0.002  0.00  0.00    +0.010 A 
ATOM     15  H   UNL     1       4.457  -0.417  -0.045  0.00  0.00    +0.160 HD
ENDBRANCH   1  12
BRANCH   4  16
ATOM     16  S   UNL     1      -0.305  -6.886  -0.026  0.00  0.00    -0.059 S 
BRANCH  16  17
ATOM     17  C   UNL     1      -2.099  -7.159  -0.017  0.00  0.00    +0.134 C 
BRANCH  17  18
ATOM     18  C   UNL     1      -2.382  -8.639  -0.018  0.00  0.00    +0.059 A 
ATOM     19  C   UNL     1      -2.814  -9.260   1.137  0.00  0.00    +0.094 A 
ATOM     20  C   UNL     1      -3.071 -10.636   1.111  0.00  0.00    +0.259 A 
ATOM     21  O   UNL     1      -3.455 -11.214   2.115  0.00  0.00    -0.267 OA
ATOM     22  N   UNL     1      -2.888 -11.313  -0.043  0.00  0.00    -0.267 N 
ATOM     23  C   UNL     1      -3.134 -12.652  -0.085  0.00  0.00    +0.111 A 
ATOM     24  C   UNL     1      -2.957 -13.352  -1.229  0.00  0.00    +0.035 A 
ATOM     25  C   UNL     1      -2.517 -12.702  -2.391  0.00  0.00    +0.020 A 
ATOM     26  C   UNL     1      -2.269 -11.362  -2.359  0.00  0.00    +0.048 A 
ATOM     27  C   UNL     1      -2.458 -10.652  -1.160  0.00  0.00    +0.141 A 
ATOM     28  N   UNL     1      -2.221  -9.341  -1.128  0.00  0.00    -0.233 NA
ATOM     29 BR   UNL     1      -3.304 -15.210  -1.261  0.00  0.00    -0.049 Br
ENDBRANCH  17  18
ENDBRANCH  16  17
ENDBRANCH   4  16
TORSDOF 4
