REMARK  Name = ZINC18128541
REMARK  6 active torsions:
REMARK  status: ('A' for Active; 'I' for Inactive)
REMARK    1  A    between atoms: C_1  and  C_2
REMARK    2  A    between atoms: C_2  and  O_3
REMARK    3  A    between atoms: O_3  and  C_4
REMARK    4  A    between atoms: C_7  and  N_10
REMARK    5  A    between atoms: C_14  and  N_18
REMARK    6  A    between atoms: N_18  and  C_19
REMARK                            x       y       z     vdW  Elec       q    Type
REMARK                         _______ _______ _______ _____ _____    ______ ____
ROOT
ATOM      1  N   UNL     1      -1.979  -5.938   0.153  0.00  0.00    -0.209 N 
ATOM      2  C   UNL     1      -0.892  -6.717   0.215  0.00  0.00    +0.228 C 
ATOM      3  O   UNL     1       0.253  -6.322   0.260  0.00  0.00    -0.275 OA
ATOM      4  C   UNL     1      -1.320  -8.168   0.222  0.00  0.00    +0.125 C 
ATOM      5  C   UNL     1      -2.859  -8.092   0.152  0.00  0.00    +0.150 C 
ATOM      6  C   UNL     1      -3.139  -6.605   0.119  0.00  0.00    +0.244 C 
ATOM      7  O   UNL     1      -4.239  -6.099   0.067  0.00  0.00    -0.273 OA
ENDROOT
BRANCH   1  11
ATOM      8  C   UNL     1      -1.768  -1.772   0.088  0.00  0.00    +0.121 A 
ATOM      9  C   UNL     1      -2.308  -2.422   1.188  0.00  0.00    +0.047 A 
ATOM     10  C   UNL     1      -2.378  -3.800   1.210  0.00  0.00    +0.027 A 
ATOM     11  C   UNL     1      -1.908  -4.536   0.131  0.00  0.00    +0.044 A 
ATOM     12  C   UNL     1      -1.368  -3.886  -0.970  0.00  0.00    +0.027 A 
ATOM     13  C   UNL     1      -1.304  -2.506  -0.993  0.00  0.00    +0.047 A 
BRANCH   8  14
ATOM     14  O   UNL     1      -1.700  -0.414   0.067  0.00  0.00    -0.492 OA
BRANCH  14  16
ATOM     15  C   UNL     1      -2.037   1.786   1.008  0.00  0.00    +0.048 C 
ATOM     16  C   UNL     1      -2.197   0.279   1.214  0.00  0.00    +0.225 C 
ENDBRANCH  14  16
ENDBRANCH   8  14
ENDBRANCH   1  11
BRANCH   5  17
ATOM     17  N   UNL     1      -3.462  -8.704   1.345  0.00  0.00    -0.302 NA
ATOM     18  H   UNL     1      -2.918  -8.499   2.170  0.00  0.00    +0.123 HD
BRANCH  17  19
ATOM     19  C   UNL     1      -3.625 -10.153   1.167  0.00  0.00    +0.057 C 
ATOM     20  C   UNL     1      -4.953 -10.433   0.461  0.00  0.00    +0.037 C 
ATOM     21  C   UNL     1      -5.104 -11.943   0.246  0.00  0.00    +0.108 C 
ATOM     22  N   UNL     1      -4.954 -12.621   1.541  0.00  0.00    -0.314 N 
ATOM     23  C   UNL     1      -3.754 -12.352   2.345  0.00  0.00    +0.108 C 
ATOM     24  C   UNL     1      -3.619 -10.838   2.536  0.00  0.00    +0.037 C 
ATOM     25  C   UNL     1      -5.930 -13.502   1.997  0.00  0.00    +0.140 A 
ATOM     26  C   UNL     1      -5.881 -14.841   1.619  0.00  0.00    +0.082 A 
ATOM     27  C   UNL     1      -6.858 -15.706   2.079  0.00  0.00    +0.045 A 
ATOM     28  C   UNL     1      -7.855 -15.201   2.906  0.00  0.00    +0.061 A 
ATOM     29  C   UNL     1      -7.841 -13.861   3.240  0.00  0.00    +0.133 A 
ATOM     30  N   UNL     1      -6.893 -13.061   2.790  0.00  0.00    -0.237 NA
ATOM     31 CL   UNL     1      -9.104 -16.243   3.511  0.00  0.00    -0.082 Cl
ATOM     32 CL   UNL     1      -4.613 -15.418   0.583  0.00  0.00    -0.080 Cl
ENDBRANCH  17  19
ENDBRANCH   5  17
TORSDOF 5
