REMARK  Name = ZINC58979018
REMARK  16 active torsions:
REMARK  status: ('A' for Active; 'I' for Inactive)
REMARK    1  A    between atoms: C_1  and  C_2
REMARK    2  A    between atoms: C_2  and  C_3
REMARK    3  A    between atoms: C_3  and  C_4
REMARK    4  A    between atoms: C_4  and  C_5
REMARK    5  A    between atoms: C_5  and  N_6
REMARK    6  A    between atoms: N_6  and  C_7
REMARK    7  A    between atoms: N_6  and  C_11
REMARK    8  A    between atoms: C_7  and  C_8
REMARK    9  A    between atoms: C_8  and  C_9
REMARK   10  A    between atoms: C_9  and  C_10
REMARK   11  A    between atoms: C_11  and  S_13
REMARK   12  A    between atoms: S_13  and  C_14
REMARK   13  A    between atoms: C_14  and  C_15
REMARK   14  A    between atoms: C_15  and  C_17
REMARK   15  A    between atoms: C_17  and  C_18
REMARK   16  A    between atoms: C_17  and  C_27
REMARK                            x       y       z     vdW  Elec       q    Type
REMARK                         _______ _______ _______ _____ _____    ______ ____
ROOT
ATOM      1  C   UNL     1      -1.062  -8.431   4.001  0.00  0.00    +0.168 C 
ATOM      2  O   UNL     1      -0.206  -9.118   3.498  0.00  0.00    -0.295 OA
ENDROOT
BRANCH   1   3
ATOM      3  C   UNL     1      -0.959  -6.929   3.936  0.00  0.00    +0.152 C 
BRANCH   3   4
ATOM      4  S   UNL     1       0.551  -6.465   3.044  0.00  0.00    -0.095 S 
BRANCH   4   5
ATOM      5  C   UNL     1       0.527  -4.703   3.054  0.00  0.00    +0.110 C 
ATOM      6  S   UNL     1      -0.762  -3.869   3.812  0.00  0.00    -0.028 S 
BRANCH   5   7
ATOM      7  N   UNL     1       1.523  -4.012   2.465  0.00  0.00    -0.319 N 
BRANCH   7   8
ATOM      8  C   UNL     1       1.503  -2.548   2.473  0.00  0.00    +0.106 C 
BRANCH   8   9
ATOM      9  C   UNL     1       0.763  -2.041   1.233  0.00  0.00    +0.019 C 
BRANCH   9  10
ATOM     10  C   UNL     1       0.742  -0.511   1.242  0.00  0.00    +0.001 C 
BRANCH  10  12
ATOM     11  C   UNL     1      -0.019   1.526   0.010  0.00  0.00    +0.004 C 
ATOM     12  C   UNL     1       0.002  -0.004   0.002  0.00  0.00    -0.003 C 
ENDBRANCH  10  12
ENDBRANCH   9  10
ENDBRANCH   8   9
ENDBRANCH   7   8
BRANCH   7  13
ATOM     13  C   UNL     1       2.625  -4.726   1.816  0.00  0.00    +0.106 C 
BRANCH  13  14
ATOM     14  C   UNL     1       3.742  -4.972   2.832  0.00  0.00    +0.019 C 
BRANCH  14  15
ATOM     15  C   UNL     1       4.893  -5.718   2.155  0.00  0.00    -0.002 C 
ATOM     16  C   UNL     1       6.010  -5.963   3.171  0.00  0.00    +0.004 C 
ENDBRANCH  14  15
ENDBRANCH  13  14
ENDBRANCH   7  13
ENDBRANCH   5   7
ENDBRANCH   4   5
ENDBRANCH   3   4
ENDBRANCH   1   3
BRANCH   1  17
ATOM     17  C   UNL     1      -2.235  -9.077   4.694  0.00  0.00    +0.223 C 
BRANCH  17  18
ATOM     18  C   UNL     1      -2.454 -10.457   4.130  0.00  0.00    +0.133 A 
ATOM     19  N   UNL     1      -3.286 -10.747   3.173  0.00  0.00    -0.231 NA
ATOM     20  C   UNL     1      -3.234 -12.078   2.910  0.00  0.00    +0.089 A 
ATOM     21  C   UNL     1      -3.898 -12.909   2.004  0.00  0.00    +0.030 A 
ATOM     22  C   UNL     1      -3.623 -14.246   1.978  0.00  0.00    +0.002 A 
ATOM     23  C   UNL     1      -2.688 -14.793   2.846  0.00  0.00    +0.002 A 
ATOM     24  C   UNL     1      -2.021 -13.993   3.749  0.00  0.00    +0.028 A 
ATOM     25  C   UNL     1      -2.287 -12.631   3.789  0.00  0.00    +0.066 A 
ATOM     26  N   UNL     1      -1.808 -11.580   4.544  0.00  0.00    -0.340 N 
ATOM     27  H   UNL     1      -1.135 -11.632   5.241  0.00  0.00    +0.167 HD
ENDBRANCH  17  18
BRANCH  17  28
ATOM     28  C   UNL     1      -1.958  -9.175   6.137  0.00  0.00    +0.081 C 
ATOM     29  N   UNL     1      -1.745  -9.250   7.250  0.00  0.00    -0.195 NA
ENDBRANCH  17  28
ENDBRANCH   1  17
TORSDOF 14
