REMARK  Name = ZINC35465916
REMARK  15 active torsions:
REMARK  status: ('A' for Active; 'I' for Inactive)
REMARK    1  A    between atoms: C_1  and  C_2
REMARK    2  A    between atoms: C_3  and  C_10
REMARK    3  A    between atoms: C_4  and  C_8
REMARK    4  A    between atoms: C_4  and  C_9
REMARK    5  A    between atoms: C_10  and  O_12
REMARK    6  A    between atoms: O_12  and  C_13
REMARK    7  A    between atoms: C_15  and  O_41
REMARK    8  A    between atoms: C_17  and  O_40
REMARK    9  A    between atoms: C_19  and  O_39
REMARK   10  A    between atoms: C_21  and  C_24
REMARK   11  A    between atoms: C_24  and  O_25
REMARK   12  A    between atoms: O_25  and  C_26
REMARK   13  A    between atoms: C_28  and  O_38
REMARK   14  A    between atoms: C_30  and  O_37
REMARK   15  A    between atoms: C_32  and  O_36
REMARK                            x       y       z     vdW  Elec       q    Type
REMARK                         _______ _______ _______ _____ _____    ______ ____
ROOT
ATOM      1  C   UNL     1      -4.229   0.872  -0.800  0.00  0.00    +0.343 C 
ATOM      2  C   UNL     1      -5.597   0.210  -0.984  0.00  0.00    +0.214 C 
ATOM      3  C   UNL     1      -6.660   1.296  -1.173  0.00  0.00    +0.180 C 
ATOM      4  C   UNL     1      -6.629   2.241   0.033  0.00  0.00    +0.177 C 
ATOM      5  C   UNL     1      -5.221   2.824   0.177  0.00  0.00    +0.179 C 
ATOM      6  O   UNL     1      -4.277   1.760   0.318  0.00  0.00    -0.331 OA
ENDROOT
BRANCH   4   7
ATOM      7  O   UNL     1      -7.568   3.299  -0.166  0.00  0.00    -0.386 OA
ATOM      8  H   UNL     1      -8.482   3.000  -0.270  0.00  0.00    +0.210 HD
ENDBRANCH   4   7
BRANCH   3   9
ATOM      9  O   UNL     1      -7.950   0.690  -1.274  0.00  0.00    -0.386 OA
ATOM     10  H   UNL     1      -8.038   0.074  -2.014  0.00  0.00    +0.210 HD
ENDBRANCH   3   9
BRANCH   2  11
ATOM     11  O   UNL     1      -5.567  -0.636  -2.136  0.00  0.00    -0.383 OA
ATOM     12  H   UNL     1      -4.912  -1.345  -2.086  0.00  0.00    +0.210 HD
ENDBRANCH   2  11
BRANCH   1  13
ATOM     13  O   UNL     1      -3.240  -0.133  -0.568  0.00  0.00    -0.429 OA
BRANCH  13  14
ATOM     14  C   UNL     1      -1.958   0.276  -0.487  0.00  0.00    +0.338 C 
ATOM     15  O   UNL     1      -1.688   1.454  -0.611  0.00  0.00    -0.245 OA
BRANCH  14  18
ATOM     16  C   UNL     1       0.549   1.240  -0.069  0.00  0.00    +0.039 C 
ATOM     17  C   UNL     1       0.332  -0.251  -0.050  0.00  0.00    -0.062 C 
ATOM     18  C   UNL     1      -0.888  -0.703  -0.250  0.00  0.00    +0.041 C 
ATOM     19  C   UNL     1      -1.250  -2.159  -0.248  0.00  0.00    -0.003 C 
ATOM     20  C   UNL     1       0.009  -3.014  -0.414  0.00  0.00    +0.011 C 
ATOM     21  C   UNL     1       1.058  -2.537   0.598  0.00  0.00    +0.005 C 
ATOM     22  C   UNL     1       1.521  -1.136   0.190  0.00  0.00    +0.031 C 
ATOM     23  C   UNL     1      -2.212  -2.445  -1.403  0.00  0.00    +0.016 C 
ATOM     24  C   UNL     1      -1.931  -2.511   1.075  0.00  0.00    +0.016 C 
ENDBRANCH  14  18
ENDBRANCH  13  14
ENDBRANCH   1  13
BRANCH   5  25
ATOM     25  C   UNL     1      -5.166   3.723   1.414  0.00  0.00    +0.197 C 
BRANCH  25  26
ATOM     26  O   UNL     1      -3.888   4.359   1.484  0.00  0.00    -0.346 OA
BRANCH  26  27
ATOM     27  C   UNL     1      -3.731   5.225   2.610  0.00  0.00    +0.281 C 
ATOM     28  C   UNL     1      -2.441   6.035   2.455  0.00  0.00    +0.201 C 
ATOM     29  C   UNL     1      -2.248   6.916   3.693  0.00  0.00    +0.178 C 
ATOM     30  C   UNL     1      -2.231   6.028   4.941  0.00  0.00    +0.171 C 
ATOM     31  C   UNL     1      -3.529   5.218   5.000  0.00  0.00    +0.197 C 
ATOM     32  O   UNL     1      -3.662   4.445   3.806  0.00  0.00    -0.346 OA
BRANCH  30  33
ATOM     33  O   UNL     1      -1.115   5.138   4.878  0.00  0.00    -0.387 OA
ATOM     34  H   UNL     1      -1.041   4.545   5.638  0.00  0.00    +0.210 HD
ENDBRANCH  30  33
BRANCH  29  35
ATOM     35  O   UNL     1      -1.011   7.622   3.590  0.00  0.00    -0.386 OA
ATOM     36  H   UNL     1      -0.824   8.201   4.341  0.00  0.00    +0.210 HD
ENDBRANCH  29  35
BRANCH  28  37
ATOM     37  O   UNL     1      -2.530   6.858   1.291  0.00  0.00    -0.384 OA
ATOM     38  H   UNL     1      -2.658   6.364   0.469  0.00  0.00    +0.210 HD
ENDBRANCH  28  37
ENDBRANCH  26  27
ENDBRANCH  25  26
ENDBRANCH   5  25
TORSDOF 12
