REMARK  Name = ZINC22242415
REMARK  9 active torsions:
REMARK  status: ('A' for Active; 'I' for Inactive)
REMARK    1  A    between atoms: C_1  and  C_2
REMARK    2  A    between atoms: C_4  and  N_11
REMARK    3  A    between atoms: C_6  and  C_8
REMARK    4  A    between atoms: C_8  and  C_9
REMARK    5  A    between atoms: C_8  and  C_10
REMARK    6  A    between atoms: N_14  and  C_17
REMARK    7  A    between atoms: C_17  and  C_18
REMARK    8  A    between atoms: C_24  and  C_26
REMARK    9  A    between atoms: C_26  and  C_27
REMARK                            x       y       z     vdW  Elec       q    Type
REMARK                         _______ _______ _______ _____ _____    ______ ____
ROOT
ATOM      1  C   UNL     1      -1.913  -4.835  -5.457  0.00  0.00    +0.181 C 
ENDROOT
BRANCH   1   2
ATOM      2  C   UNL     1      -1.591  -4.391  -6.860  0.00  0.00    +0.233 C 
ATOM      3  O   UNL     1      -0.655  -3.646  -7.061  0.00  0.00    -0.274 OA
ATOM      4  N   UNL     1      -2.343  -4.822  -7.892  0.00  0.00    -0.264 N 
ATOM      5  C   UNL     1      -2.046  -4.412  -9.187  0.00  0.00    +0.165 A 
ATOM      6  N   UNL     1      -1.077  -3.620  -9.592  0.00  0.00    -0.233 NA
ATOM      7  C   UNL     1      -0.926  -3.324 -10.870  0.00  0.00    +0.124 A 
ATOM      8  C   UNL     1      -1.812  -3.872 -11.737  0.00  0.00    +0.015 A 
ATOM      9  S   UNL     1      -2.835  -4.815 -10.618  0.00  0.00    -0.057 S 
ATOM     10  H   UNL     1      -3.092  -5.417  -7.732  0.00  0.00    +0.157 HD
BRANCH   8  11
ATOM     11  C   UNL     1      -1.905  -3.728 -13.235  0.00  0.00    +0.080 C 
BRANCH  11  12
ATOM     12  C   UNL     1      -1.084  -4.805 -13.895  0.00  0.00    -0.024 A 
ATOM     13  C   UNL     1       0.219  -4.544 -14.276  0.00  0.00    +0.005 A 
ATOM     14  C   UNL     1       0.973  -5.532 -14.882  0.00  0.00    +0.000 A 
ATOM     15  C   UNL     1       0.425  -6.781 -15.106  0.00  0.00    +0.001 A 
ATOM     16  C   UNL     1      -0.878  -7.043 -14.725  0.00  0.00    +0.020 A 
ATOM     17  C   UNL     1      -1.631  -6.056 -14.114  0.00  0.00    +0.044 A 
ATOM     18 CL   UNL     1      -3.265  -6.386 -13.629  0.00  0.00    -0.083 Cl
ENDBRANCH  11  12
ENDBRANCH   8  11
ENDBRANCH   1   2
BRANCH   1  22
ATOM     19  N   UNL     1       0.030  -2.832  -2.322  0.00  0.00    -0.313 N 
ATOM     20  C   UNL     1       0.044  -4.302  -2.286  0.00  0.00    +0.122 C 
ATOM     21  C   UNL     1      -1.085  -4.822  -3.181  0.00  0.00    +0.104 C 
ATOM     22  N   UNL     1      -0.955  -4.232  -4.520  0.00  0.00    -0.291 NA
ATOM     23  C   UNL     1      -1.109  -2.772  -4.477  0.00  0.00    +0.104 C 
ATOM     24  C   UNL     1       0.014  -2.168  -3.634  0.00  0.00    +0.122 C 
BRANCH  19  28
ATOM     25  C   UNL     1       0.408   1.477   0.028  0.00  0.00    +0.063 C 
ATOM     26  C   UNL     1       0.205  -0.016   0.011  0.00  0.00    +0.017 A 
ATOM     27  C   UNL     1       0.218  -0.709  -1.184  0.00  0.00    +0.064 A 
ATOM     28  C   UNL     1       0.026  -2.092  -1.150  0.00  0.00    +0.125 A 
ATOM     29  N   UNL     1      -0.162  -2.687   0.024  0.00  0.00    -0.219 NA
ATOM     30  C   UNL     1      -0.167  -1.986   1.140  0.00  0.00    +0.112 A 
ATOM     31  N   UNL     1       0.017  -0.681   1.142  0.00  0.00    -0.347 N 
ATOM     32  H   UNL     1       0.010  -0.199   1.984  0.00  0.00    +0.167 HD
BRANCH  30  33
ATOM     33  C   UNL     1      -0.383  -2.698   2.451  0.00  0.00    +0.049 C 
ATOM     34  C   UNL     1       0.972  -3.023   3.083  0.00  0.00    +0.015 C 
ATOM     35  C   UNL     1      -1.183  -1.797   3.394  0.00  0.00    +0.015 C 
ENDBRANCH  30  33
ENDBRANCH  19  28
ENDBRANCH   1  22
TORSDOF 6
