REMARK  Name = ZINC56934743
REMARK  6 active torsions:
REMARK  status: ('A' for Active; 'I' for Inactive)
REMARK    1  A    between atoms: C_1  and  C_2
REMARK    2  A    between atoms: C_3  and  C_18
REMARK    3  A    between atoms: C_9  and  C_12
REMARK    4  A    between atoms: N_23  and  C_26
REMARK    5  A    between atoms: C_26  and  C_27
REMARK    6  A    between atoms: C_26  and  C_33
REMARK                            x       y       z     vdW  Elec       q    Type
REMARK                         _______ _______ _______ _____ _____    ______ ____
ROOT
ATOM      1  C   UNL     1       0.722   0.385  -2.882  0.00  0.00    +0.269 C 
ATOM      2  O   UNL     1       0.769   1.529  -3.291  0.00  0.00    -0.268 OA
ATOM      3  N   UNL     1       0.639  -0.639  -3.754  0.00  0.00    -0.294 N 
ATOM      4  C   UNL     1       0.474  -2.022  -3.281  0.00  0.00    +0.123 C 
ATOM      5  C   UNL     1       1.540  -2.896  -3.949  0.00  0.00    +0.104 C 
ATOM      6  N   UNL     1       1.466  -2.725  -5.406  0.00  0.00    -0.289 NA
ATOM      7  C   UNL     1       1.769  -1.342  -5.797  0.00  0.00    +0.104 C 
ATOM      8  C   UNL     1       0.706  -0.403  -5.204  0.00  0.00    +0.123 C 
ENDROOT
BRANCH   1  11
ATOM      9  C   UNL     1       1.150   2.532  -0.649  0.00  0.00    +0.068 C 
ATOM     10  C   UNL     1       0.941   1.052  -0.452  0.00  0.00    +0.076 A 
ATOM     11  C   UNL     1       0.755   0.118  -1.432  0.00  0.00    +0.170 A 
ATOM     12  N   UNL     1       0.606  -1.085  -0.851  0.00  0.00    -0.124 NA
ATOM     13  N   UNL     1       0.688  -0.960   0.428  0.00  0.00    -0.058 NA
ATOM     14  N   UNL     1       0.908   0.392   0.727  0.00  0.00    -0.192 N 
ATOM     15  C   UNL     1       1.061   0.949   1.996  0.00  0.00    +0.196 A 
ATOM     16  N   UNL     1       1.043   0.357   3.175  0.00  0.00    -0.221 NA
ATOM     17  C   UNL     1       1.206   1.046   4.293  0.00  0.00    +0.080 A 
ATOM     18  C   UNL     1       1.397   2.399   4.227  0.00  0.00    +0.077 A 
ATOM     19  S   UNL     1       1.340   2.654   2.458  0.00  0.00    -0.056 S 
BRANCH  17  20
ATOM     20  C   UNL     1       1.182   0.357   5.607  0.00  0.00    +0.001 A 
ATOM     21  C   UNL     1       1.348   1.087   6.783  0.00  0.00    +0.010 A 
ATOM     22  C   UNL     1       1.325   0.440   8.002  0.00  0.00    +0.001 A 
ATOM     23  C   UNL     1       1.137  -0.929   8.058  0.00  0.00    +0.000 A 
ATOM     24  C   UNL     1       0.971  -1.658   6.895  0.00  0.00    +0.001 A 
ATOM     25  C   UNL     1       0.987  -1.022   5.670  0.00  0.00    +0.010 A 
ENDBRANCH  17  20
ENDBRANCH   1  11
BRANCH   6  26
ATOM     26  C   UNL     1       2.354  -3.673  -6.093  0.00  0.00    +0.117 C 
BRANCH  26  27
ATOM     27  C   UNL     1       1.956  -5.082  -5.738  0.00  0.00    -0.026 A 
ATOM     28  C   UNL     1       0.619  -5.410  -5.606  0.00  0.00    +0.005 A 
ATOM     29  C   UNL     1       0.254  -6.703  -5.280  0.00  0.00    +0.000 A 
ATOM     30  C   UNL     1       1.225  -7.668  -5.087  0.00  0.00    +0.000 A 
ATOM     31  C   UNL     1       2.561  -7.340  -5.220  0.00  0.00    +0.000 A 
ATOM     32  C   UNL     1       2.926  -6.048  -5.550  0.00  0.00    +0.005 A 
ENDBRANCH  26  27
BRANCH  26  33
ATOM     33  C   UNL     1       2.239  -3.479  -7.583  0.00  0.00    -0.026 A 
ATOM     34  C   UNL     1       1.003  -3.244  -8.157  0.00  0.00    +0.005 A 
ATOM     35  C   UNL     1       0.898  -3.066  -9.524  0.00  0.00    +0.000 A 
ATOM     36  C   UNL     1       2.028  -3.122 -10.317  0.00  0.00    +0.000 A 
ATOM     37  C   UNL     1       3.264  -3.356  -9.743  0.00  0.00    +0.000 A 
ATOM     38  C   UNL     1       3.370  -3.530  -8.376  0.00  0.00    +0.005 A 
ENDBRANCH  26  33
ENDBRANCH   6  26
TORSDOF 5
