REMARK  Name = ZINC04121165
REMARK  3 active torsions:
REMARK  status: ('A' for Active; 'I' for Inactive)
REMARK    1  A    between atoms: C_1  and  C_2
REMARK    2  A    between atoms: C_9  and  C_12
REMARK    3  A    between atoms: N_14  and  C_15
REMARK                            x       y       z     vdW  Elec       q    Type
REMARK                         _______ _______ _______ _____ _____    ______ ____
ROOT
ATOM      1  C   UNL     1      -2.478   6.636   0.039  0.00  0.00    +0.255 C 
ATOM      2  O   UNL     1      -2.151   7.805   0.129  0.00  0.00    -0.270 OA
ATOM      3  N   UNL     1      -3.782   6.304  -0.034  0.00  0.00    -0.280 N 
ATOM      4  H   UNL     1      -4.046   5.371  -0.023  0.00  0.00    +0.155 HD
ENDROOT
BRANCH   1  13
ATOM      5  C   UNL     1      -2.460   1.347   0.039  0.00  0.00    +0.064 C 
ATOM      6  C   UNL     1      -1.059   1.901   0.001  0.00  0.00    +0.033 A 
ATOM      7  C   UNL     1      -0.013   1.075  -0.025  0.00  0.00    +0.070 A 
ATOM      8  S   UNL     1       1.356   2.217  -0.070  0.00  0.00    -0.057 S 
ATOM      9  C   UNL     1       0.444   3.687  -0.045  0.00  0.00    +0.180 A 
ATOM     10  N   UNL     1      -0.853   3.260  -0.004  0.00  0.00    -0.259 N 
ATOM     11  C   UNL     1      -1.821   4.226   0.024  0.00  0.00    +0.271 A 
ATOM     12  O   UNL     1      -2.998   3.911   0.062  0.00  0.00    -0.266 OA
ATOM     13  C   UNL     1      -1.451   5.588   0.009  0.00  0.00    +0.120 A 
ATOM     14  C   UNL     1      -0.094   5.926  -0.034  0.00  0.00    +0.132 A 
ATOM     15  N   UNL     1       0.802   4.954  -0.059  0.00  0.00    -0.230 NA
ENDBRANCH   1  13
BRANCH   3  16
ATOM     16  C   UNL     1      -4.754   7.306  -0.127  0.00  0.00    +0.054 A 
ATOM     17  C   UNL     1      -4.482   8.478  -0.820  0.00  0.00    +0.025 A 
ATOM     18  C   UNL     1      -5.444   9.465  -0.910  0.00  0.00    +0.003 A 
ATOM     19  C   UNL     1      -6.678   9.289  -0.310  0.00  0.00    +0.021 A 
ATOM     20  C   UNL     1      -6.953   8.123   0.382  0.00  0.00    +0.061 A 
ATOM     21  C   UNL     1      -5.996   7.128   0.471  0.00  0.00    +0.080 A 
ATOM     22 CL   UNL     1      -6.344   5.662   1.333  0.00  0.00    -0.080 Cl
ATOM     23 CL   UNL     1      -8.503   7.905   1.133  0.00  0.00    -0.082 Cl
ENDBRANCH   3  16
TORSDOF 2
