REMARK  Name = ZINC38990115
REMARK  10 active torsions:
REMARK  status: ('A' for Active; 'I' for Inactive)
REMARK    1  A    between atoms: C_1  and  C_2
REMARK    2  A    between atoms: C_2  and  C_3
REMARK    3  A    between atoms: C_7  and  C_35
REMARK    4  A    between atoms: C_8  and  N_9
REMARK    5  A    between atoms: C_10  and  C_12
REMARK    6  A    between atoms: C_12  and  S_13
REMARK    7  A    between atoms: S_13  and  C_14
REMARK    8  A    between atoms: C_18  and  C_22
REMARK    9  A    between atoms: N_20  and  N_21
REMARK   10  A    between atoms: C_25  and  C_28
REMARK                            x       y       z     vdW  Elec       q    Type
REMARK                         _______ _______ _______ _____ _____    ______ ____
ROOT
ATOM      1  C   UNL     1       7.429  -0.648   2.746  0.00  0.00    +0.214 C 
ATOM      2  N   UNL     1       6.891  -1.378   3.916  0.00  0.00    -0.228 NA
ATOM      3  N   UNL     1       6.945  -0.402   5.016  0.00  0.00    -0.234 NA
ATOM      4  C   UNL     1       6.580   0.875   4.349  0.00  0.00    +0.185 C 
ATOM      5  N   UNL     1       7.231   0.791   3.020  0.00  0.00    -0.197 NA
ATOM      6  H   UNL     1       5.944  -1.682   3.749  0.00  0.00    +0.143 HD
ATOM      7  H   UNL     1       7.873  -0.352   5.410  0.00  0.00    +0.143 HD
ENDROOT
BRANCH   4   8
ATOM      8  C   UNL     1       7.125   2.067   5.139  0.00  0.00    +0.187 C 
ATOM      9  C   UNL     1       6.577   2.066   6.556  0.00  0.00    +0.034 C 
ATOM     10  C   UNL     1       5.889   3.221   6.636  0.00  0.00    +0.091 C 
ATOM     11  N   UNL     1       5.959   3.898   5.460  0.00  0.00    -0.154 NA
ATOM     12  N   UNL     1       6.622   3.333   4.582  0.00  0.00    -0.176 NA
BRANCH  10  13
ATOM     13  C   UNL     1       5.157   3.688   7.840  0.00  0.00    +0.002 A 
ATOM     14  C   UNL     1       5.154   2.915   9.000  0.00  0.00    +0.011 A 
ATOM     15  C   UNL     1       4.472   3.354  10.116  0.00  0.00    +0.020 A 
ATOM     16  C   UNL     1       3.791   4.559  10.085  0.00  0.00    +0.041 A 
ATOM     17  C   UNL     1       3.791   5.330   8.935  0.00  0.00    +0.020 A 
ATOM     18  C   UNL     1       4.476   4.903   7.815  0.00  0.00    +0.011 A 
ATOM     19 CL   UNL     1       2.934   5.104  11.492  0.00  0.00    -0.084 Cl
ENDBRANCH  10  13
ENDBRANCH   4   8
BRANCH   5  20
ATOM     20  N   UNL     1       6.405   1.407   1.994  0.00  0.00    -0.264 NA
ATOM     21  H   UNL     1       6.805   1.271   1.078  0.00  0.00    +0.137 HD
ATOM     22  H   UNL     1       5.460   1.057   2.033  0.00  0.00    +0.137 HD
ENDBRANCH   5  20
BRANCH   1  23
ATOM     23  S   UNL     1       6.527  -1.125   1.247  0.00  0.00    -0.115 S 
BRANCH  23  24
ATOM     24  C   UNL     1       7.231  -2.739   0.807  0.00  0.00    +0.168 C 
BRANCH  24  26
ATOM     25  N   UNL     1       6.827  -4.512  -0.870  0.00  0.00    -0.284 N 
ATOM     26  C   UNL     1       6.478  -3.312  -0.366  0.00  0.00    +0.227 C 
ATOM     27  O   UNL     1       5.558  -2.693  -0.857  0.00  0.00    -0.275 OA
ATOM     28  H   UNL     1       7.530  -5.030  -0.447  0.00  0.00    +0.155 HD
BRANCH  25  34
ATOM     29  C   UNL     1       5.745  -6.332  -2.032  0.00  0.00    -0.026 A 
ATOM     30  C   UNL     1       5.097  -6.821  -3.149  0.00  0.00    +0.005 A 
ATOM     31  C   UNL     1       4.882  -5.999  -4.240  0.00  0.00    +0.001 A 
ATOM     32  C   UNL     1       5.314  -4.686  -4.217  0.00  0.00    +0.005 A 
ATOM     33  C   UNL     1       5.963  -4.191  -3.102  0.00  0.00    -0.029 A 
ATOM     34  C   UNL     1       6.176  -5.012  -2.003  0.00  0.00    +0.040 A 
ATOM     35  C   UNL     1       6.434  -2.760  -3.077  0.00  0.00    +0.045 C 
BRANCH  29  37
ATOM     36  C   UNL     1       4.848  -7.036   0.171  0.00  0.00    +0.009 C 
ATOM     37  C   UNL     1       5.978  -7.228  -0.843  0.00  0.00    +0.033 C 
ENDBRANCH  29  37
ENDBRANCH  25  34
ENDBRANCH  24  26
ENDBRANCH  23  24
ENDBRANCH   1  23
TORSDOF 8
