REMARK  Name = ZINC01065102
REMARK  7 active torsions:
REMARK  status: ('A' for Active; 'I' for Inactive)
REMARK    1  A    between atoms: C_1  and  C_2
REMARK    2  A    between atoms: C_2  and  C_34
REMARK    3  A    between atoms: C_6  and  C_24
REMARK    4  A    between atoms: C_8  and  C_22
REMARK    5  A    between atoms: C_9  and  N_21
REMARK    6  A    between atoms: N_10  and  C_11
REMARK    7  A    between atoms: C_15  and  N_17
REMARK                            x       y       z     vdW  Elec       q    Type
REMARK                         _______ _______ _______ _____ _____    ______ ____
ROOT
ATOM      1  C   UNL     1      -6.880  -0.002  -1.490  0.00  0.00    +0.011 C 
ATOM      2  C   UNL     1      -6.335   0.823  -2.658  0.00  0.00    -0.023 C 
ATOM      3  C   UNL     1      -5.847   2.179  -2.146  0.00  0.00    +0.058 C 
ATOM      4  C   UNL     1      -4.729   1.974  -1.153  0.00  0.00    +0.025 C 
ATOM      5  C   UNL     1      -3.890   0.922  -1.260  0.00  0.00    +0.025 C 
ATOM      6  C   UNL     1      -2.761   0.729  -0.280  0.00  0.00    +0.097 C 
ATOM      7  C   UNL     1      -2.984   1.532   0.968  0.00  0.00    +0.077 C 
ATOM      8  C   UNL     1      -3.868   2.562   0.991  0.00  0.00    +0.107 C 
ATOM      9  N   UNL     1      -4.583   2.884  -0.140  0.00  0.00    -0.260 N 
ATOM     10  C   UNL     1      -4.043  -0.026  -2.286  0.00  0.00    +0.162 C 
ATOM     11  O   UNL     1      -3.266  -0.958  -2.358  0.00  0.00    -0.292 OA
ATOM     12  C   UNL     1      -5.151   0.090  -3.297  0.00  0.00    +0.086 C 
ATOM     13  C   UNL     1      -7.438   1.032  -3.698  0.00  0.00    +0.011 C 
ENDROOT
BRANCH   9  14
ATOM     14  C   UNL     1      -5.166   4.152  -0.256  0.00  0.00    +0.042 A 
ATOM     15  C   UNL     1      -4.475   5.181  -0.884  0.00  0.00    +0.027 A 
ATOM     16  C   UNL     1      -5.051   6.430  -0.997  0.00  0.00    +0.042 A 
ATOM     17  C   UNL     1      -6.318   6.659  -0.486  0.00  0.00    +0.154 A 
ATOM     18  C   UNL     1      -7.009   5.635   0.140  0.00  0.00    +0.163 A 
ATOM     19  C   UNL     1      -6.438   4.382   0.251  0.00  0.00    +0.059 A 
ATOM     20  F   UNL     1      -6.880   7.882  -0.598  0.00  0.00    -0.203 F 
BRANCH  18  21
ATOM     21  N   UNL     1      -8.362   5.882   0.686  0.00  0.00    +0.059 N 
ATOM     22  O   UNL     1      -8.971   4.981   1.237  0.00  0.00    -0.126 OA
ATOM     23  O   UNL     1      -8.868   6.985   0.585  0.00  0.00    -0.126 OA
ENDBRANCH  18  21
ENDBRANCH   9  14
BRANCH   6  24
ATOM     24  C   UNL     1      -1.469   1.165  -0.923  0.00  0.00    -0.035 A 
ATOM     25  C   UNL     1      -0.447   0.253  -1.106  0.00  0.00    +0.005 A 
ATOM     26  C   UNL     1       0.736   0.651  -1.701  0.00  0.00    +0.015 A 
ATOM     27  C   UNL     1       0.898   1.963  -2.108  0.00  0.00    +0.018 A 
ATOM     28  C   UNL     1      -0.123   2.876  -1.920  0.00  0.00    +0.015 A 
ATOM     29  C   UNL     1      -1.306   2.478  -1.325  0.00  0.00    +0.005 A 
ATOM     30 BR   UNL     1       2.515   2.507  -2.923  0.00  0.00    -0.050 Br
ENDBRANCH   6  24
BRANCH   8  31
ATOM     31  N   UNL     1      -4.048   3.286   2.146  0.00  0.00    -0.345 N 
ATOM     32  H   UNL     1      -3.479   3.123   2.914  0.00  0.00    +0.144 HD
ATOM     33  H   UNL     1      -4.745   3.959   2.192  0.00  0.00    +0.144 HD
ENDBRANCH   8  31
BRANCH   7  34
ATOM     34  C   UNL     1      -2.253   1.204   2.155  0.00  0.00    +0.099 C 
ATOM     35  N   UNL     1      -1.673   0.945   3.097  0.00  0.00    -0.191 NA
ENDBRANCH   7  34
TORSDOF 5
