REMARK  Name = ZINC36742397
REMARK  4 active torsions:
REMARK  status: ('A' for Active; 'I' for Inactive)
REMARK    1  A    between atoms: C_1  and  C_2
REMARK    2  A    between atoms: C_6  and  N_19
REMARK    3  A    between atoms: C_7  and  N_8
REMARK    4  A    between atoms: C_9  and  C_11
REMARK                            x       y       z     vdW  Elec       q    Type
REMARK                         _______ _______ _______ _____ _____    ______ ____
ROOT
ATOM      1  N   UNL     1       0.299   0.047   2.368  0.00  0.00    -0.280 N 
ATOM      2  C   UNL     1       0.520   1.377   2.331  0.00  0.00    +0.248 C 
ATOM      3  O   UNL     1       0.688   1.935   1.264  0.00  0.00    -0.270 OA
ATOM      4  H   UNL     1       0.222  -0.408   3.221  0.00  0.00    +0.155 HD
ENDROOT
BRANCH   1  11
ATOM      5  C   UNL     1      -1.624   0.906   0.458  0.00  0.00    +0.046 C 
ATOM      6  C   UNL     1      -0.743  -0.292   0.216  0.00  0.00    -0.026 A 
ATOM      7  C   UNL     1      -0.853  -1.005  -0.964  0.00  0.00    +0.020 A 
ATOM      8  C   UNL     1      -0.046  -2.106  -1.189  0.00  0.00    +0.020 A 
ATOM      9  C   UNL     1       0.875  -2.500  -0.236  0.00  0.00    +0.040 A 
ATOM     10  C   UNL     1       0.992  -1.790   0.950  0.00  0.00    +0.047 A 
ATOM     11  C   UNL     1       0.182  -0.677   1.175  0.00  0.00    +0.058 A 
ATOM     12 BR   UNL     1      -0.205  -3.075  -2.805  0.00  0.00    -0.050 Br
BRANCH  10  13
ATOM     13  N   UNL     1       1.923  -2.187   1.915  0.00  0.00    -0.356 N 
ATOM     14  H   UNL     1       2.559  -2.892   1.716  0.00  0.00    +0.142 HD
ATOM     15  H   UNL     1       1.934  -1.757   2.785  0.00  0.00    +0.142 HD
ENDBRANCH  10  13
ENDBRANCH   1  11
BRANCH   2  16
ATOM     16  C   UNL     1       0.557   2.155   3.587  0.00  0.00    +0.038 A 
ATOM     17  C   UNL     1       0.370   1.515   4.814  0.00  0.00    +0.014 A 
ATOM     18  C   UNL     1       0.406   2.245   5.982  0.00  0.00    +0.022 A 
ATOM     19  C   UNL     1       0.627   3.612   5.942  0.00  0.00    +0.059 A 
ATOM     20  C   UNL     1       0.813   4.254   4.727  0.00  0.00    +0.060 A 
ATOM     21  C   UNL     1       0.785   3.531   3.551  0.00  0.00    +0.034 A 
ATOM     22 CL   UNL     1       1.089   5.967   4.686  0.00  0.00    -0.082 Cl
ATOM     23 CL   UNL     1       0.671   4.525   7.418  0.00  0.00    -0.082 Cl
ENDBRANCH   2  16
TORSDOF 3
