REMARK  Name = ZINC40286914
REMARK  5 active torsions:
REMARK  status: ('A' for Active; 'I' for Inactive)
REMARK    1  A    between atoms: C_6  and  N_7
REMARK    2  A    between atoms: C_8  and  C_10
REMARK    3  A    between atoms: C_10  and  S_11
REMARK    4  A    between atoms: S_11  and  C_12
REMARK    5  A    between atoms: C_13  and  C_24
REMARK                            x       y       z     vdW  Elec       q    Type
REMARK                         _______ _______ _______ _____ _____    ______ ____
ROOT
ATOM      1  C   UNL     1      -3.718  -5.347  -0.450  0.00  0.00    +0.060 A 
ATOM      2  C   UNL     1      -4.017  -6.700  -0.565  0.00  0.00    +0.081 A 
ATOM      3  C   UNL     1      -5.420  -7.072  -0.641  0.00  0.00    +0.073 A 
ATOM      4  C   UNL     1      -6.283  -5.981  -0.587  0.00  0.00    +0.084 A 
ATOM      5  S   UNL     1      -5.210  -4.579  -0.436  0.00  0.00    -0.076 S 
ATOM      6  C   UNL     1      -7.668  -6.137  -0.647  0.00  0.00    +0.200 A 
ATOM      7  C   UNL     1      -8.193  -7.416  -0.763  0.00  0.00    +0.122 A 
ATOM      8  C   UNL     1      -7.316  -8.502  -0.817  0.00  0.00    +0.253 A 
ATOM      9  O   UNL     1      -7.771  -9.632  -0.920  0.00  0.00    -0.268 OA
ATOM     10  N   UNL     1      -5.987  -8.334  -0.758  0.00  0.00    -0.321 N 
ATOM     11  H   UNL     1      -5.409  -9.112  -0.798  0.00  0.00    +0.169 HD
ATOM     12  O   UNL     1      -8.487  -5.058  -0.591  0.00  0.00    -0.286 OA
ENDROOT
BRANCH   2  13
ATOM     13  C   UNL     1      -2.959  -7.711  -0.607  0.00  0.00    +0.245 C 
ATOM     14  O   UNL     1      -2.555  -8.213   0.426  0.00  0.00    -0.270 OA
ATOM     15  N   UNL     1      -2.432  -8.087  -1.789  0.00  0.00    -0.325 N 
ATOM     16  H   UNL     1      -2.754  -7.687  -2.612  0.00  0.00    +0.145 HD
ATOM     17  H   UNL     1      -1.731  -8.757  -1.817  0.00  0.00    +0.145 HD
ENDBRANCH   2  13
BRANCH   1  18
ATOM     18  S   UNL     1      -2.125  -4.603  -0.337  0.00  0.00    -0.108 S 
BRANCH  18  19
ATOM     19  C   UNL     1      -2.478  -2.828  -0.204  0.00  0.00    +0.171 C 
BRANCH  19  21
ATOM     20  N   UNL     1      -1.200  -0.722   0.010  0.00  0.00    -0.285 N 
ATOM     21  C   UNL     1      -1.183  -2.065  -0.099  0.00  0.00    +0.227 C 
ATOM     22  O   UNL     1      -0.126  -2.659  -0.113  0.00  0.00    -0.275 OA
ATOM     23  H   UNL     1      -2.044  -0.252   0.098  0.00  0.00    +0.155 HD
BRANCH  20  29
ATOM     24  C   UNL     1       1.072  -0.453  -0.766  0.00  0.00    +0.024 A 
ATOM     25  C   UNL     1       2.256   0.258  -0.778  0.00  0.00    +0.017 A 
ATOM     26  C   UNL     1       2.377   1.416  -0.032  0.00  0.00    +0.018 A 
ATOM     27  C   UNL     1       1.312   1.866   0.729  0.00  0.00    +0.017 A 
ATOM     28  C   UNL     1       0.126   1.159   0.745  0.00  0.00    +0.024 A 
ATOM     29  C   UNL     1       0.002  -0.004  -0.004  0.00  0.00    +0.033 A 
ATOM     30 BR   UNL     1       4.000   2.387  -0.051  0.00  0.00    -0.050 Br
ENDBRANCH  20  29
ENDBRANCH  19  21
ENDBRANCH  18  19
ENDBRANCH   1  18
TORSDOF 5
