REMARK  Name = ZINC19853807
REMARK  6 active torsions:
REMARK  status: ('A' for Active; 'I' for Inactive)
REMARK    1  A    between atoms: C_1  and  C_2
REMARK    2  A    between atoms: C_3  and  C_23
REMARK    3  A    between atoms: C_4  and  N_22
REMARK    4  A    between atoms: C_9  and  C_10
REMARK    5  A    between atoms: C_17  and  C_21
REMARK    6  A    between atoms: C_18  and  C_19
REMARK                            x       y       z     vdW  Elec       q    Type
REMARK                         _______ _______ _______ _____ _____    ______ ____
ROOT
ATOM      1  C   UNL     1       0.586   2.834   0.104  0.00  0.00    +0.046 C 
ATOM      2  C   UNL     1       1.150   4.227  -0.007  0.00  0.00    -0.020 A 
ATOM      3  C   UNL     1       0.307   5.344  -0.032  0.00  0.00    +0.095 A 
ATOM      4  C   UNL     1       0.876   6.628  -0.137  0.00  0.00    +0.135 A 
ATOM      5  N   UNL     1       2.184   6.790  -0.211  0.00  0.00    -0.230 NA
ATOM      6  C   UNL     1       3.019   5.754  -0.190  0.00  0.00    +0.092 A 
ATOM      7  C   UNL     1       2.521   4.437  -0.093  0.00  0.00    +0.013 A 
ATOM      8  C   UNL     1       3.687   3.531  -0.090  0.00  0.00    -0.011 C 
ATOM      9  C   UNL     1       3.649   2.153  -0.006  0.00  0.00    +0.016 C 
ATOM     10  C   UNL     1       4.850   4.328  -0.195  0.00  0.00    -0.023 C 
ATOM     11  C   UNL     1       4.487   5.657  -0.257  0.00  0.00    +0.081 C 
ATOM     12  C   UNL     1       6.264   3.807  -0.234  0.00  0.00    +0.046 C 
ENDROOT
BRANCH   9  13
ATOM     13  C   UNL     1       2.556   1.412  -0.638  0.00  0.00    -0.024 A 
ATOM     14  C   UNL     1       2.073   1.803  -1.895  0.00  0.00    +0.011 A 
ATOM     15  C   UNL     1       1.044   1.101  -2.482  0.00  0.00    +0.039 A 
ATOM     16  C   UNL     1       0.486   0.008  -1.833  0.00  0.00    +0.123 A 
ATOM     17  C   UNL     1       0.958  -0.385  -0.589  0.00  0.00    +0.039 A 
ATOM     18  C   UNL     1       1.986   0.307   0.012  0.00  0.00    +0.011 A 
ATOM     19  F   UNL     1      -0.523  -0.675  -2.416  0.00  0.00    -0.205 F 
ENDBRANCH   9  13
BRANCH   4  20
ATOM     20  N   UNL     1       0.049   7.739  -0.163  0.00  0.00    -0.342 N 
ATOM     21  H   UNL     1       0.484   8.746  -0.244  0.00  0.00    +0.144 HD
ATOM     22  H   UNL     1      -1.042   7.615  -0.102  0.00  0.00    +0.144 HD
ENDBRANCH   4  20
BRANCH  11  23
ATOM     23  C   UNL     1       5.391   6.763  -0.366  0.00  0.00    +0.102 C 
ATOM     24  N   UNL     1       6.107   7.640  -0.454  0.00  0.00    -0.191 NA
ENDBRANCH  11  23
BRANCH   3  25
ATOM     25  C   UNL     1      -1.113   5.183   0.048  0.00  0.00    +0.103 C 
ATOM     26  N   UNL     1      -2.240   5.055   0.112  0.00  0.00    -0.191 NA
ENDBRANCH   3  25
TORSDOF 4
