REMARK  Name = ZINC35554351
REMARK  4 active torsions:
REMARK  status: ('A' for Active; 'I' for Inactive)
REMARK    1  A    between atoms: C_8  and  C_25
REMARK    2  A    between atoms: N_15  and  C_17
REMARK    3  A    between atoms: C_17  and  C_18
REMARK    4  A    between atoms: N_30  and  C_33
REMARK                            x       y       z     vdW  Elec       q    Type
REMARK                         _______ _______ _______ _____ _____    ______ ____
ROOT
ATOM      1  C   UNL     1       0.017   1.406   0.023  0.00  0.00    +0.000 A 
ATOM      2  C   UNL     1       1.215   2.097  -0.004  0.00  0.00    +0.002 A 
ATOM      3  C   UNL     1       2.409   1.407  -0.028  0.00  0.00    +0.023 A 
ATOM      4  C   UNL     1       2.409   0.016  -0.027  0.00  0.00    +0.033 A 
ATOM      5  C   UNL     1       1.207  -0.674  -0.003  0.00  0.00    -0.026 A 
ATOM      6  C   UNL     1       0.013   0.025   0.023  0.00  0.00    +0.005 A 
ATOM      7  C   UNL     1       1.192  -2.175  -0.009  0.00  0.00    +0.051 C 
ATOM      8  C   UNL     1       2.426  -2.760   0.644  0.00  0.00    +0.098 C 
ATOM      9  C   UNL     1       3.718  -2.100   0.244  0.00  0.00    +0.069 C 
ATOM     10  N   UNL     1       3.613  -0.677  -0.047  0.00  0.00    -0.329 N 
ATOM     11  C   UNL     1       4.857   0.025  -0.422  0.00  0.00    +0.087 C 
ATOM     12  C   UNL     1       5.478  -0.748  -1.594  0.00  0.00    -0.059 C 
ATOM     13  N   UNL     1       5.675  -2.152  -1.214  0.00  0.00    +0.388 N 
ATOM     14  C   UNL     1       4.383  -2.800  -0.942  0.00  0.00    -0.055 C 
ATOM     15  H   UNL     1       6.250  -2.195  -0.386  0.00  0.00    -0.081 HD
ENDROOT
BRANCH   8  16
ATOM     16  C   UNL     1       2.277  -2.642   2.139  0.00  0.00    +0.221 C 
ATOM     17  O   UNL     1       1.708  -1.683   2.617  0.00  0.00    -0.275 OA
ATOM     18  N   UNL     1       2.774  -3.602   2.943  0.00  0.00    -0.298 N 
ATOM     19  C   UNL     1       3.574  -4.703   2.388  0.00  0.00    +0.126 C 
ATOM     20  C   UNL     1       4.923  -4.744   3.116  0.00  0.00    +0.124 C 
ATOM     21  N   UNL     1       4.676  -4.708   4.565  0.00  0.00    -0.327 N 
ATOM     22  C   UNL     1       3.877  -3.607   5.120  0.00  0.00    +0.124 C 
ATOM     23  C   UNL     1       2.533  -3.562   4.392  0.00  0.00    +0.126 C 
BRANCH  21  24
ATOM     24  C   UNL     1       5.192  -5.703   5.399  0.00  0.00    +0.031 A 
ATOM     25  C   UNL     1       6.045  -6.670   4.883  0.00  0.00    +0.023 A 
ATOM     26  C   UNL     1       6.554  -7.652   5.710  0.00  0.00    +0.003 A 
ATOM     27  C   UNL     1       6.216  -7.674   7.050  0.00  0.00    +0.020 A 
ATOM     28  C   UNL     1       5.366  -6.712   7.568  0.00  0.00    +0.043 A 
ATOM     29  C   UNL     1       4.858  -5.723   6.746  0.00  0.00    +0.043 A 
ATOM     30 CL   UNL     1       4.943  -6.743   9.251  0.00  0.00    -0.083 Cl
ENDBRANCH  21  24
ENDBRANCH   8  16
BRANCH  13  31
ATOM     31  C   UNL     1       6.351  -2.860  -2.309  0.00  0.00    +0.019 C 
BRANCH  31  32
ATOM     32  C   UNL     1       7.736  -2.296  -2.493  0.00  0.00    +0.199 C 
ATOM     33  O   UNL     1       8.123  -1.393  -1.782  0.00  0.00    -0.278 OA
ATOM     34  N   UNL     1       8.546  -2.795  -3.448  0.00  0.00    -0.303 N 
ATOM     35  C   UNL     1       8.205  -3.880  -4.380  0.00  0.00    +0.108 C 
ATOM     36  C   UNL     1       9.442  -4.127  -5.268  0.00  0.00    +0.020 C 
ATOM     37  C   UNL     1      10.604  -3.554  -4.413  0.00  0.00    +0.020 C 
ATOM     38  C   UNL     1       9.918  -2.339  -3.736  0.00  0.00    +0.108 C 
ENDBRANCH  31  32
ENDBRANCH  13  31
TORSDOF 4
