REMARK  Name = ZINC00241895
REMARK  8 active torsions:
REMARK  status: ('A' for Active; 'I' for Inactive)
REMARK    1  A    between atoms: C_1  and  C_2
REMARK    2  A    between atoms: C_4  and  C_10
REMARK    3  A    between atoms: C_7  and  O_8
REMARK    4  A    between atoms: O_8  and  C_9
REMARK    5  A    between atoms: C_12  and  C_25
REMARK    6  A    between atoms: C_13  and  N_24
REMARK    7  A    between atoms: C_20  and  C_22
REMARK    8  A    between atoms: C_20  and  C_23
REMARK                            x       y       z     vdW  Elec       q    Type
REMARK                         _______ _______ _______ _____ _____    ______ ____
ROOT
ATOM      1  C   UNL     1       1.527   0.036   6.140  0.00  0.00    +0.101 C 
ATOM      2  C   UNL     1       2.926   0.574   6.247  0.00  0.00    +0.098 C 
ATOM      3  C   UNL     1       3.990  -0.239   6.039  0.00  0.00    +0.198 C 
ATOM      4  O   UNL     1       3.830  -1.535   5.730  0.00  0.00    -0.445 OA
ATOM      5  C   UNL     1       2.677  -2.160   6.035  0.00  0.00    +0.115 C 
ATOM      6  C   UNL     1       1.541  -1.470   6.244  0.00  0.00    +0.046 C 
ATOM      7  C   UNL     1       0.336  -2.124   6.565  0.00  0.00    +0.164 C 
ATOM      8  O   UNL     1      -0.674  -1.468   6.727  0.00  0.00    -0.292 OA
ATOM      9  C   UNL     1       0.277  -3.620   6.712  0.00  0.00    +0.086 C 
ATOM     10  C   UNL     1       1.653  -4.128   7.156  0.00  0.00    -0.021 C 
ATOM     11  C   UNL     1       2.693  -3.667   6.133  0.00  0.00    +0.081 C 
ATOM     12  C   UNL     1       1.994  -3.552   8.532  0.00  0.00    +0.012 C 
ATOM     13  C   UNL     1       1.638  -5.657   7.228  0.00  0.00    +0.012 C 
ENDROOT
BRANCH   1  17
ATOM     14  C   UNL     1      -1.988   2.448   3.520  0.00  0.00    +0.047 C 
ATOM     15  C   UNL     1      -0.747   1.594   3.561  0.00  0.00    -0.009 A 
ATOM     16  C   UNL     1      -0.203   1.222   4.776  0.00  0.00    +0.011 A 
ATOM     17  C   UNL     1       0.936   0.440   4.814  0.00  0.00    -0.034 A 
ATOM     18  C   UNL     1       1.534   0.027   3.637  0.00  0.00    +0.008 A 
ATOM     19  C   UNL     1       0.991   0.392   2.421  0.00  0.00    +0.046 A 
ATOM     20  C   UNL     1      -0.149   1.182   2.380  0.00  0.00    +0.123 A 
BRANCH  20  21
ATOM     21  O   UNL     1      -0.682   1.547   1.184  0.00  0.00    -0.495 OA
ATOM     22  C   UNL     1      -0.013   1.086   0.008  0.00  0.00    +0.277 C 
ENDBRANCH  20  21
ENDBRANCH   1  17
BRANCH   3  23
ATOM     23  N   UNL     1       5.259   0.273   6.148  0.00  0.00    -0.328 N 
ATOM     24  H   UNL     1       6.028  -0.299   6.002  0.00  0.00    +0.145 HD
ATOM     25  H   UNL     1       5.387   1.209   6.371  0.00  0.00    +0.145 HD
ENDBRANCH   3  23
BRANCH   2  26
ATOM     26  C   UNL     1       3.136   1.953   6.570  0.00  0.00    +0.101 C 
ATOM     27  N   UNL     1       3.303   3.047   6.826  0.00  0.00    -0.191 NA
ENDBRANCH   2  26
TORSDOF 4
