REMARK  Name = ZINC32653938
REMARK  3 active torsions:
REMARK  status: ('A' for Active; 'I' for Inactive)
REMARK    1  A    between atoms: N_6  and  N_7
REMARK    2  A    between atoms: C_8  and  C_9
REMARK    3  A    between atoms: C_12  and  O_16
REMARK                            x       y       z     vdW  Elec       q    Type
REMARK                         _______ _______ _______ _____ _____    ______ ____
ROOT
ATOM      1  C   UNL     1       2.163  -4.546   0.068  0.00  0.00    -0.003 A 
ATOM      2  C   UNL     1       3.207  -3.620   0.175  0.00  0.00    +0.028 A 
ATOM      3  C   UNL     1       4.510  -4.062   0.264  0.00  0.00    +0.061 A 
ATOM      4  C   UNL     1       4.787  -5.423   0.248  0.00  0.00    +0.145 A 
ATOM      5  C   UNL     1       3.755  -6.347   0.142  0.00  0.00    +0.061 A 
ATOM      6  C   UNL     1       2.447  -5.916   0.058  0.00  0.00    +0.028 A 
ATOM      7 BR   UNL     1       4.142  -8.197   0.121  0.00  0.00    -0.046 Br
ATOM      8 BR   UNL     1       5.922  -2.812   0.408  0.00  0.00    -0.046 Br
ENDROOT
BRANCH   1  10
ATOM      9  N   UNL     1      -0.191  -4.938  -0.248  0.00  0.00    -0.155 NA
ATOM     10  C   UNL     1       0.771  -4.081  -0.028  0.00  0.00    +0.143 C 
BRANCH   9  16
ATOM     11  C   UNL     1      -3.060  -7.902  -0.974  0.00  0.00    +0.092 A 
ATOM     12  C   UNL     1      -2.541  -9.121  -1.145  0.00  0.00    +0.066 A 
ATOM     13  S   UNL     1      -0.792  -8.811  -0.961  0.00  0.00    -0.057 S 
ATOM     14  C   UNL     1      -0.889  -7.052  -0.665  0.00  0.00    +0.192 A 
ATOM     15  N   UNL     1      -2.245  -6.841  -0.730  0.00  0.00    -0.339 N 
ATOM     16  N   UNL     1       0.086  -6.183  -0.442  0.00  0.00    -0.124 NA
ATOM     17  H   UNL     1      -2.615  -5.953  -0.605  0.00  0.00    +0.167 HD
ENDBRANCH   9  16
ENDBRANCH   1  10
BRANCH   4  18
ATOM     18  O   UNL     1       6.074  -5.853   0.336  0.00  0.00    -0.505 OA
ATOM     19  H   UNL     1       6.378  -6.002   1.242  0.00  0.00    +0.292 HD
ENDBRANCH   4  18
TORSDOF 3
