REMARK  Name = ZINC31531402
REMARK  6 active torsions:
REMARK  status: ('A' for Active; 'I' for Inactive)
REMARK    1  A    between atoms: C_5  and  S_7
REMARK    2  A    between atoms: S_7  and  N_10
REMARK    3  A    between atoms: N_13  and  C_16
REMARK    4  A    between atoms: C_16  and  C_17
REMARK    5  A    between atoms: N_19  and  C_20
REMARK    6  A    between atoms: C_25  and  C_26
REMARK                            x       y       z     vdW  Elec       q    Type
REMARK                         _______ _______ _______ _____ _____    ______ ____
ROOT
ATOM      1  N   UNL     1       5.209  -0.105   0.568  0.00  0.00    -0.180 NA
ATOM      2  C   UNL     1       5.337   0.882  -0.514  0.00  0.00    +0.091 C 
ATOM      3  C   UNL     1       4.262   1.958  -0.322  0.00  0.00    -0.061 C 
ATOM      4  N   UNL     1       2.945   1.316  -0.219  0.00  0.00    +0.387 N 
ATOM      5  C   UNL     1       2.867   0.445   0.961  0.00  0.00    -0.061 C 
ATOM      6  C   UNL     1       3.885  -0.692   0.822  0.00  0.00    +0.091 C 
ATOM      7  H   UNL     1       2.810   0.684  -1.110  0.00  0.00    -0.081 HD
ENDROOT
BRANCH   1   8
ATOM      8  S   UNL     1       6.521  -0.544   1.478  0.00  0.00    +0.062 S 
ATOM      9  O   UNL     1       7.378   0.589   1.529  0.00  0.00    -0.153 OA
ATOM     10  O   UNL     1       6.013  -1.168   2.649  0.00  0.00    -0.153 OA
BRANCH   8  15
ATOM     11  C   UNL     1       9.329  -2.506  -0.623  0.00  0.00    +0.002 A 
ATOM     12  C   UNL     1       8.743  -3.741  -0.833  0.00  0.00    +0.002 A 
ATOM     13  C   UNL     1       7.479  -4.000  -0.338  0.00  0.00    +0.022 A 
ATOM     14  C   UNL     1       6.800  -3.023   0.368  0.00  0.00    +0.067 A 
ATOM     15  C   UNL     1       7.386  -1.788   0.579  0.00  0.00    +0.124 A 
ATOM     16  C   UNL     1       8.649  -1.529   0.079  0.00  0.00    +0.030 A 
ATOM     17 CL   UNL     1       5.211  -3.347   0.990  0.00  0.00    -0.082 Cl
ENDBRANCH   8  15
ENDBRANCH   1   8
BRANCH   4  18
ATOM     18  C   UNL     1       1.871   2.317  -0.207  0.00  0.00    +0.019 C 
BRANCH  18  19
ATOM     19  C   UNL     1       0.539   1.627  -0.349  0.00  0.00    +0.201 C 
ATOM     20  O   UNL     1       0.489   0.420  -0.450  0.00  0.00    -0.278 OA
ATOM     21  N   UNL     1      -0.597   2.352  -0.368  0.00  0.00    -0.287 N 
ATOM     22  H   UNL     1      -0.560   3.438  -0.193  0.00  0.00    +0.155 HD
BRANCH  21  23
ATOM     23  C   UNL     1      -1.825   1.724  -0.611  0.00  0.00    +0.045 A 
ATOM     24  C   UNL     1      -1.890   0.634  -1.468  0.00  0.00    +0.025 A 
ATOM     25  C   UNL     1      -3.102   0.016  -1.706  0.00  0.00    +0.022 A 
ATOM     26  C   UNL     1      -4.250   0.481  -1.089  0.00  0.00    +0.042 A 
ATOM     27  C   UNL     1      -4.188   1.568  -0.234  0.00  0.00    +0.034 A 
ATOM     28  C   UNL     1      -2.977   2.187   0.010  0.00  0.00    +0.077 A 
ATOM     29 CL   UNL     1      -5.772  -0.298  -1.390  0.00  0.00    -0.084 Cl
BRANCH  28  30
ATOM     30  C   UNL     1      -2.909   3.366   0.946  0.00  0.00    +0.419 C 
ATOM     31  F   UNL     1      -4.187   3.642   1.443  0.00  0.00    -0.166 F 
ATOM     32  F   UNL     1      -2.049   3.069   2.008  0.00  0.00    -0.166 F 
ATOM     33  F   UNL     1      -2.426   4.482   0.254  0.00  0.00    -0.166 F 
ENDBRANCH  28  30
ENDBRANCH  21  23
ENDBRANCH  18  19
ENDBRANCH   4  18
TORSDOF 6
