REMARK  Name = ZINC19939424
REMARK  6 active torsions:
REMARK  status: ('A' for Active; 'I' for Inactive)
REMARK    1  A    between atoms: C_1  and  C_2
REMARK    2  A    between atoms: N_8  and  C_9
REMARK    3  A    between atoms: C_9  and  C_28
REMARK    4  A    between atoms: N_12  and  C_21
REMARK    5  A    between atoms: C_13  and  C_15
REMARK    6  A    between atoms: C_21  and  C_22
REMARK                            x       y       z     vdW  Elec       q    Type
REMARK                         _______ _______ _______ _____ _____    ______ ____
ROOT
ATOM      1  C   UNL     1       1.471   1.999  -0.265  0.00  0.00    +0.301 C 
ATOM      2  C   UNL     1       0.035   1.604   0.018  0.00  0.00    +0.276 C 
ATOM      3  O   UNL     1      -0.896   2.339   0.268  0.00  0.00    -0.270 OA
ATOM      4  N   UNL     1       0.016   0.257  -0.074  0.00  0.00    -0.248 N 
ATOM      5  C   UNL     1       1.268  -0.225  -0.379  0.00  0.00    +0.133 C 
ATOM      6  N   UNL     1       2.151   0.716  -0.504  0.00  0.00    -0.225 NA
ENDROOT
BRANCH   1  14
ATOM      7  C   UNL     1       6.558   1.846  -0.897  0.00  0.00    +0.044 C 
ATOM      8  C   UNL     1       5.626   2.463   0.114  0.00  0.00    -0.046 A 
ATOM      9  C   UNL     1       6.121   3.231   1.160  0.00  0.00    +0.021 A 
ATOM     10  C   UNL     1       5.241   3.781   2.070  0.00  0.00    +0.084 A 
ATOM     11  N   UNL     1       3.940   3.587   1.956  0.00  0.00    -0.350 N 
ATOM     12  C   UNL     1       3.430   2.861   0.974  0.00  0.00    +0.099 A 
ATOM     13  C   UNL     1       4.259   2.272   0.024  0.00  0.00    +0.045 A 
ATOM     14  N   UNL     1       2.054   2.682   0.893  0.00  0.00    -0.292 N 
ATOM     15  H   UNL     1       1.403   3.053   1.698  0.00  0.00    +0.150 HD
ATOM     16  H   UNL     1       3.252   4.032   2.690  0.00  0.00    +0.166 HD
ENDBRANCH   1  14
BRANCH   5  17
ATOM     17  C   UNL     1       1.573  -1.663  -0.548  0.00  0.00    +0.015 A 
ATOM     18  C   UNL     1       1.056  -2.599   0.348  0.00  0.00    +0.011 A 
ATOM     19  C   UNL     1       1.340  -3.939   0.183  0.00  0.00    +0.001 A 
ATOM     20  C   UNL     1       2.145  -4.354  -0.863  0.00  0.00    +0.000 A 
ATOM     21  C   UNL     1       2.665  -3.430  -1.752  0.00  0.00    +0.001 A 
ATOM     22  C   UNL     1       2.384  -2.088  -1.600  0.00  0.00    +0.011 A 
ENDBRANCH   5  17
BRANCH   1  23
ATOM     23  C   UNL     1       1.548   2.887  -1.508  0.00  0.00    +0.440 C 
ATOM     24  F   UNL     1       0.890   4.096  -1.260  0.00  0.00    -0.166 F 
ATOM     25  F   UNL     1       2.889   3.141  -1.817  0.00  0.00    -0.166 F 
ATOM     26  F   UNL     1       0.937   2.236  -2.585  0.00  0.00    -0.166 F 
ENDBRANCH   1  23
BRANCH   4  27
ATOM     27  C   UNL     1      -1.173  -0.575   0.125  0.00  0.00    +0.150 C 
BRANCH  27  28
ATOM     28  C   UNL     1      -1.955  -0.650  -1.161  0.00  0.00    -0.030 A 
ATOM     29  C   UNL     1      -2.877   0.334  -1.467  0.00  0.00    +0.005 A 
ATOM     30  C   UNL     1      -3.591   0.268  -2.649  0.00  0.00    +0.000 A 
ATOM     31  C   UNL     1      -3.390  -0.786  -3.520  0.00  0.00    +0.000 A 
ATOM     32  C   UNL     1      -2.472  -1.772  -3.212  0.00  0.00    +0.000 A 
ATOM     33  C   UNL     1      -1.754  -1.704  -2.032  0.00  0.00    +0.005 A 
ENDBRANCH  27  28
ENDBRANCH   4  27
TORSDOF 5
