REMARK  Name = ZINC32542030
REMARK  12 active torsions:
REMARK  status: ('A' for Active; 'I' for Inactive)
REMARK    1  A    between atoms: C_1  and  C_2
REMARK    2  A    between atoms: C_4  and  N_11
REMARK    3  A    between atoms: C_5  and  O_9
REMARK    4  A    between atoms: O_9  and  C_10
REMARK    5  A    between atoms: C_12  and  C_14
REMARK    6  A    between atoms: C_14  and  N_15
REMARK    7  A    between atoms: N_15  and  C_16
REMARK    8  A    between atoms: N_15  and  C_17
REMARK    9  A    between atoms: C_17  and  C_19
REMARK   10  A    between atoms: C_17  and  C_20
REMARK   11  A    between atoms: C_23  and  S_26
REMARK   12  A    between atoms: S_26  and  N_29
REMARK                            x       y       z     vdW  Elec       q    Type
REMARK                         _______ _______ _______ _____ _____    ______ ____
ROOT
ATOM      1  N   UNL     1      -3.474   4.352   4.611  0.00  0.00    +0.388 N 
ATOM      2  C   UNL     1      -2.279   5.195   4.478  0.00  0.00    -0.095 C 
ATOM      3  H   UNL     1      -4.039   4.416   3.669  0.00  0.00    -0.081 HD
ENDROOT
BRANCH   1   4
ATOM      4  C   UNL     1      -3.105   2.945   4.822  0.00  0.00    -0.041 C 
ATOM      5  C   UNL     1      -2.105   2.514   3.748  0.00  0.00    -0.008 C 
BRANCH   4   6
ATOM      6  C   UNL     1      -4.339   2.084   4.735  0.00  0.00    -0.061 A 
ATOM      7  C   UNL     1      -4.469   0.978   5.553  0.00  0.00    +0.004 A 
ATOM      8  C   UNL     1      -5.600   0.187   5.473  0.00  0.00    +0.029 A 
ATOM      9  C   UNL     1      -6.602   0.504   4.574  0.00  0.00    +0.105 A 
ATOM     10  C   UNL     1      -6.470   1.608   3.753  0.00  0.00    +0.029 A 
ATOM     11  C   UNL     1      -5.341   2.401   3.837  0.00  0.00    +0.004 A 
BRANCH   9  12
ATOM     12  S   UNL     1      -8.044  -0.503   4.472  0.00  0.00    +0.056 S 
ATOM     13  O   UNL     1      -7.678  -1.788   4.958  0.00  0.00    -0.153 OA
ATOM     14  O   UNL     1      -8.585  -0.307   3.173  0.00  0.00    -0.153 OA
BRANCH  12  15
ATOM     15  N   UNL     1      -9.148   0.111   5.543  0.00  0.00    -0.204 NA
ATOM     16  H   UNL     1     -10.066  -0.493   5.509  0.00  0.00    +0.144 HD
ATOM     17  H   UNL     1      -9.382   1.151   5.271  0.00  0.00    +0.144 HD
ENDBRANCH  12  15
ENDBRANCH   9  12
ENDBRANCH   4   6
ENDBRANCH   1   4
BRANCH   1  18
ATOM     18  C   UNL     1      -4.343   4.836   5.692  0.00  0.00    +0.019 C 
BRANCH  18  20
ATOM     19  N   UNL     1      -5.725   6.831   6.171  0.00  0.00    -0.284 N 
ATOM     20  C   UNL     1      -4.897   6.188   5.324  0.00  0.00    +0.201 C 
ATOM     21  O   UNL     1      -4.598   6.698   4.265  0.00  0.00    -0.278 OA
ATOM     22  H   UNL     1      -6.050   6.340   7.101  0.00  0.00    +0.155 HD
BRANCH  19  26
ATOM     23  C   UNL     1      -7.106  10.155   2.821  0.00  0.00    +0.045 C 
ATOM     24  C   UNL     1      -6.850   9.762   4.253  0.00  0.00    -0.030 A 
ATOM     25  C   UNL     1      -6.409   8.486   4.551  0.00  0.00    +0.031 A 
ATOM     26  C   UNL     1      -6.172   8.124   5.868  0.00  0.00    +0.076 A 
ATOM     27  C   UNL     1      -6.386   9.046   6.890  0.00  0.00    +0.143 A 
ATOM     28  C   UNL     1      -6.823  10.325   6.585  0.00  0.00    +0.067 A 
ATOM     29  C   UNL     1      -7.057  10.680   5.268  0.00  0.00    +0.047 A 
ATOM     30 CL   UNL     1      -7.612  12.280   4.888  0.00  0.00    -0.083 Cl
BRANCH  27  31
ATOM     31  O   UNL     1      -6.161   8.694   8.184  0.00  0.00    -0.493 OA
ATOM     32  C   UNL     1      -6.401   9.691   9.179  0.00  0.00    +0.277 C 
ENDBRANCH  27  31
ENDBRANCH  19  26
ENDBRANCH  18  20
ENDBRANCH   1  18
TORSDOF 8
