REMARK  Name = ZINC56068939
REMARK  2 active torsions:
REMARK  status: ('A' for Active; 'I' for Inactive)
REMARK    1  A    between atoms: N_8  and  S_12
REMARK    2  A    between atoms: S_12  and  C_15
REMARK                            x       y       z     vdW  Elec       q    Type
REMARK                         _______ _______ _______ _____ _____    ______ ____
ROOT
ATOM      1  S   UNL     1       3.652  -2.283   0.308  0.00  0.00    +0.076 S 
ATOM      2  O   UNL     1       4.939  -2.710   0.736  0.00  0.00    -0.150 OA
ATOM      3  O   UNL     1       2.495  -2.424   1.119  0.00  0.00    -0.150 OA
ENDROOT
BRANCH   1   4
ATOM      4  C   UNL     1       3.317  -3.131  -1.200  0.00  0.00    +0.130 A 
ATOM      5  C   UNL     1       4.248  -4.013  -1.718  0.00  0.00    +0.077 A 
ATOM      6  C   UNL     1       3.985  -4.678  -2.901  0.00  0.00    +0.144 A 
ATOM      7  C   UNL     1       2.781  -4.457  -3.570  0.00  0.00    +0.077 A 
ATOM      8  C   UNL     1       1.851  -3.574  -3.047  0.00  0.00    +0.049 A 
ATOM      9  C   UNL     1       2.119  -2.916  -1.859  0.00  0.00    +0.070 A 
ATOM     10 CL   UNL     1       0.953  -1.813  -1.198  0.00  0.00    -0.081 Cl
ATOM     11  N   UNL     1       2.528  -5.138  -4.769  0.00  0.00    -0.280 N 
ATOM     12  C   UNL     1       3.289  -6.207  -5.088  0.00  0.00    +0.255 C 
ATOM     13  O   UNL     1       3.108  -6.793  -6.135  0.00  0.00    -0.272 OA
ATOM     14  C   UNL     1       4.363  -6.671  -4.138  0.00  0.00    +0.325 C 
ATOM     15  O   UNL     1       4.889  -5.549  -3.424  0.00  0.00    -0.481 OA
ATOM     16  H   UNL     1       1.817  -4.845  -5.361  0.00  0.00    +0.155 HD
ENDBRANCH   1   4
BRANCH   1  24
ATOM     17  C   UNL     1       6.985   0.684  -2.351  0.00  0.00    +0.039 A 
ATOM     18  C   UNL     1       5.901   1.511  -2.131  0.00  0.00    +0.008 A 
ATOM     19  C   UNL     1       4.832   1.074  -1.366  0.00  0.00    -0.025 A 
ATOM     20  C   UNL     1       4.854  -0.202  -0.823  0.00  0.00    +0.057 A 
ATOM     21  C   UNL     1       5.946  -1.033  -1.043  0.00  0.00    +0.063 A 
ATOM     22  C   UNL     1       7.010  -0.590  -1.807  0.00  0.00    +0.125 A 
ATOM     23  F   UNL     1       8.072  -1.397  -2.022  0.00  0.00    -0.205 F 
ATOM     24  N   UNL     1       3.784  -0.673  -0.054  0.00  0.00    -0.203 N 
ATOM     25  C   UNL     1       2.779   0.285   0.426  0.00  0.00    +0.132 C 
ATOM     26  C   UNL     1       2.423   1.216  -0.740  0.00  0.00    +0.025 C 
ATOM     27  C   UNL     1       3.669   2.004  -1.142  0.00  0.00    +0.038 C 
ENDBRANCH   1  24
TORSDOF 2
