REMARK  Name = ZINC35399266
REMARK  5 active torsions:
REMARK  status: ('A' for Active; 'I' for Inactive)
REMARK    1  A    between atoms: C_1  and  C_2
REMARK    2  A    between atoms: N_12  and  S_15
REMARK    3  A    between atoms: S_15  and  C_18
REMARK    4  A    between atoms: C_21  and  N_24
REMARK    5  A    between atoms: C_25  and  C_27
REMARK                            x       y       z     vdW  Elec       q    Type
REMARK                         _______ _______ _______ _____ _____    ______ ____
ROOT
ATOM      1  C   UNL     1       1.242   1.157   0.293  0.00  0.00    +0.044 C 
ATOM      2  C   UNL     1       1.121  -0.345   0.294  0.00  0.00    -0.049 A 
ATOM      3  C   UNL     1       1.195  -1.042  -0.899  0.00  0.00    +0.005 A 
ATOM      4  C   UNL     1       1.073  -2.420  -0.907  0.00  0.00    +0.028 A 
ATOM      5  C   UNL     1       0.876  -3.099   0.279  0.00  0.00    +0.067 A 
ATOM      6  C   UNL     1       0.824  -2.401   1.490  0.00  0.00    +0.052 A 
ATOM      7  C   UNL     1       0.942  -1.020   1.487  0.00  0.00    +0.028 A 
ATOM      8  N   UNL     1       0.694  -3.098   2.698  0.00  0.00    -0.331 N 
ATOM      9  C   UNL     1      -0.008  -4.389   2.733  0.00  0.00    +0.075 C 
ATOM     10  C   UNL     1       0.456  -5.192   3.948  0.00  0.00    +0.049 C 
ATOM     11  C   UNL     1       0.153  -4.402   5.225  0.00  0.00    +0.112 C 
ATOM     12  N   UNL     1      -1.274  -4.051   5.236  0.00  0.00    -0.176 NA
ATOM     13  C   UNL     1      -1.838  -3.349   4.075  0.00  0.00    +0.112 C 
ATOM     14  C   UNL     1      -1.515  -4.150   2.810  0.00  0.00    +0.049 C 
ATOM     15  C   UNL     1       0.327  -5.139   1.468  0.00  0.00    +0.047 A 
ATOM     16  N   UNL     1       0.726  -4.493   0.318  0.00  0.00    -0.316 N 
ATOM     17  C   UNL     1       0.927  -5.419  -0.650  0.00  0.00    +0.092 A 
ATOM     18  C   UNL     1       0.682  -6.640  -0.123  0.00  0.00    +0.020 A 
ATOM     19  C   UNL     1       0.306  -6.454   1.225  0.00  0.00    +0.025 A 
ATOM     20  H   UNL     1       1.069  -2.729   3.513  0.00  0.00    +0.147 HD
ENDROOT
BRANCH  12  21
ATOM     21  S   UNL     1      -2.228  -4.439   6.532  0.00  0.00    +0.061 S 
ATOM     22  O   UNL     1      -3.564  -4.500   6.050  0.00  0.00    -0.153 OA
ATOM     23  O   UNL     1      -1.603  -5.537   7.183  0.00  0.00    -0.153 OA
BRANCH  21  24
ATOM     24  C   UNL     1      -2.159  -3.082   7.655  0.00  0.00    +0.106 A 
ATOM     25  C   UNL     1      -1.185  -3.047   8.636  0.00  0.00    +0.030 A 
ATOM     26  C   UNL     1      -1.128  -1.985   9.517  0.00  0.00    +0.025 A 
ATOM     27  C   UNL     1      -2.050  -0.952   9.416  0.00  0.00    +0.033 A 
ATOM     28  C   UNL     1      -3.027  -0.990   8.430  0.00  0.00    +0.025 A 
ATOM     29  C   UNL     1      -3.075  -2.052   7.549  0.00  0.00    +0.030 A 
BRANCH  27  30
ATOM     30  N   UNL     1      -1.996   0.125  10.308  0.00  0.00    -0.286 N 
ATOM     31  C   UNL     1      -0.806   0.551  10.779  0.00  0.00    +0.214 C 
ATOM     32  O   UNL     1       0.222   0.065  10.357  0.00  0.00    -0.276 OA
ATOM     33  C   UNL     1      -0.754   1.631  11.828  0.00  0.00    +0.109 C 
ATOM     34  H   UNL     1      -2.813   0.566  10.587  0.00  0.00    +0.155 HD
ENDBRANCH  27  30
ENDBRANCH  21  24
ENDBRANCH  12  21
TORSDOF 3
