REMARK  Name = ZINC05795832
REMARK  14 active torsions:
REMARK  status: ('A' for Active; 'I' for Inactive)
REMARK    1  A    between atoms: C_1  and  C_2
REMARK    2  A    between atoms: C_2  and  O_3
REMARK    3  A    between atoms: O_3  and  C_4
REMARK    4  A    between atoms: C_4  and  C_6
REMARK    5  A    between atoms: C_6  and  C_7
REMARK    6  A    between atoms: C_6  and  C_23
REMARK    7  A    between atoms: C_7  and  C_8
REMARK    8  A    between atoms: C_8  and  C_9
REMARK    9  A    between atoms: C_9  and  C_10
REMARK   10  A    between atoms: C_10  and  C_12
REMARK   11  A    between atoms: C_10  and  N_14
REMARK   12  A    between atoms: C_23  and  O_25
REMARK   13  A    between atoms: O_25  and  C_26
REMARK   14  A    between atoms: C_26  and  C_27
REMARK                            x       y       z     vdW  Elec       q    Type
REMARK                         _______ _______ _______ _____ _____    ______ ____
ROOT
ATOM      1  C   UNL     1      -0.064   0.971   2.503  0.00  0.00    +0.004 C 
ENDROOT
BRANCH   1   2
ATOM      2  C   UNL     1      -0.780   1.465   3.762  0.00  0.00    +0.026 C 
BRANCH   2   3
ATOM      3  C   UNL     1      -0.115   0.857   4.999  0.00  0.00    +0.206 C 
BRANCH   3   4
ATOM      4  C   UNL     1      -0.740   1.437   6.241  0.00  0.00    +0.321 C 
ATOM      5  O   UNL     1      -1.626   2.253   6.148  0.00  0.00    -0.250 OA
BRANCH   4   6
ATOM      6  O   UNL     1      -0.311   1.047   7.452  0.00  0.00    -0.464 OA
BRANCH   6   8
ATOM      7  C   UNL     1      -0.342   1.085   9.887  0.00  0.00    +0.048 C 
ATOM      8  C   UNL     1      -0.959   1.648   8.605  0.00  0.00    +0.229 C 
ENDBRANCH   6   8
ENDBRANCH   4   6
ENDBRANCH   3   4
BRANCH   3   9
ATOM      9  C   UNL     1      -0.308  -0.638   4.990  0.00  0.00    +0.321 C 
ATOM     10  O   UNL     1      -0.916  -1.163   4.087  0.00  0.00    -0.250 OA
BRANCH   9  11
ATOM     11  O   UNL     1       0.194  -1.385   5.985  0.00  0.00    -0.464 OA
BRANCH  11  12
ATOM     12  C   UNL     1      -0.031  -2.818   5.911  0.00  0.00    +0.229 C 
ATOM     13  C   UNL     1       0.610  -3.498   7.122  0.00  0.00    +0.048 C 
ENDBRANCH  11  12
ENDBRANCH   9  11
ENDBRANCH   3   9
ENDBRANCH   2   3
ENDBRANCH   1   2
BRANCH   1  14
ATOM     14  C   UNL     1      -0.729   1.579   1.267  0.00  0.00    +0.033 C 
BRANCH  14  15
ATOM     15  C   UNL     1      -0.013   1.086   0.008  0.00  0.00    +0.151 C 
BRANCH  15  16
ATOM     16  N   UNL     1      -0.721   1.571  -1.179  0.00  0.00    -0.175 N 
ATOM     17  N   UNL     1      -0.903   2.819  -1.440  0.00  0.00    -0.152 NA
ATOM     18  C   UNL     1      -1.571   2.925  -2.577  0.00  0.00    +0.113 A 
ATOM     19  C   UNL     1      -2.062   3.971  -3.377  0.00  0.00    +0.032 A 
ATOM     20  C   UNL     1      -2.733   3.680  -4.522  0.00  0.00    +0.002 A 
ATOM     21  C   UNL     1      -2.951   2.364  -4.930  0.00  0.00    +0.002 A 
ATOM     22  C   UNL     1      -2.503   1.307  -4.203  0.00  0.00    +0.032 A 
ATOM     23  C   UNL     1      -1.801   1.537  -3.007  0.00  0.00    +0.113 A 
ATOM     24  N   UNL     1      -1.234   0.796  -2.070  0.00  0.00    -0.152 NA
ENDBRANCH  15  16
BRANCH  15  25
ATOM     25  C   UNL     1       1.401   1.607  -0.003  0.00  0.00    -0.006 C 
ATOM     26  C   UNL     1       2.408   0.770  -0.017  0.00  0.00    +0.006 C 
ENDBRANCH  15  25
ENDBRANCH  14  15
ENDBRANCH   1  14
TORSDOF 12
