REMARK  Name = ZINC34813541
REMARK  4 active torsions:
REMARK  status: ('A' for Active; 'I' for Inactive)
REMARK    1  A    between atoms: C_1  and  C_2
REMARK    2  A    between atoms: C_9  and  C_11
REMARK    3  A    between atoms: C_33  and  O_34
REMARK    4  A    between atoms: O_34  and  C_35
REMARK                            x       y       z     vdW  Elec       q    Type
REMARK                         _______ _______ _______ _____ _____    ______ ____
ROOT
ATOM      1  C   UNL     1      -0.037   1.484   0.061  0.00  0.00    +0.029 C 
ATOM      2  C   UNL     1       0.012  -0.045   0.036  0.00  0.00    +0.091 C 
ATOM      3  C   UNL     1       0.611  -0.519  -1.295  0.00  0.00    +0.128 C 
ATOM      4  N   UNL     1       0.889  -1.959  -1.198  0.00  0.00    -0.311 N 
ATOM      5  C   UNL     1       1.739  -2.443  -0.101  0.00  0.00    +0.125 C 
ATOM      6  C   UNL     1       1.141  -1.969   1.229  0.00  0.00    +0.127 C 
ATOM      7  N   UNL     1       0.859  -0.530   1.135  0.00  0.00    -0.292 N 
ATOM      8  C   UNL     1       1.371   0.331   2.037  0.00  0.00    +0.253 C 
ATOM      9  O   UNL     1       1.052   1.504   2.007  0.00  0.00    -0.270 OA
ATOM     10  C   UNL     1       0.364  -2.838  -2.118  0.00  0.00    +0.133 C 
ATOM     11  N   UNL     1       0.527  -4.096  -1.894  0.00  0.00    -0.228 NA
ATOM     12  C   UNL     1       0.107  -5.130  -2.675  0.00  0.00    +0.108 A 
ATOM     13  C   UNL     1       0.948  -6.235  -2.846  0.00  0.00    +0.031 A 
ATOM     14  C   UNL     1       0.534  -7.312  -3.603  0.00  0.00    +0.002 A 
ATOM     15  C   UNL     1      -0.715  -7.306  -4.196  0.00  0.00    +0.004 A 
ATOM     16  C   UNL     1      -1.550  -6.213  -4.045  0.00  0.00    +0.048 A 
ATOM     17  C   UNL     1      -1.142  -5.119  -3.302  0.00  0.00    +0.154 A 
ATOM     18  O   UNL     1      -1.949  -4.029  -3.236  0.00  0.00    -0.450 OA
ATOM     19  C   UNL     1      -1.493  -2.872  -3.776  0.00  0.00    +0.180 A 
ATOM     20  C   UNL     1      -0.344  -2.264  -3.274  0.00  0.00    +0.061 A 
ATOM     21  C   UNL     1       0.134  -1.097  -3.875  0.00  0.00    +0.015 A 
ATOM     22  C   UNL     1      -0.546  -0.539  -4.938  0.00  0.00    +0.004 A 
ATOM     23  C   UNL     1      -1.704  -1.128  -5.411  0.00  0.00    +0.049 A 
ATOM     24  C   UNL     1      -2.173  -2.290  -4.840  0.00  0.00    +0.163 A 
ENDROOT
BRANCH   8  25
ATOM     25  C   UNL     1       2.320  -0.150   3.059  0.00  0.00    +0.107 A 
ATOM     26  C   UNL     1       3.695  -0.142   2.803  0.00  0.00    +0.138 A 
ATOM     27  C   UNL     1       4.577  -0.594   3.766  0.00  0.00    +0.039 A 
ATOM     28  C   UNL     1       4.103  -1.054   4.981  0.00  0.00    +0.006 A 
ATOM     29  C   UNL     1       2.745  -1.067   5.243  0.00  0.00    +0.039 A 
ATOM     30  C   UNL     1       1.849  -0.613   4.293  0.00  0.00    +0.138 A 
ATOM     31  F   UNL     1       0.524  -0.621   4.553  0.00  0.00    -0.205 F 
ATOM     32  F   UNL     1       4.160   0.307   1.616  0.00  0.00    -0.205 F 
ENDBRANCH   8  25
BRANCH  24  33
ATOM     33  O   UNL     1      -3.313  -2.863  -5.312  0.00  0.00    -0.491 OA
ATOM     34  C   UNL     1      -3.960  -2.212  -6.407  0.00  0.00    +0.277 C 
ENDBRANCH  24  33
TORSDOF 2
