REMARK  Name = ZINC25731067
REMARK  10 active torsions:
REMARK  status: ('A' for Active; 'I' for Inactive)
REMARK    1  A    between atoms: C_1  and  C_2
REMARK    2  A    between atoms: C_7  and  C_9
REMARK    3  A    between atoms: C_7  and  C_10
REMARK    4  A    between atoms: N_13  and  C_17
REMARK    5  A    between atoms: C_17  and  C_18
REMARK    6  A    between atoms: C_18  and  O_20
REMARK    7  A    between atoms: O_20  and  C_21
REMARK    8  A    between atoms: C_21  and  C_22
REMARK    9  A    between atoms: N_27  and  C_28
REMARK   10  A    between atoms: C_28  and  C_29
REMARK                            x       y       z     vdW  Elec       q    Type
REMARK                         _______ _______ _______ _____ _____    ______ ____
ROOT
ATOM      1  C   UNL     1      -2.030  -4.133  -3.044  0.00  0.00    +0.238 C 
ENDROOT
BRANCH   1  13
ATOM      2  C   UNL     1      -0.019   1.528   0.010  0.00  0.00    +0.007 C 
ATOM      3  C   UNL     1       0.002  -0.004   0.002  0.00  0.00    -0.011 C 
ATOM      4  C   UNL     1      -1.435  -0.528   0.021  0.00  0.00    +0.038 C 
ATOM      5  C   UNL     1      -1.428  -2.050  -0.036  0.00  0.00    +0.113 C 
ATOM      6  C   UNL     1      -0.576  -2.676   1.050  0.00  0.00    +0.041 C 
ATOM      7  C   UNL     1       0.781  -2.031   1.272  0.00  0.00    -0.032 C 
ATOM      8  C   UNL     1       0.719  -0.508   1.253  0.00  0.00    +0.009 C 
ATOM      9  C   UNL     1       1.794  -2.527   0.236  0.00  0.00    +0.011 C 
ATOM     10  C   UNL     1       1.294  -2.463   2.663  0.00  0.00    +0.011 C 
ATOM     11  C   UNL     1      -1.044  -2.534  -1.413  0.00  0.00    +0.247 C 
ATOM     12  O   UNL     1      -0.057  -2.253  -2.059  0.00  0.00    -0.273 OA
ATOM     13  N   UNL     1      -2.050  -3.343  -1.811  0.00  0.00    -0.213 N 
ATOM     14  C   UNL     1      -3.063  -3.330  -0.939  0.00  0.00    +0.310 C 
ATOM     15  O   UNL     1      -4.089  -3.967  -1.084  0.00  0.00    -0.252 OA
ATOM     16  N   UNL     1      -2.817  -2.537   0.118  0.00  0.00    -0.285 N 
ATOM     17  H   UNL     1      -3.419  -2.317   0.843  0.00  0.00    +0.151 HD
ENDBRANCH   1  13
BRANCH   1  18
ATOM     18  C   UNL     1      -1.431  -5.488  -2.763  0.00  0.00    +0.326 C 
ATOM     19  O   UNL     1      -1.060  -5.764  -1.647  0.00  0.00    -0.249 OA
BRANCH  18  20
ATOM     20  O   UNL     1      -1.311  -6.387  -3.752  0.00  0.00    -0.454 OA
BRANCH  20  21
ATOM     21  C   UNL     1      -0.735  -7.650  -3.414  0.00  0.00    +0.328 C 
BRANCH  21  22
ATOM     22  C   UNL     1      -0.682  -8.523  -4.642  0.00  0.00    +0.258 C 
ATOM     23  O   UNL     1      -1.097  -8.104  -5.701  0.00  0.00    -0.272 OA
ATOM     24  N   UNL     1      -0.174  -9.768  -4.562  0.00  0.00    -0.237 N 
ATOM     25  C   UNL     1      -0.126 -10.548  -5.660  0.00  0.00    +0.306 C 
ATOM     26  O   UNL     1      -0.542 -10.129  -6.722  0.00  0.00    -0.252 OA
ATOM     27  N   UNL     1       0.382 -11.794  -5.580  0.00  0.00    -0.290 N 
ATOM     28  H   UNL     1       0.158 -10.103  -3.714  0.00  0.00    +0.159 HD
ATOM     29  H   UNL     1       0.714 -12.129  -4.732  0.00  0.00    +0.151 HD
BRANCH  27  30
ATOM     30  C   UNL     1       0.434 -12.642  -6.773  0.00  0.00    +0.219 C 
BRANCH  30  31
ATOM     31  C   UNL     1       1.051 -13.995  -6.411  0.00  0.00    +0.405 C 
ATOM     32  F   UNL     1       0.270 -14.616  -5.431  0.00  0.00    -0.169 F 
ATOM     33  F   UNL     1       1.100 -14.805  -7.551  0.00  0.00    -0.169 F 
ATOM     34  F   UNL     1       2.347 -13.800  -5.921  0.00  0.00    -0.169 F 
ENDBRANCH  30  31
ENDBRANCH  27  30
ENDBRANCH  21  22
ENDBRANCH  20  21
ENDBRANCH  18  20
ENDBRANCH   1  18
TORSDOF 7
