REMARK  Name = ZINC23983532
REMARK  6 active torsions:
REMARK  status: ('A' for Active; 'I' for Inactive)
REMARK    1  A    between atoms: C_3  and  S_30
REMARK    2  A    between atoms: C_6  and  N_7
REMARK    3  A    between atoms: C_11  and  C_25
REMARK    4  A    between atoms: C_12  and  N_20
REMARK    5  A    between atoms: C_16  and  N_18
REMARK    6  A    between atoms: S_30  and  N_33
REMARK                            x       y       z     vdW  Elec       q    Type
REMARK                         _______ _______ _______ _____ _____    ______ ____
ROOT
ATOM      1  N   UNL     1       4.714  -2.218  -1.695  0.00  0.00    -0.224 N 
ATOM      2  C   UNL     1       3.430  -1.754  -1.424  0.00  0.00    +0.138 A 
ATOM      3  C   UNL     1       3.467  -0.404  -1.120  0.00  0.00    +0.011 A 
ATOM      4  C   UNL     1       2.288   0.268  -0.814  0.00  0.00    +0.016 A 
ATOM      5  C   UNL     1       2.236   1.691  -0.482  0.00  0.00    +0.100 A 
ATOM      6  C   UNL     1       0.979   2.245  -0.192  0.00  0.00    +0.142 A 
ATOM      7  N   UNL     1      -0.122   1.504  -0.219  0.00  0.00    -0.216 NA
ATOM      8  C   UNL     1      -0.127   0.217  -0.514  0.00  0.00    +0.129 A 
ATOM      9  C   UNL     1       1.069  -0.459  -0.823  0.00  0.00    +0.063 A 
ATOM     10  C   UNL     1       1.112  -1.828  -1.142  0.00  0.00    +0.129 A 
ATOM     11  N   UNL     1       2.263  -2.409  -1.424  0.00  0.00    -0.216 NA
ATOM     12  N   UNL     1      -1.320  -0.475  -0.518  0.00  0.00    -0.343 N 
ATOM     13  C   UNL     1       4.913   0.019  -1.209  0.00  0.00    +0.136 C 
ATOM     14  C   UNL     1       5.641  -1.251  -1.593  0.00  0.00    +0.230 C 
ATOM     15  O   UNL     1       6.834  -1.373  -1.775  0.00  0.00    -0.275 OA
ATOM     16  H   UNL     1      -1.333  -1.547  -0.762  0.00  0.00    +0.144 HD
ATOM     17  H   UNL     1      -2.258   0.046  -0.278  0.00  0.00    +0.144 HD
ENDROOT
BRANCH   1  23
ATOM     18  C   UNL     1       3.987  -4.484  -2.112  0.00  0.00    +0.026 A 
ATOM     19  C   UNL     1       4.278  -5.790  -2.453  0.00  0.00    +0.030 A 
ATOM     20  C   UNL     1       5.585  -6.165  -2.707  0.00  0.00    +0.105 A 
ATOM     21  C   UNL     1       6.603  -5.233  -2.626  0.00  0.00    +0.030 A 
ATOM     22  C   UNL     1       6.318  -3.924  -2.291  0.00  0.00    +0.026 A 
ATOM     23  C   UNL     1       5.007  -3.544  -2.035  0.00  0.00    +0.043 A 
BRANCH  20  24
ATOM     24  S   UNL     1       5.953  -7.835  -3.135  0.00  0.00    +0.056 S 
ATOM     25  O   UNL     1       4.761  -8.387  -3.677  0.00  0.00    -0.153 OA
ATOM     26  O   UNL     1       7.177  -7.809  -3.856  0.00  0.00    -0.153 OA
BRANCH  24  27
ATOM     27  N   UNL     1       6.253  -8.647  -1.723  0.00  0.00    -0.204 NA
ATOM     28  H   UNL     1       6.488  -9.698  -1.948  0.00  0.00    +0.144 HD
ATOM     29  H   UNL     1       5.363  -8.600  -1.077  0.00  0.00    +0.144 HD
ENDBRANCH  24  27
ENDBRANCH  20  24
ENDBRANCH   1  23
BRANCH   6  30
ATOM     30  N   UNL     1       0.886   3.587   0.127  0.00  0.00    -0.314 N 
ATOM     31  C   UNL     1       1.328   4.436  -1.009  0.00  0.00    +0.106 C 
ATOM     32  C   UNL     1       0.681   5.809  -0.698  0.00  0.00    +0.020 C 
ATOM     33  C   UNL     1      -0.692   5.417  -0.105  0.00  0.00    +0.020 C 
ATOM     34  C   UNL     1      -0.516   3.972   0.396  0.00  0.00    +0.106 C 
ENDBRANCH   6  30
BRANCH  10  35
ATOM     35  N   UNL     1      -0.056  -2.568  -1.161  0.00  0.00    -0.343 N 
ATOM     36  H   UNL     1      -0.024  -3.639  -1.410  0.00  0.00    +0.144 HD
ATOM     37  H   UNL     1      -1.016  -2.086  -0.926  0.00  0.00    +0.144 HD
ENDBRANCH  10  35
BRANCH   5  38
ATOM     38  C   UNL     1       3.423   2.490  -0.452  0.00  0.00    +0.103 C 
ATOM     39  N   UNL     1       4.366   3.124  -0.429  0.00  0.00    -0.191 NA
ENDBRANCH   5  38
TORSDOF 6
