REMARK  Name = ZINC39469426
REMARK  4 active torsions:
REMARK  status: ('A' for Active; 'I' for Inactive)
REMARK    1  A    between atoms: C_1  and  C_2
REMARK    2  A    between atoms: C_2  and  O_3
REMARK    3  A    between atoms: O_3  and  P_4
REMARK    4  A    between atoms: C_13  and  O_22
REMARK                            x       y       z     vdW  Elec       q    Type
REMARK                         _______ _______ _______ _____ _____    ______ ____
ROOT
ATOM      1  P   UNL     1       0.906  -2.042   1.476  0.00  0.00    +0.421 P 
ATOM      2  O   UNL     1       1.405  -2.744   0.272  0.00  0.00    -0.239 OA
ATOM      3  N   UNL     1      -0.508  -2.719   1.992  0.00  0.00    -0.156 NA
ATOM      4  N   UNL     1      -0.881  -2.503   3.303  0.00  0.00    -0.228 NA
ATOM      5  C   UNL     1      -2.122  -3.263   3.534  0.00  0.00    +0.111 C 
ATOM      6  C   UNL     1      -2.638  -3.052   4.950  0.00  0.00    +0.036 C 
ATOM      7  C   UNL     1      -2.969  -1.603   5.186  0.00  0.00    +0.002 C 
ATOM      8  C   UNL     1      -3.011  -1.135   6.432  0.00  0.00    +0.078 C 
ATOM      9  C   UNL     1      -2.744  -2.050   7.560  0.00  0.00    +0.131 C 
ATOM     10  C   UNL     1      -2.059  -3.177   7.350  0.00  0.00    +0.024 C 
ATOM     11  C   UNL     1      -1.567  -3.485   5.957  0.00  0.00    +0.025 C 
ATOM     12  C   UNL     1      -0.291  -2.689   5.683  0.00  0.00    +0.031 C 
ATOM     13  C   UNL     1       0.176  -2.898   4.238  0.00  0.00    +0.100 C 
ATOM     14  C   UNL     1       1.441  -2.051   4.046  0.00  0.00    +0.191 C 
ATOM     15  O   UNL     1       1.946  -2.231   2.712  0.00  0.00    -0.294 OA
ATOM     16 CL   UNL     1      -3.376   0.536   6.728  0.00  0.00    -0.080 Cl
ATOM     17  H   UNL     1      -1.058  -3.249   1.394  0.00  0.00    +0.153 HD
ENDROOT
BRANCH   9  18
ATOM     18  O   UNL     1      -3.192  -1.746   8.806  0.00  0.00    -0.506 OA
ATOM     19  H   UNL     1      -3.676  -0.910   8.857  0.00  0.00    +0.292 HD
ENDBRANCH   9  18
BRANCH   1  20
ATOM     20  O   UNL     1       0.693  -0.477   1.160  0.00  0.00    -0.296 OA
BRANCH  20  22
ATOM     21  C   UNL     1      -0.019   1.526   0.010  0.00  0.00    +0.035 C 
ATOM     22  C   UNL     1       0.002  -0.004   0.002  0.00  0.00    +0.168 C 
ENDBRANCH  20  22
ENDBRANCH   1  20
TORSDOF 3
