REMARK  Name = ZINC06898926
REMARK  6 active torsions:
REMARK  status: ('A' for Active; 'I' for Inactive)
REMARK    1  A    between atoms: C_4  and  C_7
REMARK    2  A    between atoms: C_7  and  C_9
REMARK    3  A    between atoms: C_7  and  S_24
REMARK    4  A    between atoms: C_9  and  N_11
REMARK    5  A    between atoms: C_12  and  N_13
REMARK    6  A    between atoms: S_24  and  C_25
REMARK                            x       y       z     vdW  Elec       q    Type
REMARK                         _______ _______ _______ _____ _____    ______ ____
ROOT
ATOM      1  C   UNL     1       3.780  -1.561  -1.276  0.00  0.00    +0.257 C 
ATOM      2  O   UNL     1       3.462  -2.732  -1.222  0.00  0.00    -0.272 OA
ENDROOT
BRANCH   1   3
ATOM      3  N   UNL     1       4.205  -1.039  -2.426  0.00  0.00    -0.144 NA
ATOM      4  C   UNL     1       4.281  -1.798  -3.511  0.00  0.00    +0.216 C 
ATOM      5  N   UNL     1       4.717  -1.263  -4.690  0.00  0.00    -0.281 N 
ATOM      6  C   UNL     1       5.182   0.038  -4.729  0.00  0.00    +0.304 A 
ATOM      7  N   UNL     1       5.341   0.807  -3.684  0.00  0.00    -0.193 NA
ATOM      8  C   UNL     1       5.814   2.014  -4.098  0.00  0.00    +0.111 A 
ATOM      9  C   UNL     1       6.159   3.194  -3.436  0.00  0.00    +0.031 A 
ATOM     10  C   UNL     1       6.619   4.273  -4.158  0.00  0.00    +0.002 A 
ATOM     11  C   UNL     1       6.740   4.194  -5.537  0.00  0.00    +0.004 A 
ATOM     12  C   UNL     1       6.402   3.034  -6.204  0.00  0.00    +0.048 A 
ATOM     13  C   UNL     1       5.938   1.939  -5.494  0.00  0.00    +0.157 A 
ATOM     14  O   UNL     1       5.542   0.695  -5.845  0.00  0.00    -0.423 OA
ATOM     15  H   UNL     1       4.700  -1.796  -5.500  0.00  0.00    +0.173 HD
BRANCH   4  16
ATOM     16  N   UNL     1       3.924  -3.111  -3.450  0.00  0.00    -0.269 NA
ATOM     17  H   UNL     1       3.909  -3.648  -4.257  0.00  0.00    +0.190 HD
ENDBRANCH   4  16
ENDBRANCH   1   3
BRANCH   1  18
ATOM     18  C   UNL     1       3.694  -0.699  -0.043  0.00  0.00    +0.169 C 
BRANCH  18  22
ATOM     19  C   UNL     1      -0.042   1.373  -0.014  0.00  0.00    +0.000 A 
ATOM     20  C   UNL     1       1.143   2.085  -0.020  0.00  0.00    +0.000 A 
ATOM     21  C   UNL     1       2.352   1.414  -0.029  0.00  0.00    +0.005 A 
ATOM     22  C   UNL     1       2.376   0.032  -0.032  0.00  0.00    -0.025 A 
ATOM     23  C   UNL     1       1.191  -0.679  -0.026  0.00  0.00    +0.005 A 
ATOM     24  C   UNL     1      -0.018  -0.009  -0.018  0.00  0.00    +0.000 A 
ENDBRANCH  18  22
BRANCH  18  25
ATOM     25  S   UNL     1       3.819  -1.742   1.435  0.00  0.00    -0.108 S 
BRANCH  25  26
ATOM     26  C   UNL     1       3.852  -0.591   2.768  0.00  0.00    +0.009 A 
ATOM     27  C   UNL     1       3.780   0.773   2.513  0.00  0.00    +0.015 A 
ATOM     28  C   UNL     1       3.806   1.672   3.560  0.00  0.00    +0.001 A 
ATOM     29  C   UNL     1       3.905   1.217   4.862  0.00  0.00    +0.000 A 
ATOM     30  C   UNL     1       3.977  -0.140   5.120  0.00  0.00    +0.001 A 
ATOM     31  C   UNL     1       3.945  -1.045   4.078  0.00  0.00    +0.015 A 
ENDBRANCH  25  26
ENDBRANCH  18  25
ENDBRANCH   1  18
TORSDOF 6
