REMARK  Name = ZINC57687016
REMARK  10 active torsions:
REMARK  status: ('A' for Active; 'I' for Inactive)
REMARK    1  A    between atoms: C_1  and  C_2
REMARK    2  A    between atoms: C_7  and  C_8
REMARK    3  A    between atoms: C_8  and  C_10
REMARK    4  A    between atoms: C_8  and  C_22
REMARK    5  A    between atoms: C_10  and  C_11
REMARK    6  A    between atoms: C_11  and  O_12
REMARK    7  A    between atoms: O_12  and  C_13
REMARK    8  A    between atoms: C_15  and  C_21
REMARK    9  A    between atoms: C_16  and  C_20
REMARK   10  A    between atoms: C_18  and  C_19
REMARK                            x       y       z     vdW  Elec       q    Type
REMARK                         _______ _______ _______ _____ _____    ______ ____
ROOT
ATOM      1  C   UNL     1      -0.844  -0.433   3.455  0.00  0.00    +0.064 C 
ENDROOT
BRANCH   1   2
ATOM      2  C   UNL     1       0.243   0.049   2.492  0.00  0.00    +0.125 C 
BRANCH   2   9
ATOM      3  C   UNL     1      -0.479   1.458   0.076  0.00  0.00    +0.044 C 
ATOM      4  C   UNL     1      -0.218  -0.025   0.034  0.00  0.00    -0.046 A 
ATOM      5  C   UNL     1      -0.319  -0.711  -1.163  0.00  0.00    +0.003 A 
ATOM      6  C   UNL     1      -0.080  -2.071  -1.202  0.00  0.00    +0.000 A 
ATOM      7  C   UNL     1       0.260  -2.747  -0.045  0.00  0.00    +0.000 A 
ATOM      8  C   UNL     1       0.362  -2.062   1.151  0.00  0.00    +0.005 A 
ATOM      9  C   UNL     1       0.127  -0.700   1.189  0.00  0.00    -0.028 A 
ENDBRANCH   2   9
BRANCH   2  10
ATOM     10  C   UNL     1       1.568  -0.199   3.084  0.00  0.00    +0.071 C 
ATOM     11  N   UNL     1       2.590  -0.391   3.541  0.00  0.00    -0.196 NA
ENDBRANCH   2  10
ENDBRANCH   1   2
BRANCH   1  12
ATOM     12  C   UNL     1      -0.806   0.412   4.731  0.00  0.00    +0.230 C 
BRANCH  12  13
ATOM     13  O   UNL     1      -1.821  -0.038   5.630  0.00  0.00    -0.492 OA
BRANCH  13  14
ATOM     14  C   UNL     1      -1.923   0.612   6.819  0.00  0.00    +0.124 A 
ATOM     15  C   UNL     1      -1.068   1.664   7.112  0.00  0.00    +0.049 A 
ATOM     16  C   UNL     1      -1.174   2.323   8.322  0.00  0.00    -0.044 A 
ATOM     17  C   UNL     1      -2.132   1.935   9.240  0.00  0.00    -0.047 A 
ATOM     18  C   UNL     1      -2.986   0.886   8.951  0.00  0.00    +0.010 A 
ATOM     19  C   UNL     1      -2.887   0.228   7.740  0.00  0.00    -0.009 A 
ATOM     20  C   UNL     1      -3.822  -0.911   7.423  0.00  0.00    +0.047 C 
ATOM     21  C   UNL     1      -2.246   2.656  10.559  0.00  0.00    +0.044 C 
ATOM     22  C   UNL     1      -0.245   3.466   8.640  0.00  0.00    +0.044 C 
ENDBRANCH  13  14
ENDBRANCH  12  13
ENDBRANCH   1  12
TORSDOF 6
