REMARK  Name = ZINC67318102
REMARK  15 active torsions:
REMARK  status: ('A' for Active; 'I' for Inactive)
REMARK    1  A    between atoms: C_1  and  C_2
REMARK    2  A    between atoms: C_2  and  C_3
REMARK    3  A    between atoms: C_3  and  C_4
REMARK    4  A    between atoms: C_4  and  C_5
REMARK    5  A    between atoms: C_5  and  C_6
REMARK    6  A    between atoms: C_6  and  C_7
REMARK    7  A    between atoms: C_7  and  C_9
REMARK    8  A    between atoms: C_7  and  N_10
REMARK    9  A    between atoms: C_11  and  C_13
REMARK   10  A    between atoms: N_15  and  C_16
REMARK   11  A    between atoms: C_19  and  C_22
REMARK   12  A    between atoms: N_24  and  C_25
REMARK   13  A    between atoms: N_24  and  C_28
REMARK   14  A    between atoms: C_25  and  C_26
REMARK   15  A    between atoms: C_28  and  C_29
REMARK                            x       y       z     vdW  Elec       q    Type
REMARK                         _______ _______ _______ _____ _____    ______ ____
ROOT
ATOM      1  C   UNL     1      -7.176  -4.302   2.709  0.00  0.00    +0.303 C 
ATOM      2  O   UNL     1      -6.488  -3.764   3.551  0.00  0.00    -0.265 OA
ATOM      3  N   UNL     1      -8.506  -4.414   2.895  0.00  0.00    -0.278 N 
ATOM      4  H   UNL     1      -9.065  -4.782   2.192  0.00  0.00    +0.155 HD
ENDROOT
BRANCH   3   5
ATOM      5  C   UNL     1      -9.078  -4.000   4.095  0.00  0.00    +0.034 A 
ATOM      6  C   UNL     1      -8.573  -2.886   4.758  0.00  0.00    +0.024 A 
ATOM      7  C   UNL     1      -9.136  -2.474   5.944  0.00  0.00    +0.015 A 
ATOM      8  C   UNL     1     -10.217  -3.177   6.484  0.00  0.00    +0.037 A 
ATOM      9  C   UNL     1     -10.723  -4.296   5.815  0.00  0.00    +0.015 A 
ATOM     10  C   UNL     1     -10.158  -4.699   4.627  0.00  0.00    +0.024 A 
BRANCH   8  11
ATOM     11  C   UNL     1     -10.824  -2.739   7.756  0.00  0.00    +0.247 C 
ATOM     12  O   UNL     1     -12.032  -2.759   7.893  0.00  0.00    -0.270 OA
ATOM     13  N   UNL     1     -10.038  -2.317   8.767  0.00  0.00    -0.290 N 
BRANCH  13  14
ATOM     14  C   UNL     1     -10.642  -1.843  10.014  0.00  0.00    +0.135 C 
BRANCH  14  15
ATOM     15  C   UNL     1     -10.809  -3.001  10.964  0.00  0.00    -0.016 C 
ATOM     16  C   UNL     1     -10.295  -2.942  12.167  0.00  0.00    +0.005 C 
ENDBRANCH  14  15
ENDBRANCH  13  14
BRANCH  13  17
ATOM     17  C   UNL     1      -8.581  -2.333   8.617  0.00  0.00    +0.135 C 
BRANCH  17  18
ATOM     18  C   UNL     1      -8.094  -0.944   8.296  0.00  0.00    -0.016 C 
ATOM     19  C   UNL     1      -7.144  -0.399   9.016  0.00  0.00    +0.005 C 
ENDBRANCH  17  18
ENDBRANCH  13  17
ENDBRANCH   8  11
ENDBRANCH   3   5
BRANCH   1  21
ATOM     20  N   UNL     1      -5.217  -4.730   1.279  0.00  0.00    -0.305 N 
ATOM     21  C   UNL     1      -6.548  -4.842   1.465  0.00  0.00    +0.300 C 
ATOM     22  O   UNL     1      -7.235  -5.380   0.623  0.00  0.00    -0.265 OA
ATOM     23  H   UNL     1      -4.668  -4.300   1.953  0.00  0.00    +0.149 HD
BRANCH  20  24
ATOM     24  C   UNL     1      -4.601  -5.259   0.060  0.00  0.00    +0.070 C 
ATOM     25  C   UNL     1      -4.303  -6.748   0.244  0.00  0.00    +0.028 C 
BRANCH  24  26
ATOM     26  C   UNL     1      -3.298  -4.508  -0.220  0.00  0.00    +0.022 C 
BRANCH  26  27
ATOM     27  C   UNL     1      -3.610  -3.042  -0.527  0.00  0.00    +0.002 C 
BRANCH  27  28
ATOM     28  C   UNL     1      -2.306  -2.291  -0.807  0.00  0.00    +0.000 C 
BRANCH  28  29
ATOM     29  C   UNL     1      -2.618  -0.825  -1.114  0.00  0.00    -0.000 C 
BRANCH  29  31
ATOM     30  C   UNL     1      -1.626   1.391  -1.701  0.00  0.00    +0.004 C 
ATOM     31  C   UNL     1      -1.315  -0.075  -1.394  0.00  0.00    -0.003 C 
ENDBRANCH  29  31
ENDBRANCH  28  29
ENDBRANCH  27  28
ENDBRANCH  26  27
ENDBRANCH  24  26
ENDBRANCH  20  24
ENDBRANCH   1  21
TORSDOF 13
