REMARK  Name = ZINC37991378
REMARK  7 active torsions:
REMARK  status: ('A' for Active; 'I' for Inactive)
REMARK    1  A    between atoms: C_1  and  C_2
REMARK    2  A    between atoms: C_3  and  C_8
REMARK    3  A    between atoms: C_8  and  N_9
REMARK    4  A    between atoms: N_9  and  C_10
REMARK    5  A    between atoms: C_10  and  C_11
REMARK    6  A    between atoms: C_14  and  O_18
REMARK    7  A    between atoms: O_18  and  C_19
REMARK                            x       y       z     vdW  Elec       q    Type
REMARK                         _______ _______ _______ _____ _____    ______ ____
ROOT
ATOM      1  N   UNL     1       1.350   0.059  -2.961  0.00  0.00    +0.384 N 
ATOM      2  H   UNL     1       1.668   0.806  -2.362  0.00  0.00    -0.085 HD
ATOM      3  H   UNL     1       1.974  -0.730  -2.875  0.00  0.00    -0.085 HD
ENDROOT
BRANCH   1   4
ATOM      4  C   UNL     1      -0.006  -0.343  -2.566  0.00  0.00    -0.043 C 
BRANCH   4   7
ATOM      5  C   UNL     1      -0.018   1.503   0.010  0.00  0.00    +0.068 C 
ATOM      6  C   UNL     1       0.002  -0.004   0.002  0.00  0.00    +0.061 A 
ATOM      7  C   UNL     1       0.008  -0.818  -1.135  0.00  0.00    -0.024 A 
ATOM      8  C   UNL     1       0.028  -2.107  -0.725  0.00  0.00    +0.106 A 
ATOM      9  N   UNL     1       0.034  -2.109   0.625  0.00  0.00    -0.284 N 
ATOM     10  H   UNL     1       0.048  -2.894   1.194  0.00  0.00    +0.188 HD
ATOM     11  N   UNL     1       0.023  -0.777   1.058  0.00  0.00    -0.179 NA
ENDBRANCH   4   7
ENDBRANCH   1   4
BRANCH   1  12
ATOM     12  C   UNL     1       1.336   0.522  -4.356  0.00  0.00    -0.046 C 
BRANCH  12  13
ATOM     13  C   UNL     1       2.728   0.935  -4.761  0.00  0.00    -0.062 A 
ATOM     14  C   UNL     1       3.144   2.239  -4.569  0.00  0.00    +0.020 A 
ATOM     15  C   UNL     1       4.420   2.620  -4.941  0.00  0.00    +0.061 A 
ATOM     16  C   UNL     1       5.283   1.693  -5.508  0.00  0.00    +0.148 A 
ATOM     17  C   UNL     1       4.862   0.384  -5.699  0.00  0.00    +0.061 A 
ATOM     18  C   UNL     1       3.587   0.007  -5.321  0.00  0.00    +0.020 A 
ATOM     19 BR   UNL     1       6.034  -0.884  -6.471  0.00  0.00    -0.046 Br
ATOM     20 BR   UNL     1       4.989   4.405  -4.679  0.00  0.00    -0.046 Br
BRANCH  16  21
ATOM     21  O   UNL     1       6.538   2.065  -5.875  0.00  0.00    -0.493 OA
ATOM     22  C   UNL     1       7.567   1.935  -4.892  0.00  0.00    +0.277 C 
ENDBRANCH  16  21
ENDBRANCH  12  13
ENDBRANCH   1  12
TORSDOF 5
