REMARK  Name = ZINC13458358
REMARK  7 active torsions:
REMARK  status: ('A' for Active; 'I' for Inactive)
REMARK    1  A    between atoms: C_7  and  S_16
REMARK    2  A    between atoms: C_9  and  C_11
REMARK    3  A    between atoms: S_16  and  C_17
REMARK    4  A    between atoms: C_17  and  C_18
REMARK    5  A    between atoms: N_20  and  C_21
REMARK    6  A    between atoms: C_23  and  C_29
REMARK    7  A    between atoms: C_25  and  C_27
REMARK                            x       y       z     vdW  Elec       q    Type
REMARK                         _______ _______ _______ _____ _____    ______ ____
ROOT
ATOM      1  C   UNL     1      -1.325   1.929  -0.145  0.00  0.00    +0.171 C 
ENDROOT
BRANCH   1   2
ATOM      2  C   UNL     1      -0.002   1.208  -0.161  0.00  0.00    +0.227 C 
ATOM      3  O   UNL     1       0.032   0.006  -0.324  0.00  0.00    -0.275 OA
ATOM      4  N   UNL     1       1.143   1.898   0.001  0.00  0.00    -0.285 N 
ATOM      5  H   UNL     1       1.123   2.867   0.055  0.00  0.00    +0.155 HD
BRANCH   4   6
ATOM      6  C   UNL     1       2.364   1.218   0.092  0.00  0.00    +0.035 A 
ATOM      7  C   UNL     1       2.418  -0.029   0.696  0.00  0.00    +0.038 A 
ATOM      8  C   UNL     1       3.632  -0.713   0.783  0.00  0.00    +0.066 A 
ATOM      9  C   UNL     1       4.793  -0.135   0.272  0.00  0.00    +0.030 A 
ATOM     10  C   UNL     1       4.736   1.121  -0.329  0.00  0.00    +0.066 A 
ATOM     11  C   UNL     1       3.517   1.796  -0.418  0.00  0.00    +0.038 A 
BRANCH  10  12
ATOM     12  C   UNL     1       5.964   1.737  -0.873  0.00  0.00    +0.387 C 
ATOM     13  O   UNL     1       5.914   2.832  -1.397  0.00  0.00    -0.241 OA
ATOM     14  O   UNL     1       7.140   1.085  -0.787  0.00  0.00    -0.241 OA
ENDBRANCH  10  12
BRANCH   8  15
ATOM     15  C   UNL     1       3.688  -2.044   1.421  0.00  0.00    +0.387 C 
ATOM     16  O   UNL     1       2.675  -2.546   1.867  0.00  0.00    -0.241 OA
ATOM     17  O   UNL     1       4.861  -2.700   1.510  0.00  0.00    -0.241 OA
ENDBRANCH   8  15
ENDBRANCH   4   6
ENDBRANCH   1   2
BRANCH   1  18
ATOM     18  S   UNL     1      -2.665   0.737  -0.394  0.00  0.00    -0.096 S 
BRANCH  18  25
ATOM     19  C   UNL     1      -6.982  -0.454  -0.829  0.00  0.00    +0.001 A 
ATOM     20  C   UNL     1      -8.032   0.458  -0.770  0.00  0.00    +0.002 A 
ATOM     21  C   UNL     1      -7.800   1.787  -0.573  0.00  0.00    +0.028 A 
ATOM     22  C   UNL     1      -6.483   2.245  -0.427  0.00  0.00    +0.076 A 
ATOM     23  C   UNL     1      -5.416   1.314  -0.488  0.00  0.00    +0.032 A 
ATOM     24  C   UNL     1      -5.688  -0.041  -0.691  0.00  0.00    +0.012 A 
ATOM     25  C   UNL     1      -4.053   1.821  -0.332  0.00  0.00    +0.109 A 
ATOM     26  N   UNL     1      -3.899   3.124  -0.137  0.00  0.00    -0.218 NA
ATOM     27  C   UNL     1      -4.947   3.946  -0.096  0.00  0.00    +0.197 A 
ATOM     28  N   UNL     1      -6.197   3.538  -0.231  0.00  0.00    -0.225 NA
BRANCH  27  29
ATOM     29  C   UNL     1      -4.700   5.384   0.118  0.00  0.00    +0.172 A 
ATOM     30  C   UNL     1      -3.482   5.971   0.276  0.00  0.00    +0.053 A 
ATOM     31  C   UNL     1      -3.715   7.348   0.450  0.00  0.00    +0.042 A 
ATOM     32  C   UNL     1      -5.050   7.534   0.391  0.00  0.00    +0.196 A 
ATOM     33  O   UNL     1      -5.641   6.347   0.185  0.00  0.00    -0.460 OA
ENDBRANCH  27  29
ENDBRANCH  18  25
ENDBRANCH   1  18
TORSDOF 7
