REMARK  Name = ZINC64103196
REMARK  7 active torsions:
REMARK  status: ('A' for Active; 'I' for Inactive)
REMARK    1  A    between atoms: C_1  and  O_2
REMARK    2  A    between atoms: O_2  and  C_3
REMARK    3  A    between atoms: C_3  and  C_5
REMARK    4  A    between atoms: C_8  and  N_21
REMARK    5  A    between atoms: N_11  and  C_12
REMARK    6  A    between atoms: C_22  and  C_24
REMARK    7  A    between atoms: C_26  and  C_35
REMARK                            x       y       z     vdW  Elec       q    Type
REMARK                         _______ _______ _______ _____ _____    ______ ____
ROOT
ATOM      1  N   UNL     1      -1.884  -3.887   3.112  0.00  0.00    -0.309 N 
ATOM      2  C   UNL     1      -2.877  -4.648   2.611  0.00  0.00    +0.240 C 
ATOM      3  O   UNL     1      -2.704  -5.273   1.587  0.00  0.00    -0.273 OA
ATOM      4  H   UNL     1      -1.993  -3.451   3.971  0.00  0.00    +0.149 HD
ENDROOT
BRANCH   2   5
ATOM      5  C   UNL     1      -4.202  -4.723   3.325  0.00  0.00    +0.198 C 
ATOM      6  C   UNL     1      -5.107  -3.603   2.861  0.00  0.00    -0.000 C 
ATOM      7  C   UNL     1      -6.213  -4.222   2.303  0.00  0.00    +0.006 A 
ATOM      8  C   UNL     1      -7.391  -3.716   1.703  0.00  0.00    +0.030 A 
ATOM      9  C   UNL     1      -8.328  -4.576   1.232  0.00  0.00    +0.042 A 
ATOM     10  C   UNL     1      -8.163  -5.964   1.322  0.00  0.00    +0.022 A 
ATOM     11  C   UNL     1      -7.063  -6.519   1.883  0.00  0.00    +0.027 A 
ATOM     12  C   UNL     1      -6.035  -5.684   2.399  0.00  0.00    +0.044 A 
ATOM     13  N   UNL     1      -4.891  -5.971   2.982  0.00  0.00    -0.370 N 
ATOM     14 CL   UNL     1      -9.768  -3.941   0.499  0.00  0.00    -0.084 Cl
ATOM     15  H   UNL     1      -4.556  -6.864   3.157  0.00  0.00    +0.161 HD
BRANCH   6  16
ATOM     16  C   UNL     1      -4.865  -2.164   2.978  0.00  0.00    -0.019 A 
ATOM     17  C   UNL     1      -5.305  -1.290   1.973  0.00  0.00    +0.008 A 
ATOM     18  C   UNL     1      -5.073   0.062   2.092  0.00  0.00    +0.001 A 
ATOM     19  C   UNL     1      -4.408   0.560   3.199  0.00  0.00    +0.000 A 
ATOM     20  C   UNL     1      -3.969  -0.294   4.197  0.00  0.00    +0.001 A 
ATOM     21  C   UNL     1      -4.197  -1.649   4.098  0.00  0.00    +0.008 A 
ENDBRANCH   6  16
ENDBRANCH   2   5
BRANCH   1  24
ATOM     22  C   UNL     1       0.707  -2.087   1.177  0.00  0.00    +0.168 C 
ATOM     23  C   UNL     1      -0.756  -2.546   1.347  0.00  0.00    +0.054 C 
ATOM     24  C   UNL     1      -0.639  -3.718   2.358  0.00  0.00    +0.089 C 
ATOM     25  C   UNL     1       0.505  -3.224   3.277  0.00  0.00    +0.107 C 
ATOM     26  N   UNL     1       1.450  -2.534   2.369  0.00  0.00    -0.285 NA
BRANCH  26  27
ATOM     27  C   UNL     1       2.564  -3.415   1.994  0.00  0.00    +0.066 C 
ATOM     28  C   UNL     1       3.469  -3.704   3.211  0.00  0.00    +0.054 C 
ATOM     29  C   UNL     1       4.873  -3.780   2.652  0.00  0.00    -0.043 A 
ATOM     30  C   UNL     1       6.029  -4.313   3.198  0.00  0.00    +0.004 A 
ATOM     31  C   UNL     1       7.216  -4.269   2.493  0.00  0.00    +0.000 A 
ATOM     32  C   UNL     1       7.251  -3.691   1.237  0.00  0.00    +0.000 A 
ATOM     33  C   UNL     1       6.099  -3.159   0.691  0.00  0.00    +0.004 A 
ATOM     34  C   UNL     1       4.909  -3.202   1.397  0.00  0.00    -0.043 A 
ATOM     35  C   UNL     1       3.530  -2.698   1.027  0.00  0.00    +0.054 C 
ENDBRANCH  26  27
BRANCH  22  36
ATOM     36  C   UNL     1       0.763  -0.584   1.071  0.00  0.00    +0.324 C 
ATOM     37  O   UNL     1       1.366   0.057   1.899  0.00  0.00    -0.249 OA
BRANCH  36  39
ATOM     38  C   UNL     1       0.238   1.466   0.020  0.00  0.00    +0.280 C 
ATOM     39  O   UNL     1       0.143   0.041   0.058  0.00  0.00    -0.467 OA
ENDBRANCH  36  39
ENDBRANCH  22  36
ENDBRANCH   1  24
TORSDOF 6
