REMARK  Name = ZINC36116628
REMARK  12 active torsions:
REMARK  status: ('A' for Active; 'I' for Inactive)
REMARK    1  A    between atoms: C_1  and  C_2
REMARK    2  A    between atoms: C_2  and  C_3
REMARK    3  A    between atoms: C_2  and  C_4
REMARK    4  A    between atoms: C_7  and  O_10
REMARK    5  A    between atoms: O_10  and  C_11
REMARK    6  A    between atoms: C_11  and  C_12
REMARK    7  A    between atoms: C_22  and  C_24
REMARK    8  A    between atoms: C_24  and  N_25
REMARK    9  A    between atoms: N_25  and  C_26
REMARK   10  A    between atoms: C_26  and  C_27
REMARK   11  A    between atoms: C_27  and  N_28
REMARK   12  A    between atoms: C_33  and  C_35
REMARK                            x       y       z     vdW  Elec       q    Type
REMARK                         _______ _______ _______ _____ _____    ______ ____
ROOT
ATOM      1  C   UNL     1      -9.133  -4.824  -3.479  0.00  0.00    +0.144 C 
ATOM      2  C   UNL     1     -10.078  -3.624  -3.463  0.00  0.00    -0.014 A 
ATOM      3  C   UNL     1     -10.994  -3.360  -4.480  0.00  0.00    +0.013 A 
ATOM      4  C   UNL     1     -11.798  -2.275  -4.400  0.00  0.00    +0.046 A 
ATOM      5  S   UNL     1     -11.291  -1.554  -2.846  0.00  0.00    -0.101 S 
ATOM      6  C   UNL     1     -10.053  -2.750  -2.420  0.00  0.00    -0.004 A 
ATOM      7  C   UNL     1      -9.186  -2.796  -1.204  0.00  0.00    +0.061 C 
ATOM      8  C   UNL     1      -8.020  -3.762  -1.466  0.00  0.00    +0.114 C 
ATOM      9  N   UNL     1      -8.552  -4.959  -2.137  0.00  0.00    -0.289 N 
ATOM     10  C   UNL     1      -8.509  -6.160  -1.528  0.00  0.00    +0.234 C 
ATOM     11  O   UNL     1      -8.952  -7.141  -2.088  0.00  0.00    -0.274 OA
ENDROOT
BRANCH   1  12
ATOM     12  C   UNL     1      -8.021  -4.593  -4.504  0.00  0.00    +0.256 C 
BRANCH  12  13
ATOM     13  O   UNL     1      -7.373  -3.349  -4.233  0.00  0.00    -0.490 OA
BRANCH  13  17
ATOM     14  C   UNL     1      -4.279  -2.262  -6.734  0.00  0.00    -0.045 A 
ATOM     15  C   UNL     1      -4.646  -1.433  -5.690  0.00  0.00    +0.007 A 
ATOM     16  C   UNL     1      -5.681  -1.795  -4.851  0.00  0.00    +0.046 A 
ATOM     17  C   UNL     1      -6.354  -2.990  -5.057  0.00  0.00    +0.121 A 
ATOM     18  C   UNL     1      -5.984  -3.820  -6.106  0.00  0.00    +0.046 A 
ATOM     19  C   UNL     1      -4.951  -3.451  -6.945  0.00  0.00    +0.007 A 
BRANCH  14  21
ATOM     20  C   UNL     1      -3.482  -0.534  -8.325  0.00  0.00    +0.012 C 
ATOM     21  C   UNL     1      -3.148  -1.865  -7.648  0.00  0.00    +0.013 C 
ATOM     22  C   UNL     1      -1.862  -1.714  -6.832  0.00  0.00    +0.012 C 
ENDBRANCH  14  21
ENDBRANCH  13  17
ENDBRANCH  12  13
ENDBRANCH   1  12
BRANCH  10  23
ATOM     23  C   UNL     1      -7.911  -6.286  -0.150  0.00  0.00    +0.203 C 
BRANCH  23  24
ATOM     24  N   UNL     1      -7.983  -7.682   0.288  0.00  0.00    -0.294 N 
ATOM     25  C   UNL     1      -9.059  -8.120   0.971  0.00  0.00    +0.219 C 
ATOM     26  O   UNL     1      -9.079  -9.249   1.414  0.00  0.00    -0.275 OA
BRANCH  25  27
ATOM     27  C   UNL     1     -10.238  -7.206   1.186  0.00  0.00    +0.075 C 
ATOM     28  C   UNL     1     -10.143  -6.538   2.574  0.00  0.00    +0.013 C 
ATOM     29  C   UNL     1     -11.610  -6.477   3.067  0.00  0.00    +0.001 C 
ATOM     30  C   UNL     1     -12.197  -7.818   2.561  0.00  0.00    +0.001 C 
ATOM     31  C   UNL     1     -11.544  -8.019   1.178  0.00  0.00    +0.013 C 
ENDBRANCH  25  27
BRANCH  24  32
ATOM     32  C   UNL     1      -6.885  -8.603  -0.018  0.00  0.00    +0.090 C 
BRANCH  32  33
ATOM     33  C   UNL     1      -5.859  -8.568   1.117  0.00  0.00    -0.060 C 
BRANCH  33  34
ATOM     34  N   UNL     1      -4.758  -9.491   0.811  0.00  0.00    +0.381 N 
ATOM     35  C   UNL     1      -3.966  -8.981  -0.337  0.00  0.00    -0.079 C 
ATOM     36  C   UNL     1      -2.602  -9.696  -0.172  0.00  0.00    -0.020 C 
ATOM     37  C   UNL     1      -2.404  -9.714   1.361  0.00  0.00    -0.020 C 
ATOM     38  C   UNL     1      -3.818  -9.559   1.951  0.00  0.00    -0.079 C 
ATOM     39  H   UNL     1      -5.122 -10.409   0.604  0.00  0.00    -0.082 HD
ENDBRANCH  33  34
ENDBRANCH  32  33
ENDBRANCH  24  32
ENDBRANCH  23  24
ENDBRANCH  10  23
TORSDOF 10
