REMARK  Name = ZINC29911349
REMARK  11 active torsions:
REMARK  status: ('A' for Active; 'I' for Inactive)
REMARK    1  A    between atoms: C_1  and  C_2
REMARK    2  A    between atoms: C_2  and  C_3
REMARK    3  A    between atoms: C_3  and  C_5
REMARK    4  A    between atoms: C_3  and  N_22
REMARK    5  A    between atoms: C_5  and  N_6
REMARK    6  A    between atoms: C_7  and  C_9
REMARK    7  A    between atoms: C_12  and  S_15
REMARK    8  A    between atoms: S_15  and  N_18
REMARK    9  A    between atoms: N_18  and  C_19
REMARK   10  A    between atoms: C_19  and  C_20
REMARK   11  A    between atoms: C_19  and  C_21
REMARK                            x       y       z     vdW  Elec       q    Type
REMARK                         _______ _______ _______ _____ _____    ______ ____
ROOT
ATOM      1  N   UNL     1       2.349   4.237  -0.002  0.00  0.00    -0.313 N 
ATOM      2  C   UNL     1       1.200   3.537   0.054  0.00  0.00    +0.244 C 
ATOM      3  O   UNL     1       0.140   4.117   0.186  0.00  0.00    -0.270 OA
ATOM      4  H   UNL     1       3.308   3.712  -0.121  0.00  0.00    +0.149 HD
ENDROOT
BRANCH   2   5
ATOM      5  C   UNL     1       1.227   2.062  -0.045  0.00  0.00    +0.037 A 
ATOM      6  C   UNL     1       0.038   1.333   0.012  0.00  0.00    +0.015 A 
ATOM      7  C   UNL     1       0.071  -0.043  -0.081  0.00  0.00    +0.029 A 
ATOM      8  C   UNL     1       1.279  -0.701  -0.232  0.00  0.00    +0.105 A 
ATOM      9  C   UNL     1       2.462   0.016  -0.289  0.00  0.00    +0.029 A 
ATOM     10  C   UNL     1       2.443   1.392  -0.197  0.00  0.00    +0.015 A 
BRANCH   8  11
ATOM     11  S   UNL     1       1.313  -2.458  -0.349  0.00  0.00    +0.059 S 
ATOM     12  O   UNL     1       2.609  -2.869   0.063  0.00  0.00    -0.153 OA
ATOM     13  O   UNL     1       0.129  -2.930   0.279  0.00  0.00    -0.153 OA
BRANCH  11  14
ATOM     14  N   UNL     1       1.182  -2.844  -1.955  0.00  0.00    -0.187 NA
ATOM     15  H   UNL     1       0.228  -3.235  -2.338  0.00  0.00    +0.148 HD
BRANCH  14  16
ATOM     16  C   UNL     1       2.246  -2.465  -2.888  0.00  0.00    +0.070 C 
ATOM     17  C   UNL     1       2.395  -3.548  -3.959  0.00  0.00    +0.025 C 
ATOM     18  C   UNL     1       1.890  -1.135  -3.554  0.00  0.00    +0.025 C 
ENDBRANCH  14  16
ENDBRANCH  11  14
ENDBRANCH   8  11
ENDBRANCH   2   5
BRANCH   1  19
ATOM     19  C   UNL     1       2.322   5.699   0.097  0.00  0.00    +0.089 C 
BRANCH  19  20
ATOM     20  C   UNL     1       3.755   6.235   0.125  0.00  0.00    -0.051 C 
BRANCH  20  21
ATOM     21  N   UNL     1       3.731   7.683   0.374  0.00  0.00    +0.385 N 
ATOM     22  C   UNL     1       3.322   7.974   1.757  0.00  0.00    -0.073 C 
ATOM     23  C   UNL     1       3.663   9.432   2.067  0.00  0.00    +0.017 C 
ATOM     24  C   UNL     1       3.124  10.328   0.983  0.00  0.00    -0.048 A 
ATOM     25  C   UNL     1       3.014  11.686   1.241  0.00  0.00    +0.004 A 
ATOM     26  C   UNL     1       2.533  12.544   0.272  0.00  0.00    +0.000 A 
ATOM     27  C   UNL     1       2.158  12.046  -0.962  0.00  0.00    +0.000 A 
ATOM     28  C   UNL     1       2.265  10.694  -1.219  0.00  0.00    +0.002 A 
ATOM     29  C   UNL     1       2.747   9.831  -0.246  0.00  0.00    -0.061 A 
ATOM     30  C   UNL     1       2.841   8.364  -0.573  0.00  0.00    -0.042 C 
ATOM     31  H   UNL     1       4.751   8.064   0.222  0.00  0.00    -0.081 HD
ENDBRANCH  20  21
BRANCH  20  33
ATOM     32  C   UNL     1       5.898   6.383  -1.150  0.00  0.00    +0.002 C 
ATOM     33  C   UNL     1       4.429   5.960  -1.220  0.00  0.00    -0.017 C 
ENDBRANCH  20  33
ENDBRANCH  19  20
ENDBRANCH   1  19
TORSDOF 8
