REMARK  Name = ZINC06501158
REMARK  15 active torsions:
REMARK  status: ('A' for Active; 'I' for Inactive)
REMARK    1  A    between atoms: C_1  and  C_2
REMARK    2  A    between atoms: C_2  and  C_3
REMARK    3  A    between atoms: C_3  and  C_4
REMARK    4  A    between atoms: C_4  and  C_6
REMARK    5  A    between atoms: C_4  and  N_14
REMARK    6  A    between atoms: N_8  and  C_9
REMARK    7  A    between atoms: C_9  and  C_10
REMARK    8  A    between atoms: C_10  and  C_11
REMARK    9  A    between atoms: C_11  and  C_12
REMARK   10  A    between atoms: C_11  and  C_13
REMARK   11  A    between atoms: N_14  and  C_15
REMARK   12  A    between atoms: C_15  and  C_16
REMARK   13  A    between atoms: C_21  and  C_23
REMARK   14  A    between atoms: C_24  and  N_31
REMARK   15  A    between atoms: C_25  and  C_28
REMARK                            x       y       z     vdW  Elec       q    Type
REMARK                         _______ _______ _______ _____ _____    ______ ____
ROOT
ATOM      1  N   UNL     1      -3.980   1.781  -0.138  0.00  0.00    -0.278 N 
ATOM      2  C   UNL     1      -5.004   2.252   0.601  0.00  0.00    +0.258 C 
ATOM      3  O   UNL     1      -5.324   1.684   1.629  0.00  0.00    -0.269 OA
ENDROOT
BRANCH   2   4
ATOM      4  C   UNL     1      -5.731   3.446   0.167  0.00  0.00    +0.115 A 
ATOM      5  C   UNL     1      -6.899   4.009   0.686  0.00  0.00    +0.076 A 
ATOM      6  C   UNL     1      -7.290   5.158  -0.001  0.00  0.00    +0.155 A 
ATOM      7  N   UNL     1      -6.566   5.579  -1.014  0.00  0.00    -0.203 NA
ATOM      8  S   UNL     1      -5.360   4.574  -1.160  0.00  0.00    +0.019 S 
BRANCH   6   9
ATOM      9  C   UNL     1      -8.502   5.892   0.404  0.00  0.00    +0.262 C 
ATOM     10  O   UNL     1      -9.168   5.496   1.342  0.00  0.00    -0.269 OA
ATOM     11  N   UNL     1      -8.874   7.001  -0.266  0.00  0.00    -0.324 N 
ATOM     12  H   UNL     1      -8.343   7.316  -1.014  0.00  0.00    +0.145 HD
ATOM     13  H   UNL     1      -9.672   7.484   0.001  0.00  0.00    +0.145 HD
ENDBRANCH   6   9
BRANCH   5  14
ATOM     14  N   UNL     1      -7.593   3.483   1.767  0.00  0.00    -0.355 N 
ATOM     15  H   UNL     1      -7.272   2.679   2.206  0.00  0.00    +0.142 HD
ATOM     16  H   UNL     1      -8.400   3.919   2.084  0.00  0.00    +0.142 HD
ENDBRANCH   5  14
ENDBRANCH   2   4
BRANCH   1  17
ATOM     17  C   UNL     1      -3.295   0.549   0.260  0.00  0.00    +0.163 C 
BRANCH  17  18
ATOM     18  C   UNL     1      -1.838   0.843   0.511  0.00  0.00    +0.234 C 
ATOM     19  O   UNL     1      -1.414   1.970   0.370  0.00  0.00    -0.274 OA
ATOM     20  N   UNL     1      -1.006  -0.147   0.891  0.00  0.00    -0.314 N 
ATOM     21  H   UNL     1      -1.346  -1.049   1.004  0.00  0.00    +0.149 HD
BRANCH  20  22
ATOM     22  C   UNL     1       0.411   0.137   1.129  0.00  0.00    +0.104 C 
BRANCH  22  23
ATOM     23  C   UNL     1       1.128  -1.151   1.540  0.00  0.00    +0.022 C 
BRANCH  23  24
ATOM     24  C   UNL     1       2.608  -0.854   1.789  0.00  0.00    -0.016 C 
ATOM     25  C   UNL     1       2.745   0.086   2.988  0.00  0.00    +0.007 C 
ATOM     26  C   UNL     1       3.349  -2.160   2.078  0.00  0.00    +0.007 C 
ENDBRANCH  23  24
ENDBRANCH  22  23
ENDBRANCH  20  22
ENDBRANCH  17  18
BRANCH  17  27
ATOM     27  C   UNL     1      -3.421  -0.489  -0.857  0.00  0.00    +0.032 C 
BRANCH  27  29
ATOM     28  C   UNL     1      -5.016  -1.918  -2.143  0.00  0.00    +0.004 C 
ATOM     29  C   UNL     1      -4.890  -0.880  -1.026  0.00  0.00    -0.001 C 
ENDBRANCH  27  29
ENDBRANCH  17  27
ENDBRANCH   1  17
BRANCH   1  30
ATOM     30  C   UNL     1      -3.552   2.501  -1.340  0.00  0.00    +0.183 C 
BRANCH  30  31
ATOM     31  C   UNL     1      -4.306   1.976  -2.535  0.00  0.00    +0.122 A 
ATOM     32  C   UNL     1      -5.544   2.346  -2.909  0.00  0.00    +0.046 A 
ATOM     33  C   UNL     1      -5.857   1.609  -4.074  0.00  0.00    +0.041 A 
ATOM     34  C   UNL     1      -4.792   0.833  -4.343  0.00  0.00    +0.195 A 
ATOM     35  O   UNL     1      -3.853   1.063  -3.410  0.00  0.00    -0.466 OA
ENDBRANCH  30  31
ENDBRANCH   1  30
TORSDOF 12
