REMARK  Name = ZINC02911854
REMARK  4 active torsions:
REMARK  status: ('A' for Active; 'I' for Inactive)
REMARK    1  A    between atoms: C_1  and  C_2
REMARK    2  A    between atoms: C_6  and  C_22
REMARK    3  A    between atoms: C_10  and  C_11
REMARK    4  A    between atoms: N_13  and  C_14
REMARK                            x       y       z     vdW  Elec       q    Type
REMARK                         _______ _______ _______ _____ _____    ______ ____
ROOT
ATOM      1  C   UNL     1       0.479   1.670  -0.123  0.00  0.00    +0.046 C 
ATOM      2  C   UNL     1       0.455   0.166  -0.023  0.00  0.00    -0.019 A 
ATOM      3  C   UNL     1       0.145  -0.607  -1.149  0.00  0.00    +0.051 A 
ATOM      4  C   UNL     1      -0.178  -0.185  -2.474  0.00  0.00    +0.133 A 
ATOM      5  N   UNL     1      -0.441  -1.097  -3.395  0.00  0.00    -0.217 NA
ATOM      6  C   UNL     1      -0.416  -2.392  -3.133  0.00  0.00    +0.129 A 
ATOM      7  N   UNL     1      -0.126  -2.846  -1.929  0.00  0.00    -0.225 NA
ATOM      8  C   UNL     1       0.151  -2.010  -0.950  0.00  0.00    +0.114 A 
ATOM      9  S   UNL     1       0.581  -2.176   0.764  0.00  0.00    -0.064 S 
ATOM     10  C   UNL     1       0.741  -0.444   1.160  0.00  0.00    +0.080 A 
ATOM     11  C   UNL     1      -0.728  -3.372  -4.235  0.00  0.00    +0.088 C 
ATOM     12  N   UNL     1      -0.215   1.158  -2.789  0.00  0.00    -0.312 N 
ATOM     13  C   UNL     1       1.016   1.877  -3.146  0.00  0.00    +0.125 C 
ATOM     14  C   UNL     1       0.817   2.539  -4.515  0.00  0.00    +0.125 C 
ATOM     15  N   UNL     1      -0.455   3.275  -4.501  0.00  0.00    -0.314 N 
ATOM     16  C   UNL     1      -1.686   2.556  -4.144  0.00  0.00    +0.125 C 
ATOM     17  C   UNL     1      -1.488   1.893  -2.780  0.00  0.00    +0.125 C 
ATOM     18  C   UNL     1      -0.492   4.628  -4.819  0.00  0.00    +0.099 A 
ATOM     19  C   UNL     1       0.656   5.259  -5.287  0.00  0.00    +0.042 A 
ATOM     20  C   UNL     1       0.604   6.605  -5.600  0.00  0.00    +0.005 A 
ATOM     21  C   UNL     1      -0.599   7.278  -5.433  0.00  0.00    +0.018 A 
ATOM     22  C   UNL     1      -1.699   6.590  -4.963  0.00  0.00    +0.084 A 
ATOM     23  N   UNL     1      -1.622   5.304  -4.678  0.00  0.00    -0.350 N 
ATOM     24  H   UNL     1      -2.412   4.843  -4.353  0.00  0.00    +0.166 HD
ENDROOT
BRANCH  10  25
ATOM     25  C   UNL     1       1.093   0.172   2.445  0.00  0.00    +0.255 C 
ATOM     26  O   UNL     1       1.157   1.383   2.542  0.00  0.00    -0.269 OA
ATOM     27  N   UNL     1       1.345  -0.605   3.518  0.00  0.00    -0.280 N 
ATOM     28  H   UNL     1       1.361  -1.570   3.425  0.00  0.00    +0.155 HD
BRANCH  27  29
ATOM     29  C   UNL     1       1.585  -0.018   4.766  0.00  0.00    +0.052 A 
ATOM     30  C   UNL     1       2.244   1.202   4.846  0.00  0.00    +0.027 A 
ATOM     31  C   UNL     1       2.480   1.779   6.078  0.00  0.00    +0.040 A 
ATOM     32  C   UNL     1       2.059   1.143   7.234  0.00  0.00    +0.125 A 
ATOM     33  C   UNL     1       1.402  -0.072   7.158  0.00  0.00    +0.060 A 
ATOM     34  C   UNL     1       1.159  -0.651   5.926  0.00  0.00    +0.065 A 
ATOM     35 CL   UNL     1       0.328  -2.173   5.830  0.00  0.00    -0.082 Cl
ATOM     36  F   UNL     1       2.292   1.710   8.438  0.00  0.00    -0.205 F 
ENDBRANCH  27  29
ENDBRANCH  10  25
TORSDOF 2
