REMARK  Name = ZINC08910263
REMARK  4 active torsions:
REMARK  status: ('A' for Active; 'I' for Inactive)
REMARK    1  A    between atoms: C_3  and  N_8
REMARK    2  A    between atoms: C_9  and  N_18
REMARK    3  A    between atoms: C_19  and  C_21
REMARK    4  A    between atoms: N_26  and  C_28
REMARK                            x       y       z     vdW  Elec       q    Type
REMARK                         _______ _______ _______ _____ _____    ______ ____
ROOT
ATOM      1  N   UNL     1       7.526   8.542  -1.317  0.00  0.00    -0.218 N 
ATOM      2  C   UNL     1       6.214   8.217  -1.201  0.00  0.00    +0.134 A 
ATOM      3  C   UNL     1       5.479   9.321  -1.567  0.00  0.00    +0.038 A 
ATOM      4  C   UNL     1       6.367  10.330  -1.901  0.00  0.00    +0.091 A 
ATOM      5  N   UNL     1       7.599   9.865  -1.755  0.00  0.00    -0.168 NA
ATOM      6  C   UNL     1       5.760  11.662  -2.337  0.00  0.00    +0.223 C 
ATOM      7  S   UNL     1       4.021  11.491  -1.761  0.00  0.00    -0.021 S 
ATOM      8  O   UNL     1       3.901  12.036  -0.454  0.00  0.00    -0.174 OA
ATOM      9  O   UNL     1       3.139  11.922  -2.789  0.00  0.00    -0.174 OA
ATOM     10  C   UNL     1       3.991   9.654  -1.662  0.00  0.00    +0.206 C 
ENDROOT
BRANCH   1  13
ATOM     11  C   UNL     1      10.785   6.862  -1.620  0.00  0.00    +0.003 A 
ATOM     12  C   UNL     1       9.715   7.692  -1.890  0.00  0.00    +0.028 A 
ATOM     13  C   UNL     1       8.613   7.700  -1.045  0.00  0.00    +0.069 A 
ATOM     14  C   UNL     1       8.592   6.876   0.072  0.00  0.00    +0.047 A 
ATOM     15  C   UNL     1       9.664   6.043   0.335  0.00  0.00    +0.043 A 
ATOM     16  C   UNL     1      10.761   6.039  -0.510  0.00  0.00    +0.020 A 
ATOM     17 CL   UNL     1       9.637   5.008   1.728  0.00  0.00    -0.083 Cl
ENDBRANCH   1  13
BRANCH   2  18
ATOM     18  N   UNL     1       5.704   6.986  -0.791  0.00  0.00    -0.270 N 
ATOM     19  C   UNL     1       4.489   6.586  -1.215  0.00  0.00    +0.223 C 
ATOM     20  O   UNL     1       3.878   7.254  -2.022  0.00  0.00    -0.275 OA
ATOM     21  H   UNL     1       6.223   6.418  -0.201  0.00  0.00    +0.156 HD
BRANCH  19  22
ATOM     22  C   UNL     1       3.889   5.308  -0.686  0.00  0.00    +0.102 C 
ATOM     23  C   UNL     1       4.824   4.106  -0.954  0.00  0.00    +0.110 C 
ATOM     24  C   UNL     1       3.881   2.968  -1.279  0.00  0.00    +0.221 C 
ATOM     25  O   UNL     1       4.183   1.794  -1.277  0.00  0.00    -0.275 OA
ATOM     26  N   UNL     1       2.660   3.449  -1.570  0.00  0.00    -0.271 N 
ATOM     27  C   UNL     1       2.632   4.914  -1.496  0.00  0.00    +0.127 C 
BRANCH  26  28
ATOM     28  C   UNL     1       1.558   2.654  -1.906  0.00  0.00    +0.036 A 
ATOM     29  C   UNL     1       1.713   1.283  -2.070  0.00  0.00    +0.025 A 
ATOM     30  C   UNL     1       0.624   0.501  -2.401  0.00  0.00    +0.022 A 
ATOM     31  C   UNL     1      -0.620   1.082  -2.574  0.00  0.00    +0.041 A 
ATOM     32  C   UNL     1      -0.778   2.447  -2.405  0.00  0.00    +0.022 A 
ATOM     33  C   UNL     1       0.308   3.233  -2.075  0.00  0.00    +0.025 A 
ATOM     34 CL   UNL     1      -1.985   0.097  -2.997  0.00  0.00    -0.084 Cl
ENDBRANCH  26  28
ENDBRANCH  19  22
ENDBRANCH   2  18
TORSDOF 4
