REMARK  Name = ZINC40679464
REMARK  9 active torsions:
REMARK  status: ('A' for Active; 'I' for Inactive)
REMARK    1  A    between atoms: C_1  and  C_2
REMARK    2  A    between atoms: C_2  and  N_3
REMARK    3  A    between atoms: N_3  and  C_4
REMARK    4  A    between atoms: C_11  and  N_31
REMARK    5  A    between atoms: C_12  and  N_16
REMARK    6  A    between atoms: N_16  and  C_17
REMARK    7  A    between atoms: N_16  and  C_24
REMARK    8  A    between atoms: C_17  and  C_18
REMARK    9  A    between atoms: C_24  and  C_25
REMARK                            x       y       z     vdW  Elec       q    Type
REMARK                         _______ _______ _______ _____ _____    ______ ____
ROOT
ATOM      1  N   UNL     1       0.811  -0.642  -1.312  0.00  0.00    -0.285 N 
ATOM      2  C   UNL     1       0.029  -0.824  -2.447  0.00  0.00    +0.129 A 
ATOM      3  C   UNL     1       0.564  -1.426  -3.587  0.00  0.00    +0.104 A 
ATOM      4  C   UNL     1      -0.266  -1.584  -4.699  0.00  0.00    +0.148 A 
ATOM      5  N   UNL     1      -1.525  -1.159  -4.630  0.00  0.00    -0.221 NA
ATOM      6  C   UNL     1      -1.990  -0.596  -3.533  0.00  0.00    +0.200 A 
ATOM      7  N   UNL     1      -1.243  -0.433  -2.460  0.00  0.00    -0.332 N 
ATOM      8  H   UNL     1      -1.624  -0.018  -1.671  0.00  0.00    +0.168 HD
ENDROOT
BRANCH   1   9
ATOM      9  C   UNL     1       1.461   0.577  -1.099  0.00  0.00    +0.035 A 
ATOM     10  C   UNL     1       1.413   1.569  -2.069  0.00  0.00    +0.023 A 
ATOM     11  C   UNL     1       2.056   2.773  -1.856  0.00  0.00    +0.002 A 
ATOM     12  C   UNL     1       2.746   2.990  -0.677  0.00  0.00    +0.000 A 
ATOM     13  C   UNL     1       2.796   2.004   0.291  0.00  0.00    +0.002 A 
ATOM     14  C   UNL     1       2.151   0.800   0.086  0.00  0.00    +0.023 A 
ENDBRANCH   1   9
BRANCH   3  15
ATOM     15  N   UNL     1       1.899  -1.859  -3.616  0.00  0.00    -0.353 N 
ATOM     16  H   UNL     1       2.443  -1.807  -2.815  0.00  0.00    +0.143 HD
ATOM     17  H   UNL     1       2.277  -2.212  -4.437  0.00  0.00    +0.143 HD
ENDBRANCH   3  15
BRANCH   1  19
ATOM     18  C   UNL     1      -0.148  -1.618   0.716  0.00  0.00    +0.025 C 
ATOM     19  C   UNL     1       0.955  -1.729  -0.339  0.00  0.00    +0.109 C 
ENDBRANCH   1  19
BRANCH   4  20
ATOM     20  N   UNL     1       0.216  -2.177  -5.861  0.00  0.00    -0.305 N 
BRANCH  20  21
ATOM     21  C   UNL     1       0.238  -3.636  -5.984  0.00  0.00    +0.142 C 
BRANCH  21  22
ATOM     22  C   UNL     1      -1.062  -4.109  -6.583  0.00  0.00    -0.030 A 
ATOM     23  C   UNL     1      -2.128  -4.420  -5.761  0.00  0.00    +0.005 A 
ATOM     24  C   UNL     1      -3.321  -4.854  -6.310  0.00  0.00    +0.000 A 
ATOM     25  C   UNL     1      -3.446  -4.976  -7.681  0.00  0.00    +0.000 A 
ATOM     26  C   UNL     1      -2.379  -4.664  -8.503  0.00  0.00    +0.000 A 
ATOM     27  C   UNL     1      -1.188  -4.226  -7.954  0.00  0.00    +0.005 A 
ENDBRANCH  21  22
ENDBRANCH  20  21
BRANCH  20  28
ATOM     28  C   UNL     1       0.703  -1.341  -6.961  0.00  0.00    +0.142 C 
BRANCH  28  29
ATOM     29  C   UNL     1       2.197  -1.184  -6.850  0.00  0.00    -0.030 A 
ATOM     30  C   UNL     1       2.730  -0.193  -6.046  0.00  0.00    +0.005 A 
ATOM     31  C   UNL     1       4.101  -0.049  -5.944  0.00  0.00    +0.000 A 
ATOM     32  C   UNL     1       4.939  -0.895  -6.645  0.00  0.00    +0.000 A 
ATOM     33  C   UNL     1       4.407  -1.886  -7.448  0.00  0.00    +0.000 A 
ATOM     34  C   UNL     1       3.035  -2.034  -7.547  0.00  0.00    +0.005 A 
ENDBRANCH  28  29
ENDBRANCH  20  28
ENDBRANCH   4  20
TORSDOF 8
