REMARK  Name = ZINC09807713
REMARK  8 active torsions:
REMARK  status: ('A' for Active; 'I' for Inactive)
REMARK    1  A    between atoms: C_1  and  C_2
REMARK    2  A    between atoms: C_5  and  C_22
REMARK    3  A    between atoms: C_7  and  S_8
REMARK    4  A    between atoms: S_8  and  N_11
REMARK    5  A    between atoms: N_11  and  C_12
REMARK    6  A    between atoms: C_15  and  S_18
REMARK    7  A    between atoms: S_18  and  N_21
REMARK    8  A    between atoms: C_25  and  C_27
REMARK                            x       y       z     vdW  Elec       q    Type
REMARK                         _______ _______ _______ _____ _____    ______ ____
ROOT
ATOM      1  S   UNL     1      -5.297  -0.686  -0.019  0.00  0.00    +0.073 S 
ATOM      2  O   UNL     1      -5.813  -1.213   1.195  0.00  0.00    -0.150 OA
ATOM      3  O   UNL     1      -5.328   0.702  -0.321  0.00  0.00    -0.150 OA
ENDROOT
BRANCH   1  10
ATOM      4  C   UNL     1      -4.338  -3.515   0.429  0.00  0.00    +0.046 C 
ATOM      5  C   UNL     1      -3.265  -2.504   0.114  0.00  0.00    -0.024 A 
ATOM      6  C   UNL     1      -1.942  -2.902   0.047  0.00  0.00    +0.006 A 
ATOM      7  C   UNL     1      -0.955  -1.982  -0.241  0.00  0.00    +0.012 A 
ATOM      8  C   UNL     1      -1.295  -0.647  -0.465  0.00  0.00    +0.021 A 
ATOM      9  C   UNL     1      -2.631  -0.251  -0.390  0.00  0.00    +0.040 A 
ATOM     10  C   UNL     1      -3.608  -1.183  -0.107  0.00  0.00    +0.112 A 
BRANCH   8  11
ATOM     11  C   UNL     1      -0.243   0.344  -0.774  0.00  0.00    +0.155 A 
ATOM     12  C   UNL     1       1.090   0.106  -0.874  0.00  0.00    +0.161 A 
ATOM     13  N   UNL     1       1.688   1.270  -1.168  0.00  0.00    -0.221 NA
ATOM     14  C   UNL     1       0.780   2.202  -1.250  0.00  0.00    +0.193 A 
ATOM     15  O   UNL     1      -0.423   1.662  -1.013  0.00  0.00    -0.440 OA
ATOM     16  C   UNL     1       1.042   3.653  -1.563  0.00  0.00    +0.109 C 
ENDBRANCH   8  11
ENDBRANCH   1  10
BRANCH   1  17
ATOM     17  N   UNL     1      -6.098  -1.456  -1.247  0.00  0.00    -0.216 N 
ATOM     18  H   UNL     1      -6.819  -2.072  -1.045  0.00  0.00    +0.174 HD
BRANCH  17  19
ATOM     19  C   UNL     1      -5.735  -1.218  -2.575  0.00  0.00    +0.048 A 
ATOM     20  C   UNL     1      -5.541   0.083  -3.021  0.00  0.00    +0.026 A 
ATOM     21  C   UNL     1      -5.177   0.315  -4.333  0.00  0.00    +0.030 A 
ATOM     22  C   UNL     1      -5.017  -0.747  -5.205  0.00  0.00    +0.105 A 
ATOM     23  C   UNL     1      -5.214  -2.043  -4.766  0.00  0.00    +0.030 A 
ATOM     24  C   UNL     1      -5.573  -2.282  -3.454  0.00  0.00    +0.026 A 
BRANCH  22  25
ATOM     25  S   UNL     1      -4.559  -0.447  -6.880  0.00  0.00    +0.056 S 
ATOM     26  O   UNL     1      -3.902   0.814  -6.902  0.00  0.00    -0.153 OA
ATOM     27  O   UNL     1      -3.941  -1.636  -7.351  0.00  0.00    -0.153 OA
BRANCH  25  28
ATOM     28  N   UNL     1      -5.959  -0.266  -7.746  0.00  0.00    -0.204 NA
ATOM     29  H   UNL     1      -6.817  -0.335  -7.299  0.00  0.00    +0.144 HD
ATOM     30  H   UNL     1      -5.921  -0.092  -8.699  0.00  0.00    +0.144 HD
ENDBRANCH  25  28
ENDBRANCH  22  25
ENDBRANCH  17  19
ENDBRANCH   1  17
TORSDOF 6
