REMARK  Name = ZINC65438977
REMARK  5 active torsions:
REMARK  status: ('A' for Active; 'I' for Inactive)
REMARK    1  A    between atoms: C_1  and  C_2
REMARK    2  A    between atoms: C_2  and  C_3
REMARK    3  A    between atoms: C_2  and  N_9
REMARK    4  A    between atoms: C_12  and  N_14
REMARK    5  A    between atoms: C_21  and  C_23
REMARK                            x       y       z     vdW  Elec       q    Type
REMARK                         _______ _______ _______ _____ _____    ______ ____
ROOT
ATOM      1  N   UNL     1       4.152  -0.949  -2.143  0.00  0.00    -0.298 N 
ATOM      2  C   UNL     1       5.272  -1.687  -2.019  0.00  0.00    +0.306 C 
ATOM      3  O   UNL     1       5.336  -2.559  -1.174  0.00  0.00    -0.252 OA
ATOM      4  N   UNL     1       6.323  -1.460  -2.832  0.00  0.00    -0.247 N 
ATOM      5  C   UNL     1       7.479  -2.222  -2.704  0.00  0.00    +0.189 A 
ATOM      6  N   UNL     1       7.739  -3.205  -1.865  0.00  0.00    -0.125 NA
ATOM      7  N   UNL     1       8.847  -3.811  -1.868  0.00  0.00    -0.136 NA
ATOM      8  C   UNL     1       9.772  -3.451  -2.736  0.00  0.00    +0.206 A 
ATOM      9  S   UNL     1       8.912  -2.136  -3.588  0.00  0.00    -0.027 S 
ATOM     10  H   UNL     1       4.102  -0.253  -2.817  0.00  0.00    +0.150 HD
ATOM     11  H   UNL     1       6.272  -0.765  -3.507  0.00  0.00    +0.158 HD
ENDROOT
BRANCH   1  15
ATOM     12  N   UNL     1       0.690  -0.478  -1.207  0.00  0.00    +0.385 N 
ATOM     13  C   UNL     1       0.731  -1.956  -1.209  0.00  0.00    -0.076 C 
ATOM     14  C   UNL     1       2.101  -2.313  -1.836  0.00  0.00    +0.002 C 
ATOM     15  C   UNL     1       3.010  -1.196  -1.259  0.00  0.00    +0.056 C 
ATOM     16  C   UNL     1       2.074   0.030  -1.221  0.00  0.00    -0.056 C 
ATOM     17  H   UNL     1       0.200  -0.152  -2.026  0.00  0.00    -0.081 HD
BRANCH  12  19
ATOM     18  C   UNL     1      -0.019   1.526   0.010  0.00  0.00    -0.008 C 
ATOM     19  C   UNL     1       0.002  -0.004   0.002  0.00  0.00    -0.041 C 
BRANCH  19  20
ATOM     20  C   UNL     1      -1.412  -0.526   0.013  0.00  0.00    -0.061 A 
ATOM     21  C   UNL     1      -2.141  -0.569  -1.161  0.00  0.00    +0.002 A 
ATOM     22  C   UNL     1      -3.438  -1.047  -1.151  0.00  0.00    +0.000 A 
ATOM     23  C   UNL     1      -4.005  -1.483   0.032  0.00  0.00    +0.000 A 
ATOM     24  C   UNL     1      -3.275  -1.441   1.205  0.00  0.00    +0.000 A 
ATOM     25  C   UNL     1      -1.977  -0.966   1.195  0.00  0.00    +0.002 A 
ENDBRANCH  19  20
ENDBRANCH  12  19
ENDBRANCH   1  15
BRANCH   8  26
ATOM     26  C   UNL     1      11.160  -3.998  -2.951  0.00  0.00    +0.443 C 
ATOM     27  F   UNL     1      11.358  -5.108  -2.124  0.00  0.00    -0.164 F 
ATOM     28  F   UNL     1      11.308  -4.380  -4.289  0.00  0.00    -0.164 F 
ATOM     29  F   UNL     1      12.102  -3.011  -2.641  0.00  0.00    -0.164 F 
ENDBRANCH   8  26
TORSDOF 4
