REMARK  Name = ZINC32967231
REMARK  9 active torsions:
REMARK  status: ('A' for Active; 'I' for Inactive)
REMARK    1  A    between atoms: C_4  and  S_24
REMARK    2  A    between atoms: C_5  and  C_7
REMARK    3  A    between atoms: N_9  and  C_10
REMARK    4  A    between atoms: C_10  and  C_11
REMARK    5  A    between atoms: C_11  and  C_13
REMARK    6  A    between atoms: C_11  and  N_18
REMARK    7  A    between atoms: S_24  and  C_25
REMARK    8  A    between atoms: C_28  and  C_34
REMARK    9  A    between atoms: C_30  and  N_31
REMARK                            x       y       z     vdW  Elec       q    Type
REMARK                         _______ _______ _______ _____ _____    ______ ____
ROOT
ATOM      1  C   UNL     1      -3.055  -1.206  -1.397  0.00  0.00    +0.001 A 
ATOM      2  C   UNL     1      -2.836  -2.532  -1.735  0.00  0.00    +0.001 A 
ATOM      3  C   UNL     1      -1.552  -3.025  -1.833  0.00  0.00    +0.016 A 
ATOM      4  C   UNL     1      -0.466  -2.192  -1.593  0.00  0.00    +0.025 A 
ATOM      5  C   UNL     1      -0.684  -0.848  -1.250  0.00  0.00    +0.050 A 
ATOM      6  C   UNL     1      -1.992  -0.365  -1.149  0.00  0.00    +0.014 A 
ENDROOT
BRANCH   5   7
ATOM      7  C   UNL     1       0.458   0.047  -0.992  0.00  0.00    +0.245 C 
ATOM      8  O   UNL     1       1.594  -0.378  -1.076  0.00  0.00    -0.270 OA
ATOM      9  N   UNL     1       0.243   1.337  -0.663  0.00  0.00    -0.312 N 
ATOM     10  H   UNL     1      -0.784   1.721  -0.587  0.00  0.00    +0.149 HD
BRANCH   9  11
ATOM     11  C   UNL     1       1.379   2.226  -0.407  0.00  0.00    +0.097 C 
BRANCH  11  12
ATOM     12  C   UNL     1       0.863   3.623  -0.057  0.00  0.00    +0.016 C 
BRANCH  12  13
ATOM     13  N   UNL     1      -0.024   4.100  -1.126  0.00  0.00    +0.387 N 
ATOM     14  C   UNL     1       0.658   4.077  -2.426  0.00  0.00    -0.078 C 
ATOM     15  C   UNL     1      -0.335   4.439  -3.532  0.00  0.00    -0.019 C 
ATOM     16  C   UNL     1      -0.909   5.832  -3.260  0.00  0.00    -0.004 C 
ATOM     17  C   UNL     1      -1.572   5.842  -1.880  0.00  0.00    -0.019 C 
ATOM     18  C   UNL     1      -0.542   5.440  -0.822  0.00  0.00    -0.078 C 
ATOM     19  H   UNL     1      -0.882   3.414  -1.186  0.00  0.00    -0.081 HD
ENDBRANCH  12  13
BRANCH  12  20
ATOM     20  C   UNL     1       2.029   4.568   0.086  0.00  0.00    +0.093 A 
ATOM     21  C   UNL     1       2.490   5.079   1.242  0.00  0.00    +0.043 A 
ATOM     22  C   UNL     1       3.587   5.909   0.914  0.00  0.00    +0.041 A 
ATOM     23  C   UNL     1       3.730   5.856  -0.422  0.00  0.00    +0.195 A 
ATOM     24  O   UNL     1       2.787   5.037  -0.918  0.00  0.00    -0.469 OA
ENDBRANCH  12  20
ENDBRANCH  11  12
ENDBRANCH   9  11
ENDBRANCH   5   7
BRANCH   4  25
ATOM     25  S   UNL     1       1.176  -2.818  -1.717  0.00  0.00    -0.086 S 
BRANCH  25  26
ATOM     26  C   UNL     1       0.954  -4.544  -1.995  0.00  0.00    +0.043 A 
ATOM     27  C   UNL     1       1.108  -5.070  -3.272  0.00  0.00    +0.018 A 
ATOM     28  C   UNL     1       0.934  -6.423  -3.485  0.00  0.00    +0.013 A 
ATOM     29  C   UNL     1       0.606  -7.255  -2.430  0.00  0.00    +0.057 A 
ATOM     30  C   UNL     1       0.452  -6.735  -1.158  0.00  0.00    +0.046 A 
ATOM     31  C   UNL     1       0.630  -5.383  -0.936  0.00  0.00    +0.140 A 
BRANCH  29  32
ATOM     32  C   UNL     1       0.417  -8.731  -2.667  0.00  0.00    +0.417 C 
ATOM     33  F   UNL     1       0.623  -9.016  -4.021  0.00  0.00    -0.166 F 
ATOM     34  F   UNL     1       1.335  -9.449  -1.894  0.00  0.00    -0.166 F 
ATOM     35  F   UNL     1      -0.884  -9.098  -2.306  0.00  0.00    -0.166 F 
ENDBRANCH  29  32
BRANCH  31  36
ATOM     36  N   UNL     1       0.470  -4.829   0.427  0.00  0.00    +0.058 N 
ATOM     37  O   UNL     1       0.185  -5.565   1.355  0.00  0.00    -0.126 OA
ATOM     38  O   UNL     1       0.623  -3.636   0.621  0.00  0.00    -0.126 OA
ENDBRANCH  31  36
ENDBRANCH  25  26
ENDBRANCH   4  25
TORSDOF 9
