REMARK  Name = ZINC39980087
REMARK  5 active torsions:
REMARK  status: ('A' for Active; 'I' for Inactive)
REMARK    1  A    between atoms: C_1  and  C_2
REMARK    2  A    between atoms: C_5  and  N_8
REMARK    3  A    between atoms: N_8  and  C_9
REMARK    4  A    between atoms: N_12  and  S_13
REMARK    5  A    between atoms: S_13  and  C_16
REMARK                            x       y       z     vdW  Elec       q    Type
REMARK                         _______ _______ _______ _____ _____    ______ ____
ROOT
ATOM      1  C   UNL     1       0.185  -4.905   1.238  0.00  0.00    +0.237 C 
ATOM      2  C   UNL     1      -0.808  -6.045   1.207  0.00  0.00    +0.192 C 
ATOM      3  N   UNL     1      -2.077  -5.811   1.046  0.00  0.00    -0.110 NA
ATOM      4  N   UNL     1      -0.360  -7.303   1.348  0.00  0.00    -0.226 NA
ATOM      5  C   UNL     1       0.919  -7.566   1.512  0.00  0.00    +0.089 A 
ATOM      6  C   UNL     1       1.357  -8.907   1.657  0.00  0.00    +0.030 A 
ATOM      7  C   UNL     1       2.669  -9.183   1.827  0.00  0.00    +0.002 A 
ATOM      8  C   UNL     1       3.656  -8.184   1.868  0.00  0.00    +0.002 A 
ATOM      9  C   UNL     1       3.348  -6.875   1.740  0.00  0.00    +0.027 A 
ATOM     10  C   UNL     1       1.941  -6.491   1.552  0.00  0.00    +0.063 A 
ATOM     11  N   UNL     1       1.606  -5.238   1.423  0.00  0.00    -0.359 N 
ATOM     12  H   UNL     1       2.279  -4.540   1.449  0.00  0.00    +0.162 HD
ENDROOT
BRANCH   3  13
ATOM     13  S   UNL     1      -3.154  -7.069   1.013  0.00  0.00    +0.102 S 
ATOM     14  O   UNL     1      -2.863  -7.822  -0.156  0.00  0.00    -0.146 OA
ATOM     15  O   UNL     1      -3.144  -7.645   2.312  0.00  0.00    -0.146 OA
BRANCH  13  16
ATOM     16  C   UNL     1      -4.757  -6.376   0.781  0.00  0.00    +0.132 A 
ATOM     17  C   UNL     1      -5.468  -6.650  -0.372  0.00  0.00    +0.050 A 
ATOM     18  C   UNL     1      -6.726  -6.106  -0.555  0.00  0.00    +0.043 A 
ATOM     19  C   UNL     1      -7.274  -5.288   0.417  0.00  0.00    +0.021 A 
ATOM     20  C   UNL     1      -6.564  -5.014   1.571  0.00  0.00    +0.023 A 
ATOM     21  C   UNL     1      -5.307  -5.563   1.756  0.00  0.00    +0.068 A 
ATOM     22 CL   UNL     1      -4.418  -5.225   3.208  0.00  0.00    -0.082 Cl
ATOM     23 CL   UNL     1      -7.619  -6.449  -2.004  0.00  0.00    -0.083 Cl
ENDBRANCH  13  16
ENDBRANCH   3  13
BRANCH   1  24
ATOM     24  N   UNL     1       0.058  -4.167  -0.021  0.00  0.00    -0.318 N 
ATOM     25  H   UNL     1       0.092  -4.642  -0.866  0.00  0.00    +0.148 HD
BRANCH  24  30
ATOM     26  C   UNL     1      -0.626   1.462   0.047  0.00  0.00    +0.044 C 
ATOM     27  C   UNL     1      -0.445  -0.034   0.029  0.00  0.00    -0.050 A 
ATOM     28  C   UNL     1      -0.154  -0.708   1.201  0.00  0.00    +0.005 A 
ATOM     29  C   UNL     1       0.013  -2.079   1.188  0.00  0.00    +0.023 A 
ATOM     30  C   UNL     1      -0.111  -2.781  -0.004  0.00  0.00    +0.029 A 
ATOM     31  C   UNL     1      -0.403  -2.101  -1.180  0.00  0.00    +0.023 A 
ATOM     32  C   UNL     1      -0.575  -0.731  -1.159  0.00  0.00    +0.005 A 
ENDBRANCH  24  30
ENDBRANCH   1  24
TORSDOF 4
