REMARK  Name = ZINC12374902
REMARK  4 active torsions:
REMARK  status: ('A' for Active; 'I' for Inactive)
REMARK    1  A    between atoms: C_3  and  C_6
REMARK    2  A    between atoms: C_9  and  C_35
REMARK    3  A    between atoms: C_14  and  C_16
REMARK    4  A    between atoms: N_21  and  C_24
REMARK                            x       y       z     vdW  Elec       q    Type
REMARK                         _______ _______ _______ _____ _____    ______ ____
ROOT
ATOM      1  C   UNL     1       3.585   0.577   0.022  0.00  0.00    +0.140 C 
ATOM      2  C   UNL     1       4.088   0.244   1.431  0.00  0.00    +0.066 C 
ATOM      3  C   UNL     1       5.621   0.272   1.458  0.00  0.00    +0.215 C 
ATOM      4  N   UNL     1       6.129  -0.538   0.347  0.00  0.00    -0.238 N 
ATOM      5  C   UNL     1       5.385  -0.877  -0.747  0.00  0.00    +0.119 A 
ATOM      6  C   UNL     1       6.154  -1.622  -1.565  0.00  0.00    +0.078 A 
ATOM      7  C   UNL     1       7.424  -1.749  -0.957  0.00  0.00    +0.149 A 
ATOM      8  N   UNL     1       7.399  -1.094   0.190  0.00  0.00    -0.164 NA
ATOM      9  N   UNL     1       4.057  -0.467  -0.909  0.00  0.00    -0.319 N 
ATOM     10  H   UNL     1       3.480  -0.848  -1.589  0.00  0.00    +0.148 HD
ENDROOT
BRANCH   7  11
ATOM     11  C   UNL     1       8.579  -2.486  -1.509  0.00  0.00    +0.267 C 
ATOM     12  O   UNL     1       8.450  -3.151  -2.518  0.00  0.00    -0.268 OA
ATOM     13  N   UNL     1       9.777  -2.420  -0.894  0.00  0.00    -0.300 N 
ATOM     14  C   UNL     1       9.935  -1.697   0.378  0.00  0.00    +0.089 C 
ATOM     15  C   UNL     1      11.126  -0.741   0.248  0.00  0.00    -0.059 C 
ATOM     16  N   UNL     1      12.313  -1.494  -0.173  0.00  0.00    +0.385 N 
ATOM     17  C   UNL     1      12.104  -2.049  -1.517  0.00  0.00    -0.059 C 
ATOM     18  C   UNL     1      10.961  -3.075  -1.471  0.00  0.00    +0.089 C 
ATOM     19  H   UNL     1      12.481  -2.247   0.477  0.00  0.00    -0.081 HD
BRANCH  16  20
ATOM     20  C   UNL     1      13.478  -0.599  -0.192  0.00  0.00    -0.065 C 
ATOM     21  C   UNL     1      13.705  -0.028   1.210  0.00  0.00    -0.009 C 
ATOM     22  C   UNL     1      14.917   0.904   1.191  0.00  0.00    -0.012 C 
ATOM     23  C   UNL     1      16.156   0.121   0.752  0.00  0.00    +0.007 C 
ATOM     24  C   UNL     1      15.929  -0.449  -0.650  0.00  0.00    -0.012 C 
ATOM     25  C   UNL     1      14.717  -1.382  -0.631  0.00  0.00    -0.009 C 
ATOM     26  C   UNL     1      15.676   0.697  -1.631  0.00  0.00    +0.007 C 
ATOM     27  C   UNL     1      14.437   1.480  -1.193  0.00  0.00    -0.012 C 
ATOM     28  C   UNL     1      14.664   2.050   0.209  0.00  0.00    +0.007 C 
ATOM     29  C   UNL     1      13.225   0.547  -1.174  0.00  0.00    -0.009 C 
ENDBRANCH  16  20
ENDBRANCH   7  11
BRANCH   1  32
ATOM     30  C   UNL     1      -0.029   1.298   0.041  0.00  0.00    +0.041 A 
ATOM     31  C   UNL     1       1.319   1.724   0.064  0.00  0.00    +0.046 A 
ATOM     32  C   UNL     1       2.078   0.615   0.019  0.00  0.00    +0.125 A 
ATOM     33  O   UNL     1       1.266  -0.454  -0.030  0.00  0.00    -0.466 OA
ATOM     34  C   UNL     1      -0.013  -0.045  -0.017  0.00  0.00    +0.195 A 
ENDBRANCH   1  32
BRANCH   3  35
ATOM     35  C   UNL     1       6.121  -0.303   2.785  0.00  0.00    +0.412 C 
ATOM     36  F   UNL     1       5.677  -1.623   2.918  0.00  0.00    -0.168 F 
ATOM     37  F   UNL     1       7.519  -0.277   2.807  0.00  0.00    -0.168 F 
ATOM     38  F   UNL     1       5.623   0.466   3.842  0.00  0.00    -0.168 F 
ENDBRANCH   3  35
TORSDOF 4
