REMARK  Name = ZINC18191134
REMARK  10 active torsions:
REMARK  status: ('A' for Active; 'I' for Inactive)
REMARK    1  A    between atoms: C_1  and  C_2
REMARK    2  A    between atoms: C_2  and  C_3
REMARK    3  A    between atoms: C_3  and  O_4
REMARK    4  A    between atoms: O_4  and  C_5
REMARK    5  A    between atoms: C_10  and  N_11
REMARK    6  A    between atoms: N_11  and  C_12
REMARK    7  A    between atoms: N_13  and  C_14
REMARK    8  A    between atoms: N_16  and  C_17
REMARK    9  A    between atoms: C_27  and  C_32
REMARK   10  A    between atoms: C_29  and  C_31
REMARK                            x       y       z     vdW  Elec       q    Type
REMARK                         _______ _______ _______ _____ _____    ______ ____
ROOT
ATOM      1  C   UNL     1      -1.477  -6.131   0.053  0.00  0.00    +0.224 C 
ATOM      2  N   UNL     1      -0.322  -6.771   0.132  0.00  0.00    -0.127 NA
ATOM      3  N   UNL     1      -2.651  -6.835   0.067  0.00  0.00    -0.295 N 
ATOM      4  C   UNL     1      -2.636  -8.207   0.280  0.00  0.00    +0.231 A 
ATOM      5  N   UNL     1      -1.477  -8.818   0.472  0.00  0.00    -0.217 NA
ATOM      6  C   UNL     1      -1.426 -10.124   0.678  0.00  0.00    +0.044 A 
ATOM      7  C   UNL     1      -2.606 -10.852   0.690  0.00  0.00    +0.046 A 
ATOM      8  C   UNL     1      -3.801 -10.180   0.485  0.00  0.00    +0.044 A 
ATOM      9  N   UNL     1      -3.781  -8.872   0.290  0.00  0.00    -0.217 NA
ATOM     10  C   UNL     1      -5.108 -10.931   0.489  0.00  0.00    +0.066 C 
ATOM     11  C   UNL     1      -0.103 -10.811   0.895  0.00  0.00    +0.066 C 
ATOM     12  H   UNL     1      -3.494  -6.375  -0.071  0.00  0.00    +0.172 HD
ENDROOT
BRANCH   2  13
ATOM     13  C   UNL     1       0.828  -6.082   0.118  0.00  0.00    +0.330 C 
ATOM     14  O   UNL     1       0.809  -4.867   0.032  0.00  0.00    -0.250 OA
ATOM     15  N   UNL     1       2.005  -6.733   0.199  0.00  0.00    -0.268 N 
ATOM     16  H   UNL     1       2.019  -7.694   0.334  0.00  0.00    +0.156 HD
BRANCH  15  17
ATOM     17  C   UNL     1       3.206  -6.024   0.090  0.00  0.00    +0.035 A 
ATOM     18  C   UNL     1       4.296  -6.597  -0.553  0.00  0.00    +0.025 A 
ATOM     19  C   UNL     1       5.481  -5.894  -0.660  0.00  0.00    +0.022 A 
ATOM     20  C   UNL     1       5.582  -4.621  -0.127  0.00  0.00    +0.041 A 
ATOM     21  C   UNL     1       4.497  -4.048   0.513  0.00  0.00    +0.022 A 
ATOM     22  C   UNL     1       3.309  -4.744   0.618  0.00  0.00    +0.025 A 
ATOM     23 CL   UNL     1       7.072  -3.741  -0.263  0.00  0.00    -0.084 Cl
ENDBRANCH  15  17
ENDBRANCH   2  13
BRANCH   1  24
ATOM     24  N   UNL     1      -1.499  -4.770  -0.044  0.00  0.00    -0.211 NA
BRANCH  24  30
ATOM     25  C   UNL     1      -2.862  -2.770  -0.017  0.00  0.00    +0.146 A 
ATOM     26  C   UNL     1      -3.944  -2.064   0.483  0.00  0.00    +0.048 A 
ATOM     27  C   UNL     1      -4.746  -2.626   1.460  0.00  0.00    +0.004 A 
ATOM     28  C   UNL     1      -4.471  -3.894   1.940  0.00  0.00    +0.002 A 
ATOM     29  C   UNL     1      -3.393  -4.604   1.446  0.00  0.00    +0.031 A 
ATOM     30  C   UNL     1      -2.588  -4.049   0.463  0.00  0.00    +0.109 A 
BRANCH  25  31
ATOM     31  O   UNL     1      -2.073  -2.218  -0.977  0.00  0.00    -0.490 OA
BRANCH  31  32
ATOM     32  C   UNL     1      -2.414  -0.903  -1.420  0.00  0.00    +0.229 C 
BRANCH  32  34
ATOM     33  C   UNL     1      -1.786   0.955  -2.968  0.00  0.00    +0.007 C 
ATOM     34  C   UNL     1      -1.421  -0.453  -2.493  0.00  0.00    +0.038 C 
ENDBRANCH  32  34
ENDBRANCH  31  32
ENDBRANCH  25  31
ENDBRANCH  24  30
ENDBRANCH   1  24
TORSDOF 7
