REMARK  Name = ZINC64688037
REMARK  6 active torsions:
REMARK  status: ('A' for Active; 'I' for Inactive)
REMARK    1  A    between atoms: C_1  and  C_2
REMARK    2  A    between atoms: C_5  and  C_9
REMARK    3  A    between atoms: C_6  and  C_8
REMARK    4  A    between atoms: C_11  and  C_15
REMARK    5  A    between atoms: C_21  and  C_30
REMARK    6  A    between atoms: C_23  and  C_27
REMARK                            x       y       z     vdW  Elec       q    Type
REMARK                         _______ _______ _______ _____ _____    ______ ____
ROOT
ATOM      1  C   UNL     1       1.724  -7.131   0.456  0.00  0.00    +0.182 A 
ATOM      2  N   UNL     1       1.905  -8.124   1.317  0.00  0.00    -0.208 NA
ATOM      3  C   UNL     1       3.179  -8.485   1.324  0.00  0.00    +0.174 A 
ATOM      4  C   UNL     1       3.931  -9.447   2.012  0.00  0.00    +0.084 A 
ATOM      5  C   UNL     1       5.300  -9.582   1.789  0.00  0.00    +0.093 A 
ATOM      6  C   UNL     1       5.981 -10.629   2.573  0.00  0.00    +0.037 A 
ATOM      7  C   UNL     1       7.351 -10.975   2.543  0.00  0.00    -0.037 A 
ATOM      8  C   UNL     1       7.801 -11.990   3.357  0.00  0.00    +0.033 A 
ATOM      9  C   UNL     1       6.920 -12.659   4.192  0.00  0.00    +0.108 A 
ATOM     10  N   UNL     1       5.642 -12.331   4.214  0.00  0.00    -0.239 NA
ATOM     11  C   UNL     1       5.169 -11.367   3.453  0.00  0.00    +0.112 A 
ATOM     12  S   UNL     1       3.548 -10.675   3.231  0.00  0.00    -0.063 S 
ATOM     13  C   UNL     1       8.305 -10.245   1.633  0.00  0.00    +0.044 C 
ATOM     14  N   UNL     1       5.860  -8.739   0.876  0.00  0.00    -0.234 NA
ATOM     15  C   UNL     1       5.170  -7.847   0.237  0.00  0.00    +0.225 A 
ATOM     16  N   UNL     1       3.835  -7.683   0.424  0.00  0.00    -0.201 N 
ATOM     17  N   UNL     1       2.866  -6.830  -0.117  0.00  0.00    -0.146 NA
ENDROOT
BRANCH   1  20
ATOM     18  C   UNL     1       0.213  -4.242  -0.222  0.00  0.00    +0.092 C 
ATOM     19  C   UNL     1       0.359  -5.083   0.819  0.00  0.00    +0.039 C 
ATOM     20  C   UNL     1       0.407  -6.456   0.173  0.00  0.00    +0.222 C 
ATOM     21  N   UNL     1       0.269  -6.157  -1.262  0.00  0.00    -0.171 NA
ATOM     22  N   UNL     1       0.164  -4.936  -1.390  0.00  0.00    -0.153 NA
BRANCH  18  27
ATOM     23  C   UNL     1      -0.170   1.488   0.213  0.00  0.00    +0.044 C 
ATOM     24  C   UNL     1      -0.070  -0.011   0.099  0.00  0.00    -0.050 A 
ATOM     25  C   UNL     1      -0.960  -0.815   0.787  0.00  0.00    +0.004 A 
ATOM     26  C   UNL     1      -0.873  -2.189   0.687  0.00  0.00    +0.010 A 
ATOM     27  C   UNL     1       0.114  -2.765  -0.110  0.00  0.00    +0.005 A 
ATOM     28  C   UNL     1       1.008  -1.950  -0.801  0.00  0.00    -0.041 A 
ATOM     29  C   UNL     1       0.909  -0.578  -0.697  0.00  0.00    +0.007 A 
ATOM     30  C   UNL     1       2.079  -2.566  -1.665  0.00  0.00    +0.044 C 
ENDBRANCH  18  27
ENDBRANCH   1  20
BRANCH   9  31
ATOM     31  C   UNL     1       7.423 -13.768   5.079  0.00  0.00    +0.390 C 
ATOM     32  F   UNL     1       6.402 -14.703   5.282  0.00  0.00    -0.202 F 
ATOM     33  F   UNL     1       8.514 -14.395   4.467  0.00  0.00    -0.202 F 
ENDBRANCH   9  31
TORSDOF 3
