REMARK  Name = ZINC39344331
REMARK  9 active torsions:
REMARK  status: ('A' for Active; 'I' for Inactive)
REMARK    1  A    between atoms: C_1  and  C_2
REMARK    2  A    between atoms: C_4  and  C_9
REMARK    3  A    between atoms: C_5  and  O_8
REMARK    4  A    between atoms: C_9  and  C_11
REMARK    5  A    between atoms: C_9  and  C_21
REMARK    6  A    between atoms: C_14  and  O_19
REMARK    7  A    between atoms: C_16  and  O_17
REMARK    8  A    between atoms: C_23  and  C_28
REMARK    9  A    between atoms: C_26  and  O_27
REMARK                            x       y       z     vdW  Elec       q    Type
REMARK                         _______ _______ _______ _____ _____    ______ ____
ROOT
ATOM      1  C   UNL     1       0.130  -0.081  -2.825  0.00  0.00    +0.093 C 
ENDROOT
BRANCH   1   2
ATOM      2  C   UNL     1      -1.281  -0.607  -2.887  0.00  0.00    +0.008 A 
ATOM      3  C   UNL     1      -2.275  -0.010  -2.134  0.00  0.00    +0.027 A 
ATOM      4  C   UNL     1      -3.570  -0.490  -2.189  0.00  0.00    +0.061 A 
ATOM      5  C   UNL     1      -3.875  -1.574  -3.001  0.00  0.00    +0.148 A 
ATOM      6  C   UNL     1      -2.880  -2.175  -3.757  0.00  0.00    +0.102 A 
ATOM      7  C   UNL     1      -1.582  -1.687  -3.704  0.00  0.00    +0.138 A 
ATOM      8 BR   UNL     1      -3.292  -3.651  -4.864  0.00  0.00    -0.043 Br
ATOM      9 BR   UNL     1      -4.926   0.329  -1.157  0.00  0.00    -0.046 Br
BRANCH   7  10
ATOM     10  O   UNL     1      -0.606  -2.270  -4.448  0.00  0.00    -0.505 OA
ATOM     11  H   UNL     1      -0.146  -2.992  -3.998  0.00  0.00    +0.292 HD
ENDBRANCH   7  10
BRANCH   5  12
ATOM     12  O   UNL     1      -5.149  -2.046  -3.055  0.00  0.00    -0.504 OA
ATOM     13  H   UNL     1      -5.693  -1.633  -3.739  0.00  0.00    +0.292 HD
ENDBRANCH   5  12
ENDBRANCH   1   2
BRANCH   1  14
ATOM     14  C   UNL     1       0.180   1.294  -3.439  0.00  0.00    +0.047 A 
ATOM     15  C   UNL     1       1.266   2.099  -3.501  0.00  0.00    +0.041 A 
ATOM     16  N   UNL     1       0.900   3.239  -4.125  0.00  0.00    -0.278 N 
ATOM     17  N   UNL     1      -0.456   3.133  -4.460  0.00  0.00    -0.136 NA
ATOM     18  C   UNL     1      -0.888   1.964  -4.053  0.00  0.00    +0.236 A 
ATOM     19  C   UNL     1       2.638   1.781  -2.967  0.00  0.00    +0.065 C 
ATOM     20  H   UNL     1       1.475   3.997  -4.310  0.00  0.00    +0.189 HD
BRANCH  18  22
ATOM     21  H   UNL     1      -2.768   1.784  -3.515  0.00  0.00    +0.294 HD
ATOM     22  O   UNL     1      -2.153   1.485  -4.199  0.00  0.00    -0.491 OA
ENDBRANCH  18  22
ENDBRANCH   1  14
BRANCH   1  25
ATOM     23  C   UNL     1      -0.031   2.280  -0.550  0.00  0.00    +0.039 C 
ATOM     24  C   UNL     1      -0.058   0.780  -0.251  0.00  0.00    +0.157 C 
ATOM     25  C   UNL     1       0.575  -0.005  -1.387  0.00  0.00    +0.031 C 
ATOM     26  C   UNL     1       1.620  -0.616  -0.813  0.00  0.00    +0.234 C 
ATOM     27  N   UNL     1       1.694  -0.301   0.503  0.00  0.00    -0.116 NA
ATOM     28  N   UNL     1       0.805   0.463   0.899  0.00  0.00    -0.176 NA
BRANCH  26  29
ATOM     29  O   UNL     1       2.487  -1.438  -1.461  0.00  0.00    -0.491 OA
ATOM     30  H   UNL     1       3.186  -1.796  -0.897  0.00  0.00    +0.294 HD
ENDBRANCH  26  29
ENDBRANCH   1  25
TORSDOF 7
