REMARK  Name = ZINC03211086
REMARK  5 active torsions:
REMARK  status: ('A' for Active; 'I' for Inactive)
REMARK    1  A    between atoms: C_1  and  C_2
REMARK    2  A    between atoms: C_7  and  C_10
REMARK    3  A    between atoms: C_11  and  C_13
REMARK    4  A    between atoms: C_17  and  S_19
REMARK    5  A    between atoms: S_19  and  N_22
REMARK                            x       y       z     vdW  Elec       q    Type
REMARK                         _______ _______ _______ _____ _____    ______ ____
ROOT
ATOM      1  C   UNL     1      -2.001  -3.877  -1.380  0.00  0.00    +0.039 A 
ATOM      2  C   UNL     1      -1.208  -4.190  -0.274  0.00  0.00    +0.014 A 
ATOM      3  C   UNL     1      -1.067  -5.503   0.120  0.00  0.00    +0.018 A 
ATOM      4  C   UNL     1      -1.710  -6.512  -0.578  0.00  0.00    +0.044 A 
ATOM      5  C   UNL     1      -2.498  -6.208  -1.675  0.00  0.00    +0.120 A 
ATOM      6  C   UNL     1      -2.652  -4.897  -2.076  0.00  0.00    +0.042 A 
ATOM      7 BR   UNL     1      -1.512  -8.311  -0.031  0.00  0.00    -0.048 Br
ENDROOT
BRANCH   1  16
ATOM      8  C   UNL     1      -0.134   1.357  -3.985  0.00  0.00    +0.039 C 
ATOM      9  C   UNL     1      -0.168  -0.115  -3.571  0.00  0.00    +0.133 C 
ATOM     10  C   UNL     1      -1.189  -0.306  -2.444  0.00  0.00    +0.139 C 
ATOM     11  N   UNL     1      -1.070  -1.682  -1.937  0.00  0.00    -0.293 N 
ATOM     12  C   UNL     1       0.270  -2.172  -1.575  0.00  0.00    +0.139 C 
ATOM     13  C   UNL     1       1.220  -1.891  -2.745  0.00  0.00    +0.133 C 
ATOM     14  O   UNL     1       1.125  -0.511  -3.107  0.00  0.00    -0.371 OA
ATOM     15  C   UNL     1       0.831  -2.761  -3.941  0.00  0.00    +0.039 C 
ATOM     16  C   UNL     1      -2.155  -2.471  -1.808  0.00  0.00    +0.247 C 
ATOM     17  O   UNL     1      -3.261  -2.026  -2.045  0.00  0.00    -0.270 OA
ENDBRANCH   1  16
BRANCH   5  18
ATOM     18  S   UNL     1      -3.313  -7.498  -2.557  0.00  0.00    +0.062 S 
ATOM     19  O   UNL     1      -3.908  -8.343  -1.582  0.00  0.00    -0.153 OA
ATOM     20  O   UNL     1      -4.068  -6.873  -3.586  0.00  0.00    -0.153 OA
BRANCH  18  21
ATOM     21  N   UNL     1      -2.140  -8.394  -3.308  0.00  0.00    -0.172 NA
ATOM     22  C   UNL     1      -1.545  -7.949  -4.578  0.00  0.00    +0.137 C 
ATOM     23  C   UNL     1      -0.019  -7.994  -4.439  0.00  0.00    +0.177 C 
ATOM     24  O   UNL     1       0.374  -9.286  -3.971  0.00  0.00    -0.377 OA
ATOM     25  C   UNL     1      -0.130  -9.618  -2.675  0.00  0.00    +0.177 C 
ATOM     26  C   UNL     1      -1.658  -9.655  -2.722  0.00  0.00    +0.137 C 
ENDBRANCH  18  21
ENDBRANCH   5  18
TORSDOF 3
