REMARK  Name = ZINC08165113
REMARK  7 active torsions:
REMARK  status: ('A' for Active; 'I' for Inactive)
REMARK    1  A    between atoms: C_1  and  O_2
REMARK    2  A    between atoms: O_2  and  C_3
REMARK    3  A    between atoms: C_6  and  N_10
REMARK    4  A    between atoms: C_14  and  N_18
REMARK    5  A    between atoms: N_18  and  C_19
REMARK    6  A    between atoms: C_22  and  S_25
REMARK    7  A    between atoms: S_25  and  N_28
REMARK                            x       y       z     vdW  Elec       q    Type
REMARK                         _______ _______ _______ _____ _____    ______ ____
ROOT
ATOM      1  N   UNL     1      -4.893  -2.582   0.034  0.00  0.00    -0.209 N 
ATOM      2  C   UNL     1      -6.056  -1.926   0.136  0.00  0.00    +0.228 C 
ATOM      3  O   UNL     1      -6.178  -0.724   0.231  0.00  0.00    -0.275 OA
ATOM      4  C   UNL     1      -7.193  -2.924   0.114  0.00  0.00    +0.128 C 
ATOM      5  C   UNL     1      -6.479  -4.284  -0.020  0.00  0.00    +0.166 C 
ATOM      6  C   UNL     1      -5.013  -3.911  -0.065  0.00  0.00    +0.247 C 
ATOM      7  O   UNL     1      -4.093  -4.693  -0.172  0.00  0.00    -0.273 OA
ENDROOT
BRANCH   1  11
ATOM      8  C   UNL     1      -1.200  -0.639   0.007  0.00  0.00    +0.138 A 
ATOM      9  C   UNL     1      -1.653  -1.284  -1.134  0.00  0.00    +0.049 A 
ATOM     10  C   UNL     1      -2.875  -1.928  -1.125  0.00  0.00    +0.027 A 
ATOM     11  C   UNL     1      -3.651  -1.928   0.026  0.00  0.00    +0.046 A 
ATOM     12  C   UNL     1      -3.199  -1.282   1.168  0.00  0.00    +0.047 A 
ATOM     13  C   UNL     1      -1.974  -0.643   1.161  0.00  0.00    +0.084 A 
ATOM     14 CL   UNL     1      -1.404   0.159   2.591  0.00  0.00    -0.080 Cl
BRANCH   8  16
ATOM     15  C   UNL     1       0.746  -0.041  -1.222  0.00  0.00    +0.277 C 
ATOM     16  O   UNL     1       0.003  -0.006  -0.001  0.00  0.00    -0.494 OA
ENDBRANCH   8  16
ENDBRANCH   1  11
BRANCH   5  17
ATOM     17  N   UNL     1      -6.877  -4.956  -1.259  0.00  0.00    -0.333 N 
ATOM     18  H   UNL     1      -7.196  -4.434  -2.013  0.00  0.00    +0.147 HD
BRANCH  17  19
ATOM     19  C   UNL     1      -6.798  -6.347  -1.356  0.00  0.00    +0.028 A 
ATOM     20  C   UNL     1      -6.347  -7.095  -0.276  0.00  0.00    +0.025 A 
ATOM     21  C   UNL     1      -6.271  -8.471  -0.375  0.00  0.00    +0.030 A 
ATOM     22  C   UNL     1      -6.642  -9.103  -1.548  0.00  0.00    +0.105 A 
ATOM     23  C   UNL     1      -7.091  -8.361  -2.625  0.00  0.00    +0.030 A 
ATOM     24  C   UNL     1      -7.175  -6.986  -2.531  0.00  0.00    +0.025 A 
BRANCH  22  25
ATOM     25  S   UNL     1      -6.542 -10.858  -1.670  0.00  0.00    +0.056 S 
ATOM     26  O   UNL     1      -6.428 -11.162  -3.053  0.00  0.00    -0.153 OA
ATOM     27  O   UNL     1      -5.575 -11.277  -0.716  0.00  0.00    -0.153 OA
BRANCH  25  28
ATOM     28  N   UNL     1      -7.997 -11.467  -1.169  0.00  0.00    -0.204 NA
ATOM     29  H   UNL     1      -8.326 -12.302  -1.537  0.00  0.00    +0.144 HD
ATOM     30  H   UNL     1      -8.521 -10.990  -0.507  0.00  0.00    +0.144 HD
ENDBRANCH  25  28
ENDBRANCH  22  25
ENDBRANCH  17  19
ENDBRANCH   5  17
TORSDOF 6
