REMARK  Name = ZINC12246432
REMARK  6 active torsions:
REMARK  status: ('A' for Active; 'I' for Inactive)
REMARK    1  A    between atoms: C_1  and  C_2
REMARK    2  A    between atoms: C_3  and  C_8
REMARK    3  A    between atoms: C_8  and  N_9
REMARK    4  A    between atoms: C_12  and  C_23
REMARK    5  A    between atoms: C_19  and  O_21
REMARK    6  A    between atoms: O_21  and  C_22
REMARK                            x       y       z     vdW  Elec       q    Type
REMARK                         _______ _______ _______ _____ _____    ______ ____
ROOT
ATOM      1  N   UNL     1       1.317  -0.038  -3.027  0.00  0.00    -0.323 N 
ATOM      2  C   UNL     1       1.659   1.375  -2.795  0.00  0.00    +0.107 C 
ATOM      3  C   UNL     1       1.387   2.209  -4.019  0.00  0.00    +0.038 C 
ATOM      4  C   UNL     1       2.278   1.920  -5.216  0.00  0.00    +0.084 C 
ATOM      5  S   UNL     1       1.862   0.301  -5.930  0.00  0.00    -0.115 S 
ATOM      6  C   UNL     1       2.716  -0.831  -4.857  0.00  0.00    +0.033 A 
ATOM      7  C   UNL     1       2.310  -0.890  -3.525  0.00  0.00    +0.044 A 
ATOM      8  C   UNL     1       2.918  -1.805  -2.673  0.00  0.00    +0.028 A 
ATOM      9  C   UNL     1       3.936  -2.615  -3.143  0.00  0.00    +0.047 A 
ATOM     10  C   UNL     1       4.361  -2.526  -4.460  0.00  0.00    +0.121 A 
ATOM     11  C   UNL     1       3.739  -1.622  -5.335  0.00  0.00    +0.062 A 
ENDROOT
BRANCH   4  12
ATOM     12  C   UNL     1       2.076   2.989  -6.259  0.00  0.00    -0.012 A 
ATOM     13  C   UNL     1       1.161   2.795  -7.278  0.00  0.00    +0.055 A 
ATOM     14  C   UNL     1       0.973   3.776  -8.237  0.00  0.00    +0.167 A 
ATOM     15  C   UNL     1       1.708   4.957  -8.174  0.00  0.00    +0.168 A 
ATOM     16  C   UNL     1       2.623   5.146  -7.151  0.00  0.00    +0.069 A 
ATOM     17  C   UNL     1       2.802   4.164  -6.193  0.00  0.00    +0.049 A 
ATOM     18 CL   UNL     1       3.945   4.405  -4.909  0.00  0.00    -0.083 Cl
ATOM     19  O   UNL     1       1.345   5.754  -9.221  0.00  0.00    -0.453 OA
ATOM     20  C   UNL     1       0.680   4.882 -10.155  0.00  0.00    +0.466 C 
ATOM     21  O   UNL     1       0.149   3.833  -9.324  0.00  0.00    -0.453 OA
ENDBRANCH   4  12
BRANCH  10  22
ATOM     22  O   UNL     1       5.378  -3.313  -4.903  0.00  0.00    -0.495 OA
ATOM     23  C   UNL     1       5.965  -4.209  -3.957  0.00  0.00    +0.277 C 
ENDBRANCH  10  22
BRANCH   1  24
ATOM     24  C   UNL     1      -0.028  -0.541  -2.739  0.00  0.00    +0.160 C 
BRANCH  24  27
ATOM     25  C   UNL     1      -0.373   1.241  -0.189  0.00  0.00    +0.065 C 
ATOM     26  C   UNL     1      -0.238  -0.259  -0.213  0.00  0.00    +0.035 A 
ATOM     27  C   UNL     1      -0.089  -1.023  -1.312  0.00  0.00    +0.054 A 
ATOM     28  N   UNL     1      -0.005  -2.320  -0.885  0.00  0.00    -0.348 N 
ATOM     29  H   UNL     1       0.106  -3.105  -1.445  0.00  0.00    +0.166 HD
ATOM     30  C   UNL     1      -0.105  -2.305   0.462  0.00  0.00    +0.171 A 
ATOM     31  N   UNL     1      -0.239  -1.068   0.857  0.00  0.00    -0.350 N 
ATOM     32  H   UNL     1      -0.328  -0.780   1.779  0.00  0.00    +0.166 HD
ENDBRANCH  24  27
ENDBRANCH   1  24
TORSDOF 4
