REMARK  Name = ZINC12745734
REMARK  8 active torsions:
REMARK  status: ('A' for Active; 'I' for Inactive)
REMARK    1  A    between atoms: C_1  and  C_2
REMARK    2  A    between atoms: C_2  and  C_4
REMARK    3  A    between atoms: C_2  and  S_16
REMARK    4  A    between atoms: N_6  and  C_7
REMARK    5  A    between atoms: C_10  and  C_14
REMARK    6  A    between atoms: S_16  and  C_17
REMARK    7  A    between atoms: C_21  and  C_24
REMARK    8  A    between atoms: N_31  and  C_32
REMARK                            x       y       z     vdW  Elec       q    Type
REMARK                         _______ _______ _______ _____ _____    ______ ____
ROOT
ATOM      1  S   UNL     1       3.380  -3.610  -3.455  0.00  0.00    -0.075 S 
ENDROOT
BRANCH   1   2
ATOM      2  C   UNL     1       2.487  -2.485  -2.434  0.00  0.00    +0.173 A 
ATOM      3  N   UNL     1       1.584  -2.945  -1.593  0.00  0.00    -0.216 NA
ATOM      4  C   UNL     1       0.893  -2.120  -0.815  0.00  0.00    +0.117 A 
ATOM      5  C   UNL     1       1.093  -0.729  -0.841  0.00  0.00    +0.080 A 
ATOM      6  C   UNL     1       0.254   0.033   0.080  0.00  0.00    +0.010 A 
ATOM      7  C   UNL     1      -0.633  -0.636   0.857  0.00  0.00    +0.057 A 
ATOM      8  S   UNL     1      -0.384  -2.340   0.397  0.00  0.00    -0.076 S 
ATOM      9  C   UNL     1       2.086  -0.259  -1.755  0.00  0.00    +0.263 A 
ATOM     10  O   UNL     1       2.330   0.932  -1.841  0.00  0.00    -0.267 OA
ATOM     11  N   UNL     1       2.748  -1.147  -2.518  0.00  0.00    -0.290 N 
ATOM     12  C   UNL     1       3.767  -0.670  -3.457  0.00  0.00    +0.154 C 
BRANCH   6  13
ATOM     13  C   UNL     1       0.365   1.504   0.159  0.00  0.00    +0.021 A 
ATOM     14  C   UNL     1      -0.625   2.449   0.095  0.00  0.00    +0.016 A 
ATOM     15  C   UNL     1      -0.277   3.780   0.196  0.00  0.00    +0.008 A 
ATOM     16  C   UNL     1       1.030   4.112   0.345  0.00  0.00    +0.046 A 
ATOM     17  S   UNL     1       1.825   2.514   0.354  0.00  0.00    -0.097 S 
ENDBRANCH   6  13
ENDBRANCH   1   2
BRANCH   1  19
ATOM     18  C   UNL     1       2.980  -5.429  -1.456  0.00  0.00    +0.029 C 
ATOM     19  C   UNL     1       2.636  -5.173  -2.925  0.00  0.00    +0.137 C 
BRANCH  19  20
ATOM     20  C   UNL     1       3.174  -6.298  -3.771  0.00  0.00    +0.230 C 
ATOM     21  O   UNL     1       4.256  -6.189  -4.306  0.00  0.00    -0.274 OA
ATOM     22  N   UNL     1       2.451  -7.424  -3.933  0.00  0.00    -0.285 N 
ATOM     23  H   UNL     1       1.622  -7.543  -3.444  0.00  0.00    +0.155 HD
BRANCH  22  24
ATOM     24  C   UNL     1       2.897  -8.420  -4.803  0.00  0.00    +0.035 A 
ATOM     25  C   UNL     1       3.588  -8.072  -5.960  0.00  0.00    +0.024 A 
ATOM     26  C   UNL     1       4.034  -9.051  -6.818  0.00  0.00    +0.022 A 
ATOM     27  C   UNL     1       3.782 -10.396  -6.534  0.00  0.00    +0.070 A 
ATOM     28  C   UNL     1       3.082 -10.742  -5.373  0.00  0.00    +0.060 A 
ATOM     29  C   UNL     1       2.644  -9.756  -4.515  0.00  0.00    +0.044 A 
ATOM     30 CL   UNL     1       2.766 -12.411  -5.013  0.00  0.00    -0.082 Cl
BRANCH  27  31
ATOM     31  C   UNL     1       4.238 -11.417  -7.428  0.00  0.00    +0.101 C 
ATOM     32  N   UNL     1       4.601 -12.227  -8.137  0.00  0.00    -0.191 NA
ENDBRANCH  27  31
ENDBRANCH  22  24
ENDBRANCH  19  20
ENDBRANCH   1  19
TORSDOF 6
