REMARK  Name = ZINC02217980
REMARK  10 active torsions:
REMARK  status: ('A' for Active; 'I' for Inactive)
REMARK    1  A    between atoms: C_1  and  O_2
REMARK    2  A    between atoms: O_2  and  C_3
REMARK    3  A    between atoms: C_6  and  C_14
REMARK    4  A    between atoms: C_7  and  C_11
REMARK    5  A    between atoms: C_8  and  O_9
REMARK    6  A    between atoms: O_9  and  C_10
REMARK    7  A    between atoms: N_15  and  N_16
REMARK    8  A    between atoms: C_21  and  C_24
REMARK    9  A    between atoms: C_24  and  C_25
REMARK   10  A    between atoms: N_27  and  C_28
REMARK                            x       y       z     vdW  Elec       q    Type
REMARK                         _______ _______ _______ _____ _____    ______ ____
ROOT
ATOM      1  N   UNL     1      -2.569  -6.417  -3.744  0.00  0.00    -0.127 NA
ATOM      2  C   UNL     1      -2.582  -5.789  -2.584  0.00  0.00    +0.183 C 
ATOM      3  N   UNL     1      -3.565  -5.807  -1.619  0.00  0.00    -0.263 N 
ATOM      4  C   UNL     1      -3.459  -5.129  -0.488  0.00  0.00    +0.233 C 
ATOM      5  O   UNL     1      -4.328  -5.148   0.357  0.00  0.00    -0.274 OA
ATOM      6  C   UNL     1      -2.181  -4.325  -0.316  0.00  0.00    +0.149 C 
ATOM      7  S   UNL     1      -1.330  -4.717  -1.896  0.00  0.00    -0.075 S 
ATOM      8  H   UNL     1      -4.478  -6.399  -1.775  0.00  0.00    +0.157 HD
ENDROOT
BRANCH   1  10
ATOM      9  C   UNL     1      -1.545  -6.910  -5.685  0.00  0.00    +0.143 C 
ATOM     10  N   UNL     1      -1.558  -6.288  -4.535  0.00  0.00    -0.155 NA
BRANCH   9  14
ATOM     11  C   UNL     1       1.782  -6.492  -8.303  0.00  0.00    +0.162 A 
ATOM     12  C   UNL     1       0.703  -7.287  -8.661  0.00  0.00    +0.050 A 
ATOM     13  C   UNL     1      -0.378  -7.426  -7.815  0.00  0.00    +0.014 A 
ATOM     14  C   UNL     1      -0.396  -6.763  -6.585  0.00  0.00    +0.013 A 
ATOM     15  C   UNL     1       0.697  -5.946  -6.215  0.00  0.00    +0.117 A 
ATOM     16  C   UNL     1       1.788  -5.822  -7.084  0.00  0.00    +0.176 A 
BRANCH  15  17
ATOM     17  C   UNL     1       0.691  -5.238  -4.928  0.00  0.00    +0.391 C 
ATOM     18  O   UNL     1       1.152  -5.772  -3.938  0.00  0.00    -0.240 OA
ATOM     19  O   UNL     1       0.173  -3.995  -4.845  0.00  0.00    -0.240 OA
ENDBRANCH  15  17
BRANCH  11  21
ATOM     20  C   UNL     1       2.770  -7.081 -10.385  0.00  0.00    +0.277 C 
ATOM     21  O   UNL     1       2.839  -6.367  -9.149  0.00  0.00    -0.491 OA
ENDBRANCH  11  21
BRANCH  16  22
ATOM     22  O   UNL     1       2.847  -5.045  -6.740  0.00  0.00    -0.491 OA
ATOM     23  C   UNL     1       2.795  -3.670  -7.125  0.00  0.00    +0.277 C 
ENDBRANCH  16  22
ENDBRANCH   9  14
ENDBRANCH   1  10
BRANCH   6  24
ATOM     24  C   UNL     1      -2.479  -2.828  -0.204  0.00  0.00    +0.120 C 
BRANCH  24  25
ATOM     25  C   UNL     1      -1.183  -2.065  -0.099  0.00  0.00    +0.219 C 
ATOM     26  O   UNL     1      -0.126  -2.659  -0.113  0.00  0.00    -0.275 OA
ATOM     27  N   UNL     1      -1.200  -0.722   0.010  0.00  0.00    -0.285 N 
ATOM     28  H   UNL     1      -2.158  -0.189   0.099  0.00  0.00    +0.155 HD
BRANCH  27  29
ATOM     29  C   UNL     1       0.003  -0.005   0.010  0.00  0.00    +0.033 A 
ATOM     30  C   UNL     1       0.065   1.248  -0.586  0.00  0.00    +0.025 A 
ATOM     31  C   UNL     1       1.252   1.954  -0.584  0.00  0.00    +0.022 A 
ATOM     32  C   UNL     1       2.379   1.413   0.010  0.00  0.00    +0.041 A 
ATOM     33  C   UNL     1       2.319   0.165   0.605  0.00  0.00    +0.022 A 
ATOM     34  C   UNL     1       1.134  -0.545   0.606  0.00  0.00    +0.025 A 
ATOM     35 CL   UNL     1       3.870   2.302   0.010  0.00  0.00    -0.084 Cl
ENDBRANCH  27  29
ENDBRANCH  24  25
ENDBRANCH   6  24
TORSDOF 8
