REMARK  Name = ZINC19229199
REMARK  2 active torsions:
REMARK  status: ('A' for Active; 'I' for Inactive)
REMARK    1  A    between atoms: C_6  and  C_7
REMARK    2  A    between atoms: C_14  and  C_18
REMARK                            x       y       z     vdW  Elec       q    Type
REMARK                         _______ _______ _______ _____ _____    ______ ____
ROOT
ATOM      1  C   UNL     1      -1.281   0.692   2.069  0.00  0.00    +0.247 C 
ATOM      2  O   UNL     1      -0.659  -0.353   2.052  0.00  0.00    -0.270 OA
ATOM      3  N   UNL     1      -1.429   1.406   0.935  0.00  0.00    -0.293 N 
ATOM      4  C   UNL     1      -0.739   1.009  -0.301  0.00  0.00    +0.114 C 
ATOM      5  C   UNL     1      -1.781   0.618  -1.357  0.00  0.00    +0.074 C 
ATOM      6  C   UNL     1      -2.877   1.654  -1.365  0.00  0.00    +0.043 A 
ATOM      7  C   UNL     1      -3.108   2.534  -0.361  0.00  0.00    +0.018 A 
ATOM      8  C   UNL     1      -4.205   3.329  -0.722  0.00  0.00    +0.098 A 
ATOM      9  N   UNL     1      -4.614   2.933  -1.912  0.00  0.00    -0.173 NA
ATOM     10  N   UNL     1      -3.787   1.881  -2.331  0.00  0.00    -0.281 N 
ATOM     11  H   UNL     1      -3.777   1.274  -3.248  0.00  0.00    +0.189 HD
ATOM     12  C   UNL     1      -2.288   2.604   0.904  0.00  0.00    +0.147 C 
ENDROOT
BRANCH   1  18
ATOM     13  C   UNL     1      -1.929   2.549   3.595  0.00  0.00    +0.017 A 
ATOM     14  C   UNL     1      -2.483   3.001   4.772  0.00  0.00    +0.050 A 
ATOM     15  C   UNL     1      -2.986   2.099   5.700  0.00  0.00    +0.166 A 
ATOM     16  C   UNL     1      -2.932   0.728   5.442  0.00  0.00    +0.167 A 
ATOM     17  C   UNL     1      -2.383   0.269   4.261  0.00  0.00    +0.062 A 
ATOM     18  C   UNL     1      -1.873   1.178   3.330  0.00  0.00    +0.041 A 
ATOM     19  O   UNL     1      -3.485   0.065   6.500  0.00  0.00    -0.453 OA
ATOM     20  C   UNL     1      -4.245   1.054   7.218  0.00  0.00    +0.466 C 
ATOM     21  O   UNL     1      -3.571   2.290   6.917  0.00  0.00    -0.453 OA
ENDBRANCH   1  18
BRANCH   8  22
ATOM     22  C   UNL     1      -4.801   4.419   0.089  0.00  0.00    +0.008 A 
ATOM     23  C   UNL     1      -4.847   4.312   1.477  0.00  0.00    +0.048 A 
ATOM     24  C   UNL     1      -5.399   5.332   2.230  0.00  0.00    +0.127 A 
ATOM     25  C   UNL     1      -5.914   6.456   1.605  0.00  0.00    +0.076 A 
ATOM     26  C   UNL     1      -5.875   6.564   0.224  0.00  0.00    +0.127 A 
ATOM     27  C   UNL     1      -5.321   5.551  -0.535  0.00  0.00    +0.048 A 
ATOM     28  F   UNL     1      -6.380   7.662  -0.381  0.00  0.00    -0.205 F 
ATOM     29  F   UNL     1      -5.439   5.231   3.576  0.00  0.00    -0.205 F 
ENDBRANCH   8  22
TORSDOF 2
