REMARK  Name = ZINC38747516
REMARK  9 active torsions:
REMARK  status: ('A' for Active; 'I' for Inactive)
REMARK    1  A    between atoms: C_1  and  C_2
REMARK    2  A    between atoms: C_4  and  C_27
REMARK    3  A    between atoms: C_5  and  N_9
REMARK    4  A    between atoms: C_6  and  C_8
REMARK    5  A    between atoms: C_10  and  C_12
REMARK    6  A    between atoms: C_12  and  S_13
REMARK    7  A    between atoms: S_13  and  C_14
REMARK    8  A    between atoms: C_19  and  C_26
REMARK    9  A    between atoms: C_20  and  C_25
REMARK                            x       y       z     vdW  Elec       q    Type
REMARK                         _______ _______ _______ _____ _____    ______ ____
ROOT
ATOM      1  C   UNL     1      -0.526  -6.390   0.733  0.00  0.00    +0.173 C 
ENDROOT
BRANCH   1   3
ATOM      2  N   UNL     1      -0.299  -4.141  -0.272  0.00  0.00    -0.284 N 
ATOM      3  C   UNL     1      -0.270  -4.908   0.836  0.00  0.00    +0.227 C 
ATOM      4  O   UNL     1      -0.036  -4.407   1.915  0.00  0.00    -0.275 OA
ATOM      5  H   UNL     1      -0.421  -4.551  -1.143  0.00  0.00    +0.155 HD
BRANCH   2  10
ATOM      6  C   UNL     1       0.286   1.486   0.157  0.00  0.00    +0.044 C 
ATOM      7  C   UNL     1       0.130  -0.009   0.043  0.00  0.00    -0.050 A 
ATOM      8  C   UNL     1       1.121  -0.844   0.526  0.00  0.00    +0.008 A 
ATOM      9  C   UNL     1       0.982  -2.215   0.423  0.00  0.00    -0.029 A 
ATOM     10  C   UNL     1      -0.155  -2.753  -0.166  0.00  0.00    +0.039 A 
ATOM     11  C   UNL     1      -1.148  -1.911  -0.649  0.00  0.00    -0.029 A 
ATOM     12  C   UNL     1      -1.005  -0.542  -0.539  0.00  0.00    +0.008 A 
ATOM     13  C   UNL     1      -2.383  -2.491  -1.289  0.00  0.00    +0.045 C 
ATOM     14  C   UNL     1       2.062  -3.124   0.949  0.00  0.00    +0.045 C 
ENDBRANCH   2  10
ENDBRANCH   1   3
BRANCH   1  15
ATOM     15  S   UNL     1      -0.418  -7.138   2.382  0.00  0.00    -0.079 S 
BRANCH  15  16
ATOM     16  C   UNL     1      -0.738  -8.847   2.096  0.00  0.00    +0.182 C 
ATOM     17  N   UNL     1      -0.971  -9.245   0.857  0.00  0.00    -0.151 NA
ATOM     18  C   UNL     1      -1.222 -10.516   0.545  0.00  0.00    +0.272 C 
ATOM     19  O   UNL     1      -1.432 -10.849  -0.610  0.00  0.00    -0.268 OA
ATOM     20  C   UNL     1      -1.236 -11.524   1.654  0.00  0.00    +0.071 C 
ATOM     21  C   UNL     1      -1.463 -12.841   1.572  0.00  0.00    -0.045 C 
ATOM     22  C   UNL     1      -1.421 -13.645   2.852  0.00  0.00    +0.076 C 
ATOM     23  S   UNL     1      -1.040 -12.345   4.096  0.00  0.00    -0.098 S 
ATOM     24  C   UNL     1      -0.962 -10.956   2.993  0.00  0.00    +0.112 C 
ATOM     25  N   UNL     1      -0.727  -9.677   3.139  0.00  0.00    -0.217 NA
ATOM     26  C   UNL     1      -0.313 -14.698   2.801  0.00  0.00    +0.024 C 
ATOM     27  C   UNL     1      -1.751 -13.500   0.248  0.00  0.00    +0.041 C 
ENDBRANCH  15  16
ENDBRANCH   1  15
TORSDOF 4
