REMARK  Name = ZINC13449285
REMARK  10 active torsions:
REMARK  status: ('A' for Active; 'I' for Inactive)
REMARK    1  A    between atoms: C_1  and  C_2
REMARK    2  A    between atoms: C_7  and  N_12
REMARK    3  A    between atoms: C_9  and  C_11
REMARK    4  A    between atoms: C_16  and  C_18
REMARK    5  A    between atoms: C_18  and  S_19
REMARK    6  A    between atoms: S_19  and  C_20
REMARK    7  A    between atoms: C_24  and  C_28
REMARK    8  A    between atoms: C_25  and  C_27
REMARK    9  A    between atoms: C_28  and  C_29
REMARK   10  A    between atoms: C_29  and  C_30
REMARK                            x       y       z     vdW  Elec       q    Type
REMARK                         _______ _______ _______ _____ _____    ______ ____
ROOT
ATOM      1  N   UNL     1       1.471  -2.526   2.420  0.00  0.00    -0.296 N 
ATOM      2  C   UNL     1       2.056  -3.740   2.406  0.00  0.00    +0.306 C 
ATOM      3  O   UNL     1       1.996  -4.432   1.409  0.00  0.00    -0.252 OA
ATOM      4  N   UNL     1       2.708  -4.187   3.498  0.00  0.00    -0.239 N 
ATOM      5  C   UNL     1       3.293  -5.401   3.484  0.00  0.00    +0.231 C 
ATOM      6  O   UNL     1       3.233  -6.091   2.489  0.00  0.00    -0.274 OA
ATOM      7  H   UNL     1       1.520  -1.974   3.216  0.00  0.00    +0.151 HD
ATOM      8  H   UNL     1       2.756  -3.634   4.294  0.00  0.00    +0.159 HD
ENDROOT
BRANCH   1  14
ATOM      9  C   UNL     1      -0.019   1.526   0.010  0.00  0.00    +0.008 C 
ATOM     10  C   UNL     1       0.002  -0.004   0.002  0.00  0.00    -0.009 C 
ATOM     11  C   UNL     1      -1.433  -0.534   0.013  0.00  0.00    +0.003 C 
ATOM     12  C   UNL     1      -1.413  -2.063   0.004  0.00  0.00    +0.002 C 
ATOM     13  C   UNL     1      -0.673  -2.570   1.244  0.00  0.00    +0.022 C 
ATOM     14  C   UNL     1       0.763  -2.041   1.233  0.00  0.00    +0.078 C 
ATOM     15  C   UNL     1       0.742  -0.511   1.242  0.00  0.00    +0.009 C 
ATOM     16  C   UNL     1       0.026  -0.018   2.500  0.00  0.00    +0.009 C 
ENDBRANCH   1  14
BRANCH   5  17
ATOM     17  C   UNL     1       4.022  -5.900   4.705  0.00  0.00    +0.173 C 
BRANCH  17  18
ATOM     18  S   UNL     1       4.694  -7.552   4.375  0.00  0.00    -0.077 S 
BRANCH  18  19
ATOM     19  C   UNL     1       5.505  -7.990   5.876  0.00  0.00    +0.192 A 
ATOM     20  N   UNL     1       5.489  -7.139   6.892  0.00  0.00    -0.183 NA
ATOM     21  C   UNL     1       6.091  -7.440   8.036  0.00  0.00    +0.277 A 
ATOM     22  O   UNL     1       6.072  -6.567   9.072  0.00  0.00    -0.265 OA
ATOM     23  C   UNL     1       6.742  -8.667   8.157  0.00  0.00    +0.040 A 
ATOM     24  C   UNL     1       6.736  -9.527   7.075  0.00  0.00    +0.049 A 
ATOM     25  N   UNL     1       6.112  -9.165   5.964  0.00  0.00    -0.227 NA
ATOM     26  C   UNL     1       7.428 -10.863   7.159  0.00  0.00    +0.066 C 
BRANCH  23  27
ATOM     27  C   UNL     1       7.438  -9.047   9.439  0.00  0.00    +0.054 C 
BRANCH  27  28
ATOM     28  C   UNL     1       6.454  -9.775  10.356  0.00  0.00    +0.130 C 
BRANCH  28  29
ATOM     29  C   UNL     1       7.150 -10.155  11.638  0.00  0.00    +0.356 C 
ATOM     30  O   UNL     1       8.324  -9.870  11.802  0.00  0.00    -0.246 OA
ATOM     31  O   UNL     1       6.539 -10.748  12.511  0.00  0.00    -0.246 OA
ENDBRANCH  28  29
ENDBRANCH  27  28
ENDBRANCH  23  27
ENDBRANCH  18  19
ENDBRANCH  17  18
ENDBRANCH   5  17
TORSDOF 7
