REMARK  Name = ZINC00120391
REMARK  1 active torsions:
REMARK  status: ('A' for Active; 'I' for Inactive)
REMARK    1  A    between atoms: C_6  and  C_7
REMARK                            x       y       z     vdW  Elec       q    Type
REMARK                         _______ _______ _______ _____ _____    ______ ____
ROOT
ATOM      1  C   UNL     1      -1.263  -0.762   0.011  0.00  0.00    +0.079 C 
ATOM      2  N   UNL     1      -2.348  -0.076   0.020  0.00  0.00    -0.167 NA
ATOM      3  N   UNL     1      -3.623  -0.627   0.071  0.00  0.00    -0.194 N 
ATOM      4  C   UNL     1      -4.844  -0.113  -0.225  0.00  0.00    +0.249 A 
ATOM      5  N   UNL     1      -5.727  -1.051   0.009  0.00  0.00    -0.135 NA
ATOM      6  N   UNL     1      -5.141  -2.124   0.429  0.00  0.00    -0.121 NA
ATOM      7  C   UNL     1      -3.865  -1.923   0.480  0.00  0.00    +0.212 A 
ATOM      8  S   UNL     1      -2.535  -2.984   0.949  0.00  0.00    -0.078 S 
ATOM      9  C   UNL     1      -1.154  -2.259   0.001  0.00  0.00    +0.135 C 
ENDROOT
BRANCH   1  15
ATOM     10  C   UNL     1      -0.017   1.393   0.010  0.00  0.00    +0.011 A 
ATOM     11  C   UNL     1       1.170   2.095   0.002  0.00  0.00    +0.020 A 
ATOM     12  C   UNL     1       2.378   1.419  -0.013  0.00  0.00    +0.041 A 
ATOM     13  C   UNL     1       2.404   0.035  -0.021  0.00  0.00    +0.020 A 
ATOM     14  C   UNL     1       1.224  -0.680  -0.014  0.00  0.00    +0.011 A 
ATOM     15  C   UNL     1       0.002  -0.004   0.002  0.00  0.00    -0.001 A 
ATOM     16 CL   UNL     1       3.868   2.311  -0.023  0.00  0.00    -0.084 Cl
ENDBRANCH   1  15
TORSDOF 1
