REMARK  Name = ZINC16038233
REMARK  2 active torsions:
REMARK  status: ('A' for Active; 'I' for Inactive)
REMARK    1  A    between atoms: C_12  and  C_23
REMARK    2  A    between atoms: C_23  and  C_25
REMARK                            x       y       z     vdW  Elec       q    Type
REMARK                         _______ _______ _______ _____ _____    ______ ____
ROOT
ATOM      1  C   UNL     1      -0.017   1.377   0.010  0.00  0.00    +0.001 A 
ATOM      2  C   UNL     1       1.164   2.100   0.002  0.00  0.00    +0.002 A 
ATOM      3  C   UNL     1       2.385   1.446  -0.004  0.00  0.00    +0.024 A 
ATOM      4  C   UNL     1       2.417   0.070  -0.008  0.00  0.00    +0.038 A 
ATOM      5  C   UNL     1       1.220  -0.674  -0.015  0.00  0.00    -0.004 A 
ATOM      6  C   UNL     1       0.002  -0.004   0.002  0.00  0.00    +0.010 A 
ATOM      7  C   UNL     1       1.300  -2.147  -0.065  0.00  0.00    +0.007 C 
ATOM      8  C   UNL     1       2.428  -2.781   0.245  0.00  0.00    -0.003 C 
ATOM      9  C   UNL     1       3.647  -2.001   0.659  0.00  0.00    +0.110 C 
ATOM     10  N   UNL     1       3.593  -0.678   0.009  0.00  0.00    -0.311 N 
ATOM     11  C   UNL     1       4.876  -0.385  -0.617  0.00  0.00    +0.158 C 
ATOM     12  C   UNL     1       5.856  -1.498  -0.222  0.00  0.00    +0.117 C 
ATOM     13  C   UNL     1       4.940  -2.688   0.203  0.00  0.00    +0.114 C 
ATOM     14  C   UNL     1       5.669  -3.203   1.435  0.00  0.00    +0.225 C 
ATOM     15  O   UNL     1       5.552  -4.309   1.918  0.00  0.00    -0.275 OA
ATOM     16  N   UNL     1       6.464  -2.225   1.895  0.00  0.00    -0.256 N 
ATOM     17  C   UNL     1       6.563  -1.150   1.071  0.00  0.00    +0.225 C 
ATOM     18  O   UNL     1       7.107  -0.096   1.321  0.00  0.00    -0.275 OA
ATOM     19  H   UNL     1       6.936  -2.283   2.740  0.00  0.00    +0.157 HD
ENDROOT
BRANCH  11  20
ATOM     20  C   UNL     1       4.717  -0.350  -2.115  0.00  0.00    +0.184 C 
ATOM     21  O   UNL     1       3.709  -0.787  -2.628  0.00  0.00    -0.290 OA
BRANCH  20  22
ATOM     22  C   UNL     1       5.785   0.214  -2.955  0.00  0.00    +0.019 A 
ATOM     23  C   UNL     1       6.952   0.713  -2.367  0.00  0.00    +0.012 A 
ATOM     24  C   UNL     1       7.949   1.240  -3.160  0.00  0.00    +0.016 A 
ATOM     25  C   UNL     1       7.797   1.275  -4.537  0.00  0.00    +0.018 A 
ATOM     26  C   UNL     1       6.644   0.782  -5.126  0.00  0.00    +0.016 A 
ATOM     27  C   UNL     1       5.642   0.247  -4.346  0.00  0.00    +0.012 A 
ATOM     28 BR   UNL     1       9.169   2.000  -5.616  0.00  0.00    -0.050 Br
ENDBRANCH  20  22
ENDBRANCH  11  20
TORSDOF 2
