REMARK  Name = ZINC15626093
REMARK  6 active torsions:
REMARK  status: ('A' for Active; 'I' for Inactive)
REMARK    1  A    between atoms: C_1  and  C_2
REMARK    2  A    between atoms: C_5  and  S_21
REMARK    3  A    between atoms: C_7  and  C_8
REMARK    4  A    between atoms: N_10  and  C_11
REMARK    5  A    between atoms: C_18  and  C_20
REMARK    6  A    between atoms: S_21  and  N_24
REMARK                            x       y       z     vdW  Elec       q    Type
REMARK                         _______ _______ _______ _____ _____    ______ ____
ROOT
ATOM      1  C   UNL     1       5.172  -2.170  -4.114  0.00  0.00    +0.044 C 
ATOM      2  C   UNL     1       4.782  -1.825  -2.700  0.00  0.00    -0.038 A 
ATOM      3  C   UNL     1       3.733  -2.484  -2.092  0.00  0.00    +0.006 A 
ATOM      4  C   UNL     1       3.377  -2.173  -0.792  0.00  0.00    +0.029 A 
ATOM      5  C   UNL     1       4.062  -1.193  -0.096  0.00  0.00    +0.106 A 
ATOM      6  C   UNL     1       5.113  -0.527  -0.692  0.00  0.00    +0.041 A 
ATOM      7  C   UNL     1       5.481  -0.840  -2.002  0.00  0.00    +0.042 A 
ENDROOT
BRANCH   7   8
ATOM      8  C   UNL     1       6.606  -0.130  -2.647  0.00  0.00    +0.249 C 
ATOM      9  O   UNL     1       7.000  -0.482  -3.741  0.00  0.00    -0.270 OA
ATOM     10  N   UNL     1       7.194   0.909  -2.021  0.00  0.00    -0.281 N 
ATOM     11  H   UNL     1       6.924   1.150  -1.121  0.00  0.00    +0.155 HD
BRANCH  10  12
ATOM     12  C   UNL     1       8.195   1.642  -2.671  0.00  0.00    +0.036 A 
ATOM     13  C   UNL     1       9.091   0.993  -3.517  0.00  0.00    +0.027 A 
ATOM     14  C   UNL     1      10.078   1.703  -4.166  0.00  0.00    +0.050 A 
ATOM     15  C   UNL     1      10.188   3.072  -3.970  0.00  0.00    +0.155 A 
ATOM     16  C   UNL     1       9.293   3.732  -3.115  0.00  0.00    +0.111 A 
ATOM     17  C   UNL     1       8.293   3.006  -2.466  0.00  0.00    +0.055 A 
ATOM     18  N   UNL     1       9.646   5.046  -3.124  0.00  0.00    -0.213 NA
ATOM     19  C   UNL     1      10.668   5.200  -3.911  0.00  0.00    +0.194 A 
ATOM     20  O   UNL     1      11.026   4.021  -4.444  0.00  0.00    -0.440 OA
ATOM     21  C   UNL     1      11.353   6.513  -4.187  0.00  0.00    +0.109 C 
ENDBRANCH  10  12
ENDBRANCH   7   8
BRANCH   5  22
ATOM     22  S   UNL     1       3.597  -0.800   1.557  0.00  0.00    +0.061 S 
ATOM     23  O   UNL     1       4.744  -0.238   2.179  0.00  0.00    -0.153 OA
ATOM     24  O   UNL     1       2.933  -1.945   2.075  0.00  0.00    -0.153 OA
BRANCH  22  25
ATOM     25  N   UNL     1       2.465   0.405   1.474  0.00  0.00    -0.177 NA
ATOM     26  C   UNL     1       1.034   0.084   1.383  0.00  0.00    +0.109 C 
ATOM     27  C   UNL     1       0.442   0.805   0.168  0.00  0.00    +0.017 C 
ATOM     28  C   UNL     1       0.745   2.302   0.272  0.00  0.00    +0.003 C 
ATOM     29  C   UNL     1       2.259   2.519   0.273  0.00  0.00    +0.017 C 
ATOM     30  C   UNL     1       2.872   1.817   1.488  0.00  0.00    +0.109 C 
ENDBRANCH  22  25
ENDBRANCH   5  22
TORSDOF 4
