REMARK  Name = ZINC09237587
REMARK  6 active torsions:
REMARK  status: ('A' for Active; 'I' for Inactive)
REMARK    1  A    between atoms: C_1  and  C_2
REMARK    2  A    between atoms: C_5  and  N_9
REMARK    3  A    between atoms: C_7  and  C_8
REMARK    4  A    between atoms: C_10  and  C_12
REMARK    5  A    between atoms: C_14  and  C_24
REMARK    6  A    between atoms: C_18  and  C_23
REMARK                            x       y       z     vdW  Elec       q    Type
REMARK                         _______ _______ _______ _____ _____    ______ ____
ROOT
ATOM      1  C   UNL     1       3.559   6.533  -0.179  0.00  0.00    +0.166 C 
ATOM      2  C   UNL     1       3.250   7.870  -0.866  0.00  0.00    +0.140 C 
ATOM      3  N   UNL     1       2.056   8.482  -0.281  0.00  0.00    -0.272 N 
ATOM      4  N   UNL     1       2.167   8.733   1.049  0.00  0.00    -0.225 N 
ATOM      5  C   UNL     1       1.451   9.629   1.790  0.00  0.00    +0.148 A 
ATOM      6  N   UNL     1       1.868   9.534   3.023  0.00  0.00    -0.132 NA
ATOM      7  N   UNL     1       2.797   8.645   3.110  0.00  0.00    -0.121 NA
ATOM      8  C   UNL     1       3.020   8.133   1.931  0.00  0.00    +0.209 A 
ATOM      9  S   UNL     1       4.197   6.896   1.485  0.00  0.00    -0.069 S 
ATOM     10  C   UNL     1       0.380  10.557   1.279  0.00  0.00    +0.090 C 
ATOM     11  H   UNL     1       1.234   7.931  -0.478  0.00  0.00    +0.167 HD
ENDROOT
BRANCH   2  12
ATOM     12  C   UNL     1       3.014   7.632  -2.335  0.00  0.00    -0.024 A 
ATOM     13  C   UNL     1       1.791   7.156  -2.770  0.00  0.00    +0.008 A 
ATOM     14  C   UNL     1       1.571   6.943  -4.118  0.00  0.00    +0.038 A 
ATOM     15  C   UNL     1       2.581   7.195  -5.032  0.00  0.00    +0.123 A 
ATOM     16  C   UNL     1       3.807   7.665  -4.594  0.00  0.00    +0.038 A 
ATOM     17  C   UNL     1       4.022   7.884  -3.247  0.00  0.00    +0.008 A 
ATOM     18  F   UNL     1       2.369   6.980  -6.349  0.00  0.00    -0.205 F 
ENDBRANCH   2  12
BRANCH   1  20
ATOM     19  N   UNL     1       2.181   4.569  -0.781  0.00  0.00    -0.285 N 
ATOM     20  C   UNL     1       2.300   5.710  -0.075  0.00  0.00    +0.233 C 
ATOM     21  O   UNL     1       1.395   6.076   0.645  0.00  0.00    -0.274 OA
ATOM     22  H   UNL     1       2.929   4.242  -1.304  0.00  0.00    +0.155 HD
BRANCH  19  27
ATOM     23  C   UNL     1      -2.707   1.690  -0.704  0.00  0.00    +0.044 C 
ATOM     24  C   UNL     1      -1.407   2.452  -0.724  0.00  0.00    -0.047 A 
ATOM     25  C   UNL     1      -0.970   3.101   0.417  0.00  0.00    +0.005 A 
ATOM     26  C   UNL     1       0.218   3.805   0.401  0.00  0.00    +0.023 A 
ATOM     27  C   UNL     1       0.976   3.857  -0.762  0.00  0.00    +0.034 A 
ATOM     28  C   UNL     1       0.538   3.200  -1.904  0.00  0.00    +0.027 A 
ATOM     29  C   UNL     1      -0.651   2.498  -1.881  0.00  0.00    -0.046 A 
ATOM     30  C   UNL     1      -1.129   1.785  -3.119  0.00  0.00    +0.044 C 
ENDBRANCH  19  27
ENDBRANCH   1  20
TORSDOF 3
