REMARK  Name = ZINC16559322
REMARK  12 active torsions:
REMARK  status: ('A' for Active; 'I' for Inactive)
REMARK    1  A    between atoms: C_1  and  C_2
REMARK    2  A    between atoms: C_2  and  N_53
REMARK    3  A    between atoms: C_3  and  C_4
REMARK    4  A    between atoms: C_3  and  N_53
REMARK    5  A    between atoms: N_6  and  C_7
REMARK    6  A    between atoms: C_7  and  C_8
REMARK    7  A    between atoms: C_15  and  C_16
REMARK    8  A    between atoms: C_15  and  N_53
REMARK    9  A    between atoms: N_21  and  C_22
REMARK   10  A    between atoms: C_22  and  C_23
REMARK   11  A    between atoms: C_23  and  C_24
REMARK   12  A    between atoms: C_23  and  C_25
REMARK                            x       y       z     vdW  Elec       q    Type
REMARK                         _______ _______ _______ _____ _____    ______ ____
ROOT
ATOM      1  N   UNL     1       3.730   1.898  -0.003  0.00  0.00    +0.391 N 
ATOM      2  H   UNL     1       3.768   2.666  -0.684  0.00  0.00    -0.080 HD
ENDROOT
BRANCH   1   4
ATOM      3  C   UNL     1       3.348   1.340   2.375  0.00  0.00    -0.017 C 
ATOM      4  C   UNL     1       3.482   2.460   1.341  0.00  0.00    -0.081 C 
ENDBRANCH   1   4
BRANCH   1   5
ATOM      5  C   UNL     1       2.635   0.979  -0.376  0.00  0.00    +0.019 C 
BRANCH   5   6
ATOM      6  C   UNL     1       1.372   1.779  -0.567  0.00  0.00    +0.197 C 
ATOM      7  O   UNL     1       1.383   2.979  -0.393  0.00  0.00    -0.278 OA
ATOM      8  N   UNL     1       0.231   1.161  -0.930  0.00  0.00    -0.313 N 
ATOM      9  H   UNL     1       0.222   0.201  -1.069  0.00  0.00    +0.149 HD
BRANCH   8  10
ATOM     10  C   UNL     1      -0.995   1.940  -1.121  0.00  0.00    +0.139 C 
BRANCH  10  11
ATOM     11  C   UNL     1      -2.117   1.020  -1.529  0.00  0.00    -0.030 A 
ATOM     12  C   UNL     1      -2.350   0.766  -2.868  0.00  0.00    +0.008 A 
ATOM     13  C   UNL     1      -3.376  -0.081  -3.242  0.00  0.00    +0.038 A 
ATOM     14  C   UNL     1      -4.175  -0.669  -2.277  0.00  0.00    +0.123 A 
ATOM     15  C   UNL     1      -3.944  -0.410  -0.936  0.00  0.00    +0.038 A 
ATOM     16  C   UNL     1      -2.914   0.434  -0.564  0.00  0.00    +0.008 A 
ATOM     17  F   UNL     1      -5.181  -1.494  -2.642  0.00  0.00    -0.205 F 
ENDBRANCH  10  11
ENDBRANCH   8  10
ENDBRANCH   5   6
ENDBRANCH   1   5
BRANCH   1  18
ATOM     18  C   UNL     1       5.021   1.178  -0.019  0.00  0.00    +0.020 C 
BRANCH  18  19
ATOM     19  C   UNL     1       6.139   2.189   0.005  0.00  0.00    +0.204 C 
ATOM     20  O   UNL     1       5.887   3.373  -0.057  0.00  0.00    -0.277 OA
ATOM     21  N   UNL     1       7.419   1.776   0.096  0.00  0.00    -0.242 N 
ATOM     22  C   UNL     1       8.418   2.679   0.118  0.00  0.00    +0.306 C 
ATOM     23  O   UNL     1       8.166   3.867   0.056  0.00  0.00    -0.252 OA
ATOM     24  N   UNL     1       9.698   2.266   0.208  0.00  0.00    -0.299 N 
ATOM     25  H   UNL     1       7.620   0.828   0.145  0.00  0.00    +0.159 HD
ATOM     26  H   UNL     1       9.900   1.319   0.258  0.00  0.00    +0.150 HD
BRANCH  24  27
ATOM     27  C   UNL     1      10.785   3.249   0.232  0.00  0.00    +0.108 C 
BRANCH  27  28
ATOM     28  C   UNL     1      12.127   2.522   0.339  0.00  0.00    -0.000 C 
ATOM     29  C   UNL     1      13.267   3.538   0.238  0.00  0.00    +0.009 C 
ATOM     30  C   UNL     1      12.208   1.796   1.683  0.00  0.00    +0.009 C 
ENDBRANCH  27  28
ENDBRANCH  24  27
ENDBRANCH  18  19
ENDBRANCH   1  18
TORSDOF 9
