REMARK  Name = ZINC08723590
REMARK  3 active torsions:
REMARK  status: ('A' for Active; 'I' for Inactive)
REMARK    1  A    between atoms: C_9  and  C_11
REMARK    2  A    between atoms: C_12  and  C_13
REMARK    3  A    between atoms: C_17  and  C_26
REMARK                            x       y       z     vdW  Elec       q    Type
REMARK                         _______ _______ _______ _____ _____    ______ ____
ROOT
ATOM      1  C   UNL     1       3.475   6.199  -0.209  0.00  0.00    +0.244 C 
ATOM      2  O   UNL     1       2.428   5.582  -0.252  0.00  0.00    -0.270 OA
ATOM      3  N   UNL     1       3.467   7.524   0.037  0.00  0.00    -0.261 N 
ATOM      4  C   UNL     1       4.711   8.313   0.007  0.00  0.00    +0.168 C 
ATOM      5  C   UNL     1       4.673   9.284   1.196  0.00  0.00    +0.276 C 
ATOM      6  O   UNL     1       3.510  10.106   1.082  0.00  0.00    -0.476 OA
ATOM      7  C   UNL     1       2.320   9.491   0.854  0.00  0.00    +0.143 A 
ATOM      8  C   UNL     1       2.272   8.203   0.325  0.00  0.00    +0.079 A 
ATOM      9  C   UNL     1       1.052   7.588   0.098  0.00  0.00    +0.027 A 
ATOM     10  C   UNL     1      -0.122   8.258   0.391  0.00  0.00    +0.002 A 
ATOM     11  C   UNL     1      -0.078   9.537   0.914  0.00  0.00    +0.004 A 
ATOM     12  C   UNL     1       1.137  10.154   1.146  0.00  0.00    +0.047 A 
ENDROOT
BRANCH   5  13
ATOM     13  C   UNL     1       5.907  10.149   1.181  0.00  0.00    +0.258 C 
ATOM     14  O   UNL     1       5.812  11.336   0.951  0.00  0.00    -0.271 OA
ATOM     15  N   UNL     1       7.116   9.604   1.422  0.00  0.00    -0.294 N 
ATOM     16  C   UNL     1       7.246   8.188   1.800  0.00  0.00    +0.136 C 
ATOM     17  C   UNL     1       8.299   7.542   0.885  0.00  0.00    +0.179 C 
ATOM     18  O   UNL     1       9.497   8.322   0.926  0.00  0.00    -0.377 OA
ATOM     19  C   UNL     1       9.343   9.656   0.434  0.00  0.00    +0.179 C 
ATOM     20  C   UNL     1       8.344  10.408   1.321  0.00  0.00    +0.136 C 
ENDBRANCH   5  13
BRANCH   1  22
ATOM     21  C   UNL     1       4.766   4.162  -0.563  0.00  0.00    +0.033 C 
ATOM     22  C   UNL     1       4.748   5.501  -0.424  0.00  0.00    +0.070 C 
BRANCH  21  31
ATOM     23  C   UNL     1      10.782   2.302  -1.434  0.00  0.00    +0.001 A 
ATOM     24  C   UNL     1      10.719   3.687  -1.286  0.00  0.00    +0.002 A 
ATOM     25  C   UNL     1       9.531   4.318  -1.087  0.00  0.00    +0.028 A 
ATOM     26  C   UNL     1       8.341   3.566  -1.028  0.00  0.00    +0.072 A 
ATOM     27  C   UNL     1       8.409   2.156  -1.175  0.00  0.00    +0.000 A 
ATOM     28  C   UNL     1       9.654   1.541  -1.383  0.00  0.00    +0.010 A 
ATOM     29  C   UNL     1       7.221   1.402  -1.122  0.00  0.00    +0.012 A 
ATOM     30  C   UNL     1       6.045   2.062  -0.922  0.00  0.00    +0.028 A 
ATOM     31  C   UNL     1       6.044   3.461  -0.779  0.00  0.00    +0.065 A 
ATOM     32  N   UNL     1       7.164   4.160  -0.834  0.00  0.00    -0.247 NA
ENDBRANCH  21  31
ENDBRANCH   1  22
TORSDOF 3
