REMARK  Name = ZINC13348978
REMARK  7 active torsions:
REMARK  status: ('A' for Active; 'I' for Inactive)
REMARK    1  A    between atoms: C_1  and  C_2
REMARK    2  A    between atoms: C_5  and  S_8
REMARK    3  A    between atoms: S_8  and  N_11
REMARK    4  A    between atoms: C_17  and  N_21
REMARK    5  A    between atoms: N_24  and  C_25
REMARK    6  A    between atoms: C_28  and  O_31
REMARK    7  A    between atoms: O_31  and  C_32
REMARK                            x       y       z     vdW  Elec       q    Type
REMARK                         _______ _______ _______ _____ _____    ______ ____
ROOT
ATOM      1  N   UNL     1       7.994  10.606  -0.172  0.00  0.00    -0.194 N 
ATOM      2  C   UNL     1       6.984   9.664  -0.171  0.00  0.00    +0.179 A 
ATOM      3  N   UNL     1       7.079   8.355  -0.180  0.00  0.00    -0.224 NA
ATOM      4  C   UNL     1       5.993   7.548  -0.178  0.00  0.00    +0.080 A 
ATOM      5  C   UNL     1       5.958   6.135  -0.186  0.00  0.00    +0.031 A 
ATOM      6  C   UNL     1       4.765   5.462  -0.182  0.00  0.00    +0.025 A 
ATOM      7  C   UNL     1       3.549   6.141  -0.170  0.00  0.00    +0.036 A 
ATOM      8  C   UNL     1       3.549   7.529  -0.167  0.00  0.00    +0.040 A 
ATOM      9  C   UNL     1       4.742   8.206  -0.166  0.00  0.00    +0.043 A 
ATOM     10  S   UNL     1       5.215   9.918  -0.159  0.00  0.00    -0.051 S 
ATOM     11  H   UNL     1       7.776  11.551  -0.165  0.00  0.00    +0.176 HD
ENDROOT
BRANCH   7  12
ATOM     12  N   UNL     1       2.340   5.431  -0.167  0.00  0.00    -0.269 N 
ATOM     13  C   UNL     1       1.257   5.942  -0.784  0.00  0.00    +0.308 C 
ATOM     14  O   UNL     1       1.351   6.972  -1.424  0.00  0.00    -0.252 OA
ATOM     15  N   UNL     1       0.069   5.312  -0.693  0.00  0.00    -0.269 N 
ATOM     16  H   UNL     1       2.283   4.572   0.280  0.00  0.00    +0.156 HD
ATOM     17  H   UNL     1      -0.024   4.533  -0.123  0.00  0.00    +0.156 HD
BRANCH  15  18
ATOM     18  C   UNL     1      -1.032   5.782  -1.422  0.00  0.00    +0.035 A 
ATOM     19  C   UNL     1      -0.842   6.363  -2.669  0.00  0.00    +0.027 A 
ATOM     20  C   UNL     1      -1.927   6.825  -3.387  0.00  0.00    +0.047 A 
ATOM     21  C   UNL     1      -3.206   6.710  -2.864  0.00  0.00    +0.120 A 
ATOM     22  C   UNL     1      -3.396   6.130  -1.618  0.00  0.00    +0.047 A 
ATOM     23  C   UNL     1      -2.312   5.667  -0.898  0.00  0.00    +0.027 A 
BRANCH  21  24
ATOM     24  O   UNL     1      -4.274   7.166  -3.571  0.00  0.00    -0.495 OA
ATOM     25  C   UNL     1      -5.562   7.014  -2.971  0.00  0.00    +0.277 C 
ENDBRANCH  21  24
ENDBRANCH  15  18
ENDBRANCH   7  12
BRANCH   1  26
ATOM     26  S   UNL     1       9.577  10.121  -0.185  0.00  0.00    +0.074 S 
ATOM     27  O   UNL     1      10.364  11.305  -0.210  0.00  0.00    -0.150 OA
ATOM     28  O   UNL     1       9.710   9.140   0.834  0.00  0.00    -0.150 OA
BRANCH  26  33
ATOM     29  C   UNL     1      10.538   7.302  -5.432  0.00  0.00    +0.044 C 
ATOM     30  C   UNL     1      10.298   8.006  -4.122  0.00  0.00    -0.050 A 
ATOM     31  C   UNL     1      10.502   9.370  -4.022  0.00  0.00    +0.005 A 
ATOM     32  C   UNL     1      10.282  10.015  -2.820  0.00  0.00    +0.029 A 
ATOM     33  C   UNL     1       9.857   9.298  -1.718  0.00  0.00    +0.109 A 
ATOM     34  C   UNL     1       9.659   7.934  -1.815  0.00  0.00    +0.029 A 
ATOM     35  C   UNL     1       9.874   7.288  -3.019  0.00  0.00    +0.005 A 
ENDBRANCH  26  33
ENDBRANCH   1  26
TORSDOF 5
