REMARK  Name = ZINC12497543
REMARK  9 active torsions:
REMARK  status: ('A' for Active; 'I' for Inactive)
REMARK    1  A    between atoms: C_1  and  N_2
REMARK    2  A    between atoms: N_2  and  C_3
REMARK    3  A    between atoms: N_2  and  C_4
REMARK    4  A    between atoms: C_7  and  C_10
REMARK    5  A    between atoms: N_18  and  C_21
REMARK    6  A    between atoms: C_28  and  C_29
REMARK    7  A    between atoms: C_28  and  C_35
REMARK    8  A    between atoms: C_35  and  O_37
REMARK    9  A    between atoms: O_37  and  C_38
REMARK                            x       y       z     vdW  Elec       q    Type
REMARK                         _______ _______ _______ _____ _____    ______ ____
ROOT
ATOM      1  C   UNL     1       0.259   1.331   1.534  0.00  0.00    -0.026 C 
ATOM      2  C   UNL     1       0.685   1.054   0.152  0.00  0.00    +0.078 C 
ATOM      3  C   UNL     1       2.174   1.583   0.158  0.00  0.00    +0.090 C 
ATOM      4  C   UNL     1       2.546   1.009  -1.185  0.00  0.00    +0.230 C 
ATOM      5  O   UNL     1       3.622   0.562  -1.517  0.00  0.00    -0.275 OA
ATOM      6  N   UNL     1       1.419   1.099  -1.952  0.00  0.00    -0.207 N 
ATOM      7  C   UNL     1       0.286   1.314  -1.207  0.00  0.00    +0.229 C 
ATOM      8  O   UNL     1      -0.809   1.649  -1.606  0.00  0.00    -0.275 OA
ATOM      9  C   UNL     1       2.639   0.862   1.424  0.00  0.00    +0.070 C 
ATOM     10  N   UNL     1       1.449   0.837   2.314  0.00  0.00    +0.398 N 
ATOM     11  H   UNL     1       1.278  -0.123   2.636  0.00  0.00    -0.083 HD
ATOM     12  H   UNL     1       1.610   1.447   3.124  0.00  0.00    -0.083 HD
ENDROOT
BRANCH   6  13
ATOM     13  C   UNL     1       1.419   0.983  -3.350  0.00  0.00    +0.079 A 
ATOM     14  C   UNL     1       1.264  -0.262  -3.944  0.00  0.00    +0.027 A 
ATOM     15  C   UNL     1       1.260  -0.373  -5.321  0.00  0.00    +0.002 A 
ATOM     16  C   UNL     1       1.421   0.752  -6.109  0.00  0.00    +0.003 A 
ATOM     17  C   UNL     1       1.581   1.994  -5.521  0.00  0.00    +0.040 A 
ATOM     18  C   UNL     1       1.581   2.113  -4.143  0.00  0.00    +0.145 A 
ATOM     19  F   UNL     1       1.737   3.325  -3.569  0.00  0.00    -0.204 F 
ENDBRANCH   6  13
BRANCH   1  23
ATOM     20  C   UNL     1      -0.390   5.514   2.121  0.00  0.00    +0.029 A 
ATOM     21  C   UNL     1      -1.469   4.667   1.901  0.00  0.00    +0.023 A 
ATOM     22  C   UNL     1      -1.255   3.315   1.712  0.00  0.00    +0.004 A 
ATOM     23  C   UNL     1       0.030   2.806   1.741  0.00  0.00    -0.060 A 
ATOM     24  C   UNL     1       1.105   3.646   1.965  0.00  0.00    +0.004 A 
ATOM     25  C   UNL     1       0.900   4.999   2.150  0.00  0.00    +0.023 A 
BRANCH  20  27
ATOM     26  C   UNL     1      -1.967   7.405   2.405  0.00  0.00    +0.129 C 
ATOM     27  N   UNL     1      -0.602   6.881   2.313  0.00  0.00    -0.336 N 
ATOM     28  C   UNL     1       0.541   7.792   2.421  0.00  0.00    +0.129 C 
ENDBRANCH  20  27
ENDBRANCH   1  23
BRANCH   9  29
ATOM     29  C   UNL     1       3.078  -0.541   1.094  0.00  0.00    -0.047 A 
ATOM     30  C   UNL     1       2.184  -1.589   1.206  0.00  0.00    +0.003 A 
ATOM     31  C   UNL     1       2.585  -2.876   0.899  0.00  0.00    +0.000 A 
ATOM     32  C   UNL     1       3.884  -3.116   0.490  0.00  0.00    +0.000 A 
ATOM     33  C   UNL     1       4.779  -2.069   0.384  0.00  0.00    +0.000 A 
ATOM     34  C   UNL     1       4.377  -0.781   0.686  0.00  0.00    +0.003 A 
ENDBRANCH   9  29
BRANCH   9  35
ATOM     35  C   UNL     1       3.768   1.622   2.072  0.00  0.00    +0.301 C 
ATOM     36  O   UNL     1       4.467   2.349   1.406  0.00  0.00    -0.252 OA
BRANCH  35  37
ATOM     37  O   UNL     1       3.997   1.492   3.388  0.00  0.00    -0.469 OA
ATOM     38  C   UNL     1       5.100   2.254   3.944  0.00  0.00    +0.280 C 
ENDBRANCH  35  37
ENDBRANCH   9  35
TORSDOF 6
