REMARK  Name = ZINC40301593
REMARK  5 active torsions:
REMARK  status: ('A' for Active; 'I' for Inactive)
REMARK    1  A    between atoms: C_1  and  S_2
REMARK    2  A    between atoms: S_2  and  C_5
REMARK    3  A    between atoms: C_8  and  N_11
REMARK    4  A    between atoms: C_12  and  C_14
REMARK    5  A    between atoms: C_15  and  N_19
REMARK                            x       y       z     vdW  Elec       q    Type
REMARK                         _______ _______ _______ _____ _____    ______ ____
ROOT
ATOM      1  N   UNL     1       2.839  -1.461  -4.994  0.00  0.00    -0.281 N 
ATOM      2  C   UNL     1       4.024  -2.099  -4.934  0.00  0.00    +0.257 C 
ATOM      3  O   UNL     1       4.469  -2.458  -3.859  0.00  0.00    -0.269 OA
ATOM      4  H   UNL     1       2.449  -1.243  -5.855  0.00  0.00    +0.155 HD
ENDROOT
BRANCH   1   8
ATOM      5  C   UNL     1       0.854  -0.422  -1.483  0.00  0.00    +0.088 A 
ATOM      6  C   UNL     1       0.129  -0.770  -2.608  0.00  0.00    +0.029 A 
ATOM      7  C   UNL     1       0.784  -1.115  -3.774  0.00  0.00    +0.025 A 
ATOM      8  C   UNL     1       2.173  -1.112  -3.816  0.00  0.00    +0.034 A 
ATOM      9  C   UNL     1       2.897  -0.761  -2.684  0.00  0.00    +0.025 A 
ATOM     10  C   UNL     1       2.236  -0.413  -1.522  0.00  0.00    +0.029 A 
BRANCH   5  12
ATOM     11  C   UNL     1      -0.234   1.811  -0.116  0.00  0.00    +0.200 C 
ATOM     12  S   UNL     1       0.014   0.018   0.002  0.00  0.00    -0.006 S 
ATOM     13  O   UNL     1       0.935  -0.281   1.042  0.00  0.00    -0.170 OA
ATOM     14  O   UNL     1      -1.235  -0.655  -0.075  0.00  0.00    -0.170 OA
ENDBRANCH   5  12
ENDBRANCH   1   8
BRANCH   2  15
ATOM     15  C   UNL     1       4.752  -2.353  -6.121  0.00  0.00    +0.095 A 
ATOM     16  C   UNL     1       5.980  -2.997  -6.279  0.00  0.00    +0.044 A 
ATOM     17  C   UNL     1       6.436  -3.091  -7.580  0.00  0.00    +0.031 A 
ATOM     18  C   UNL     1       5.686  -2.571  -8.579  0.00  0.00    +0.048 A 
ATOM     19  S   UNL     1       4.335  -1.941  -7.804  0.00  0.00    -0.090 S 
BRANCH  16  20
ATOM     20  N   UNL     1       6.697  -3.507  -5.200  0.00  0.00    -0.357 N 
ATOM     21  H   UNL     1       6.345  -3.422  -4.300  0.00  0.00    +0.142 HD
ATOM     22  H   UNL     1       7.548  -3.949  -5.349  0.00  0.00    +0.142 HD
ENDBRANCH  16  20
ENDBRANCH   2  15
TORSDOF 4
