REMARK  Name = ZINC40317865
REMARK  6 active torsions:
REMARK  status: ('A' for Active; 'I' for Inactive)
REMARK    1  A    between atoms: C_1  and  C_2
REMARK    2  A    between atoms: C_3  and  N_20
REMARK    3  A    between atoms: C_5  and  C_7
REMARK    4  A    between atoms: N_9  and  C_10
REMARK    5  A    between atoms: C_15  and  S_16
REMARK    6  A    between atoms: S_16  and  C_19
REMARK                            x       y       z     vdW  Elec       q    Type
REMARK                         _______ _______ _______ _____ _____    ______ ____
ROOT
ATOM      1  C   UNL     1       1.192  -3.960  -0.610  0.00  0.00    +0.255 C 
ATOM      2  O   UNL     1       0.563  -4.851  -1.150  0.00  0.00    -0.269 OA
ATOM      3  N   UNL     1       2.379  -4.228  -0.031  0.00  0.00    -0.279 N 
ATOM      4  H   UNL     1       2.917  -3.505   0.328  0.00  0.00    +0.155 HD
ENDROOT
BRANCH   1   9
ATOM      5  C   UNL     1      -0.019   1.503  -0.034  0.00  0.00    +0.053 C 
ATOM      6  C   UNL     1       0.072   0.025  -0.317  0.00  0.00    +0.008 A 
ATOM      7  C   UNL     1      -0.815  -0.777  -0.976  0.00  0.00    +0.035 A 
ATOM      8  C   UNL     1      -0.528  -2.114  -1.122  0.00  0.00    +0.043 A 
ATOM      9  C   UNL     1       0.659  -2.595  -0.591  0.00  0.00    +0.076 A 
ATOM     10  S   UNL     1       1.372  -1.119   0.117  0.00  0.00    -0.087 S 
BRANCH   7  11
ATOM     11  N   UNL     1      -2.007  -0.243  -1.498  0.00  0.00    -0.357 N 
ATOM     12  H   UNL     1      -2.204   0.701  -1.391  0.00  0.00    +0.142 HD
ATOM     13  H   UNL     1      -2.633  -0.818  -1.965  0.00  0.00    +0.142 HD
ENDBRANCH   7  11
ENDBRANCH   1   9
BRANCH   3  14
ATOM     14  C   UNL     1       2.834  -5.547   0.053  0.00  0.00    +0.059 A 
ATOM     15  C   UNL     1       1.927  -6.599   0.038  0.00  0.00    +0.025 A 
ATOM     16  C   UNL     1       2.379  -7.901   0.120  0.00  0.00    +0.002 A 
ATOM     17  C   UNL     1       3.735  -8.158   0.217  0.00  0.00    +0.002 A 
ATOM     18  C   UNL     1       4.641  -7.114   0.233  0.00  0.00    +0.029 A 
ATOM     19  C   UNL     1       4.195  -5.809   0.145  0.00  0.00    +0.109 A 
BRANCH  19  20
ATOM     20  S   UNL     1       5.350  -4.479   0.157  0.00  0.00    -0.004 S 
ATOM     21  O   UNL     1       4.875  -3.595   1.162  0.00  0.00    -0.170 OA
ATOM     22  O   UNL     1       6.620  -5.104   0.284  0.00  0.00    -0.170 OA
ATOM     23  C   UNL     1       5.193  -3.710  -1.478  0.00  0.00    +0.200 C 
ENDBRANCH  19  20
ENDBRANCH   3  14
TORSDOF 4
