REMARK  Name = ZINC06764223
REMARK  5 active torsions:
REMARK  status: ('A' for Active; 'I' for Inactive)
REMARK    1  A    between atoms: C_1  and  C_2
REMARK    2  A    between atoms: C_2  and  C_23
REMARK    3  A    between atoms: C_7  and  N_11
REMARK    4  A    between atoms: C_8  and  C_9
REMARK    5  A    between atoms: N_14  and  C_15
REMARK                            x       y       z     vdW  Elec       q    Type
REMARK                         _______ _______ _______ _____ _____    ______ ____
ROOT
ATOM      1  C   UNL     1      -0.019   1.526   0.010  0.00  0.00    +0.041 C 
ATOM      2  C   UNL     1       0.002  -0.004   0.002  0.00  0.00    +0.068 C 
ATOM      3  C   UNL     1      -1.436  -0.531   0.020  0.00  0.00    +0.071 C 
ATOM      4  C   UNL     1      -1.390  -2.034  -0.232  0.00  0.00    -0.013 A 
ATOM      5  C   UNL     1      -0.278  -2.593  -0.764  0.00  0.00    +0.022 A 
ATOM      6  S   UNL     1      -0.652  -4.317  -0.881  0.00  0.00    -0.075 S 
ATOM      7  C   UNL     1      -2.260  -4.298  -0.235  0.00  0.00    +0.091 A 
ATOM      8  C   UNL     1      -2.470  -2.957   0.056  0.00  0.00    +0.084 A 
ATOM      9  C   UNL     1       0.973  -1.869  -1.153  0.00  0.00    +0.203 C 
ATOM     10  O   UNL     1       0.678  -0.463  -1.172  0.00  0.00    -0.368 OA
ATOM     11  C   UNL     1       0.743  -0.508   1.242  0.00  0.00    +0.041 C 
ENDROOT
BRANCH   7  12
ATOM     12  N   UNL     1      -3.129  -5.366  -0.054  0.00  0.00    -0.263 N 
ATOM     13  C   UNL     1      -2.747  -6.611  -0.400  0.00  0.00    +0.304 C 
ATOM     14  O   UNL     1      -1.642  -6.800  -0.871  0.00  0.00    -0.252 OA
ATOM     15  N   UNL     1      -3.590  -7.648  -0.223  0.00  0.00    -0.296 N 
ATOM     16  H   UNL     1      -4.128  -5.195   0.373  0.00  0.00    +0.157 HD
ATOM     17  H   UNL     1      -4.590  -7.478   0.203  0.00  0.00    +0.151 HD
BRANCH  15  18
ATOM     18  C   UNL     1      -3.175  -9.002  -0.599  0.00  0.00    +0.074 C 
ATOM     19  C   UNL     1      -3.448  -9.224  -2.088  0.00  0.00    +0.022 C 
ATOM     20  C   UNL     1      -3.014 -10.638  -2.481  0.00  0.00    +0.002 C 
ATOM     21  C   UNL     1      -3.804 -11.659  -1.660  0.00  0.00    +0.000 C 
ATOM     22  C   UNL     1      -3.531 -11.437  -0.171  0.00  0.00    +0.002 C 
ATOM     23  C   UNL     1      -3.965 -10.024   0.222  0.00  0.00    +0.022 C 
ENDBRANCH  15  18
ENDBRANCH   7  12
BRANCH   8  24
ATOM     24  C   UNL     1      -3.705  -2.503   0.620  0.00  0.00    +0.102 C 
ATOM     25  N   UNL     1      -4.685  -2.143   1.068  0.00  0.00    -0.191 NA
ENDBRANCH   8  24
TORSDOF 3
