REMARK  Name = ZINC09007370
REMARK  11 active torsions:
REMARK  status: ('A' for Active; 'I' for Inactive)
REMARK    1  A    between atoms: C_1  and  C_2
REMARK    2  A    between atoms: C_2  and  C_3
REMARK    3  A    between atoms: C_2  and  C_4
REMARK    4  A    between atoms: C_7  and  S_10
REMARK    5  A    between atoms: S_10  and  C_13
REMARK    6  A    between atoms: C_13  and  C_15
REMARK    7  A    between atoms: C_13  and  C_28
REMARK    8  A    between atoms: C_15  and  N_16
REMARK    9  A    between atoms: N_16  and  S_17
REMARK   10  A    between atoms: S_17  and  C_20
REMARK   11  A    between atoms: C_20  and  C_21
REMARK                            x       y       z     vdW  Elec       q    Type
REMARK                         _______ _______ _______ _____ _____    ______ ____
ROOT
ATOM      1  C   UNL     1       1.303  -2.153  -0.021  0.00  0.00    +0.183 C 
ENDROOT
BRANCH   1   2
ATOM      2  C   UNL     1       1.230  -0.647  -0.013  0.00  0.00    -0.004 A 
ATOM      3  C   UNL     1       0.002  -0.004   0.002  0.00  0.00    +0.008 A 
ATOM      4  C   UNL     1      -0.017   1.382   0.010  0.00  0.00    +0.020 A 
ATOM      5  C   UNL     1       1.181   2.072   0.002  0.00  0.00    +0.111 A 
ATOM      6  N   UNL     1       2.331   1.427  -0.013  0.00  0.00    -0.263 NA
ATOM      7  C   UNL     1       2.387   0.109  -0.020  0.00  0.00    +0.116 A 
ENDBRANCH   1   2
BRANCH   1   8
ATOM      8  S   UNL     1       2.201  -2.723   1.448  0.00  0.00    +0.005 S 
ATOM      9  O   UNL     1       2.125  -4.138   1.550  0.00  0.00    -0.169 OA
ATOM     10  O   UNL     1       3.452  -2.055   1.547  0.00  0.00    -0.169 OA
BRANCH   8  14
ATOM     11  C   UNL     1      -0.211  -1.183   4.955  0.00  0.00    -0.045 A 
ATOM     12  C   UNL     1      -0.486  -2.427   4.421  0.00  0.00    +0.006 A 
ATOM     13  C   UNL     1       0.251  -2.898   3.350  0.00  0.00    +0.027 A 
ATOM     14  C   UNL     1       1.262  -2.123   2.813  0.00  0.00    +0.089 A 
ATOM     15  C   UNL     1       1.540  -0.880   3.351  0.00  0.00    +0.027 A 
ATOM     16  C   UNL     1       0.801  -0.408   4.419  0.00  0.00    +0.006 A 
BRANCH  11  18
ATOM     17  C   UNL     1      -0.083  -0.407   7.307  0.00  0.00    +0.012 C 
ATOM     18  C   UNL     1      -1.015  -0.669   6.122  0.00  0.00    +0.013 C 
ATOM     19  C   UNL     1      -1.715   0.632   5.726  0.00  0.00    +0.012 C 
ENDBRANCH  11  18
ENDBRANCH   8  14
ENDBRANCH   1   8
BRANCH   1  20
ATOM     20  C   UNL     1       2.036  -2.621  -1.280  0.00  0.00    +0.137 C 
BRANCH  20  21
ATOM     21  N   UNL     1       2.107  -4.084  -1.288  0.00  0.00    -0.192 NA
ATOM     22  H   UNL     1       1.921  -4.583  -0.477  0.00  0.00    +0.148 HD
BRANCH  21  23
ATOM     23  S   UNL     1       2.505  -4.886  -2.682  0.00  0.00    +0.034 S 
ATOM     24  O   UNL     1       2.454  -6.263  -2.334  0.00  0.00    -0.158 OA
ATOM     25  O   UNL     1       1.630  -4.355  -3.668  0.00  0.00    -0.158 OA
BRANCH  23  26
ATOM     26  C   UNL     1       4.215  -4.392  -3.032  0.00  0.00    +0.223 C 
BRANCH  26  27
ATOM     27  C   UNL     1       4.685  -5.070  -4.293  0.00  0.00    +0.010 A 
ATOM     28  C   UNL     1       5.305  -6.304  -4.225  0.00  0.00    +0.008 A 
ATOM     29  C   UNL     1       5.731  -6.928  -5.382  0.00  0.00    +0.000 A 
ATOM     30  C   UNL     1       5.548  -6.316  -6.608  0.00  0.00    +0.003 A 
ATOM     31  C   UNL     1       4.933  -5.080  -6.678  0.00  0.00    +0.038 A 
ATOM     32  C   UNL     1       4.500  -4.456  -5.520  0.00  0.00    +0.128 A 
ATOM     33  F   UNL     1       3.900  -3.248  -5.587  0.00  0.00    -0.205 F 
ENDBRANCH  26  27
ENDBRANCH  23  26
ENDBRANCH  21  23
ENDBRANCH  20  21
ENDBRANCH   1  20
TORSDOF 9
