REMARK  Name = ZINC05600366
REMARK  19 active torsions:
REMARK  status: ('A' for Active; 'I' for Inactive)
REMARK    1  A    between atoms: C_3  and  C_7
REMARK    2  A    between atoms: C_7  and  C_8
REMARK    3  A    between atoms: C_8  and  C_9
REMARK    4  A    between atoms: C_9  and  C_10
REMARK    5  A    between atoms: C_10  and  C_11
REMARK    6  A    between atoms: C_11  and  C_12
REMARK    7  A    between atoms: C_12  and  C_13
REMARK    8  A    between atoms: C_13  and  C_14
REMARK    9  A    between atoms: C_14  and  C_15
REMARK   10  A    between atoms: C_15  and  C_16
REMARK   11  A    between atoms: C_16  and  C_17
REMARK   12  A    between atoms: C_17  and  C_18
REMARK   13  A    between atoms: C_18  and  C_19
REMARK   14  A    between atoms: C_19  and  O_20
REMARK   15  A    between atoms: O_20  and  C_21
REMARK   16  A    between atoms: C_21  and  C_22
REMARK   17  A    between atoms: C_22  and  C_24
REMARK   18  A    between atoms: C_22  and  O_26
REMARK   19  A    between atoms: C_24  and  O_25
REMARK                            x       y       z     vdW  Elec       q    Type
REMARK                         _______ _______ _______ _____ _____    ______ ____
ROOT
ATOM      1  C   UNL     1      -1.705   1.066  11.023  0.00  0.00    +0.000 C 
ENDROOT
BRANCH   1   2
ATOM      2  C   UNL     1      -0.839   0.613   9.847  0.00  0.00    +0.000 C 
BRANCH   2   3
ATOM      3  C   UNL     1      -1.417   1.169   8.544  0.00  0.00    +0.000 C 
BRANCH   3   4
ATOM      4  C   UNL     1      -0.550   0.716   7.367  0.00  0.00    +0.002 C 
BRANCH   4   5
ATOM      5  C   UNL     1      -1.129   1.272   6.064  0.00  0.00    +0.028 C 
BRANCH   5   6
ATOM      6  C   UNL     1      -0.262   0.819   4.887  0.00  0.00    +0.160 C 
BRANCH   6   7
ATOM      7  O   UNL     1      -0.802   1.338   3.670  0.00  0.00    -0.377 OA
BRANCH   7   8
ATOM      8  C   UNL     1      -0.064   0.971   2.503  0.00  0.00    +0.193 C 
BRANCH   8   9
ATOM      9  C   UNL     1      -0.729   1.579   1.267  0.00  0.00    +0.165 C 
BRANCH   9  10
ATOM     10  O   UNL     1      -0.647   3.004   1.334  0.00  0.00    -0.387 OA
ATOM     11  H   UNL     1       0.258   3.345   1.368  0.00  0.00    +0.210 HD
ENDBRANCH   9  10
BRANCH   9  12
ATOM     12  C   UNL     1      -0.013   1.086   0.008  0.00  0.00    +0.189 C 
BRANCH  12  13
ATOM     13  O   UNL     1      -0.704   1.559  -1.150  0.00  0.00    -0.392 OA
ATOM     14  H   UNL     1      -0.304   1.284  -1.986  0.00  0.00    +0.210 HD
ENDBRANCH  12  13
ENDBRANCH   9  12
ENDBRANCH   8   9
ENDBRANCH   7   8
ENDBRANCH   6   7
ENDBRANCH   5   6
ENDBRANCH   4   5
ENDBRANCH   3   4
ENDBRANCH   2   3
ENDBRANCH   1   2
BRANCH   1  15
ATOM     15  C   UNL     1      -1.127   0.510  12.326  0.00  0.00    -0.000 C 
BRANCH  15  16
ATOM     16  C   UNL     1      -1.993   0.963  13.503  0.00  0.00    -0.000 C 
BRANCH  16  17
ATOM     17  C   UNL     1      -1.415   0.407  14.806  0.00  0.00    +0.000 C 
BRANCH  17  18
ATOM     18  C   UNL     1      -2.281   0.860  15.983  0.00  0.00    +0.000 C 
BRANCH  18  19
ATOM     19  C   UNL     1      -1.703   0.304  17.286  0.00  0.00    +0.000 C 
BRANCH  19  20
ATOM     20  C   UNL     1      -2.569   0.757  18.462  0.00  0.00    +0.001 C 
BRANCH  20  21
ATOM     21  C   UNL     1      -1.991   0.201  19.765  0.00  0.00    +0.007 C 
BRANCH  21  24
ATOM     22  C   UNL     1      -3.550  -0.179  23.076  0.00  0.00    +0.027 C 
ATOM     23  C   UNL     1      -2.266   0.140  22.275  0.00  0.00    +0.011 C 
ATOM     24  C   UNL     1      -2.857   0.655  20.942  0.00  0.00    +0.012 C 
ATOM     25  C   UNL     1      -4.227   0.024  20.861  0.00  0.00    -0.028 C 
ATOM     26  C   UNL     1      -4.605  -0.431  22.024  0.00  0.00    -0.031 C 
ENDBRANCH  21  24
ENDBRANCH  20  21
ENDBRANCH  19  20
ENDBRANCH  18  19
ENDBRANCH  17  18
ENDBRANCH  16  17
ENDBRANCH  15  16
ENDBRANCH   1  15
TORSDOF 19
