REMARK  Name = ZINC40388652
REMARK  5 active torsions:
REMARK  status: ('A' for Active; 'I' for Inactive)
REMARK    1  A    between atoms: C_1  and  C_2
REMARK    2  A    between atoms: C_5  and  C_38
REMARK    3  A    between atoms: C_22  and  C_24
REMARK    4  A    between atoms: N_26  and  C_27
REMARK    5  A    between atoms: C_31  and  C_33
REMARK                            x       y       z     vdW  Elec       q    Type
REMARK                         _______ _______ _______ _____ _____    ______ ____
ROOT
ATOM      1  C   UNL     1      -2.900  -1.894   1.119  0.00  0.00    +0.009 C 
ATOM      2  C   UNL     1      -1.458  -1.425   1.324  0.00  0.00    +0.004 C 
ATOM      3  C   UNL     1      -1.355   0.067   1.001  0.00  0.00    +0.009 C 
ATOM      4  C   UNL     1       0.080   0.544   1.237  0.00  0.00    +0.004 C 
ATOM      5  C   UNL     1       1.027  -0.219   0.306  0.00  0.00    +0.111 C 
ATOM      6  N   UNL     1       0.830  -1.660   0.509  0.00  0.00    -0.301 N 
ATOM      7  C   UNL     1      -0.528  -2.211   0.395  0.00  0.00    +0.111 C 
ATOM      8  C   UNL     1       1.891  -2.476   0.798  0.00  0.00    +0.200 A 
ATOM      9  N   UNL     1       3.149  -1.958   0.788  0.00  0.00    -0.295 N 
ATOM     10  H   UNL     1       3.285  -1.019   0.590  0.00  0.00    +0.172 HD
ATOM     11  C   UNL     1       4.209  -2.752   1.055  0.00  0.00    +0.258 A 
ATOM     12  O   UNL     1       5.344  -2.304   1.033  0.00  0.00    -0.267 OA
ATOM     13  C   UNL     1       3.979  -4.098   1.356  0.00  0.00    +0.069 A 
ATOM     14  C   UNL     1       2.679  -4.572   1.373  0.00  0.00    +0.138 A 
ATOM     15  N   UNL     1       1.670  -3.742   1.085  0.00  0.00    -0.200 NA
ATOM     16  N   UNL     1       2.422  -5.889   1.711  0.00  0.00    -0.270 N 
ATOM     17  C   UNL     1       3.370  -6.657   2.272  0.00  0.00    +0.219 C 
ATOM     18  O   UNL     1       3.155  -7.836   2.459  0.00  0.00    -0.275 OA
ATOM     19  C   UNL     1       4.699  -6.072   2.672  0.00  0.00    +0.114 C 
ATOM     20  C   UNL     1       5.131  -5.023   1.646  0.00  0.00    +0.122 C 
ATOM     21  C   UNL     1       0.471   0.282   2.693  0.00  0.00    +0.009 C 
ATOM     22  H   UNL     1       1.543  -6.263   1.540  0.00  0.00    +0.156 HD
ENDROOT
BRANCH  20  23
ATOM     23  C   UNL     1       6.286  -4.227   2.196  0.00  0.00    +0.225 C 
ATOM     24  O   UNL     1       6.188  -3.682   3.275  0.00  0.00    -0.275 OA
ATOM     25  N   UNL     1       7.429  -4.122   1.490  0.00  0.00    -0.285 N 
ATOM     26  H   UNL     1       7.483  -4.495   0.596  0.00  0.00    +0.155 HD
BRANCH  25  27
ATOM     27  C   UNL     1       8.539  -3.476   2.047  0.00  0.00    +0.034 A 
ATOM     28  C   UNL     1       8.775  -3.552   3.413  0.00  0.00    +0.025 A 
ATOM     29  C   UNL     1       9.871  -2.913   3.960  0.00  0.00    +0.022 A 
ATOM     30  C   UNL     1      10.732  -2.197   3.148  0.00  0.00    +0.053 A 
ATOM     31  C   UNL     1      10.499  -2.119   1.786  0.00  0.00    +0.075 A 
ATOM     32  C   UNL     1       9.409  -2.762   1.233  0.00  0.00    +0.037 A 
ATOM     33 CL   UNL     1      12.108  -1.394   3.838  0.00  0.00    -0.083 Cl
BRANCH  31  34
ATOM     34  C   UNL     1      11.440  -1.339   0.904  0.00  0.00    +0.419 C 
ATOM     35  F   UNL     1      10.999  -1.406  -0.422  0.00  0.00    -0.166 F 
ATOM     36  F   UNL     1      11.467  -0.003   1.320  0.00  0.00    -0.166 F 
ATOM     37  F   UNL     1      12.725  -1.882   0.997  0.00  0.00    -0.166 F 
ENDBRANCH  31  34
ENDBRANCH  25  27
ENDBRANCH  20  23
TORSDOF 3
