REMARK  Name = ZINC16925227
REMARK  6 active torsions:
REMARK  status: ('A' for Active; 'I' for Inactive)
REMARK    1  A    between atoms: C_6  and  N_7
REMARK    2  A    between atoms: C_10  and  C_15
REMARK    3  A    between atoms: C_15  and  C_16
REMARK    4  A    between atoms: N_18  and  C_19
REMARK    5  A    between atoms: C_21  and  C_27
REMARK    6  A    between atoms: C_23  and  C_25
REMARK                            x       y       z     vdW  Elec       q    Type
REMARK                         _______ _______ _______ _____ _____    ______ ____
ROOT
ATOM      1  C   UNL     1       4.858  -0.059  -0.266  0.00  0.00    +0.219 C 
ATOM      2  O   UNL     1       4.979   0.804   0.577  0.00  0.00    -0.275 OA
ATOM      3  N   UNL     1       5.881  -0.336  -1.100  0.00  0.00    -0.285 N 
ATOM      4  H   UNL     1       5.762  -0.978  -1.817  0.00  0.00    +0.155 HD
ENDROOT
BRANCH   3   5
ATOM      5  C   UNL     1       7.114   0.305  -0.930  0.00  0.00    +0.035 A 
ATOM      6  C   UNL     1       7.156   1.625  -0.507  0.00  0.00    +0.038 A 
ATOM      7  C   UNL     1       8.385   2.265  -0.332  0.00  0.00    +0.066 A 
ATOM      8  C   UNL     1       9.569   1.579  -0.593  0.00  0.00    +0.030 A 
ATOM      9  C   UNL     1       9.523   0.254  -1.023  0.00  0.00    +0.066 A 
ATOM     10  C   UNL     1       8.291  -0.381  -1.191  0.00  0.00    +0.038 A 
BRANCH   9  11
ATOM     11  C   UNL     1      10.776  -0.477  -1.302  0.00  0.00    +0.387 C 
ATOM     12  O   UNL     1      10.735  -1.632  -1.677  0.00  0.00    -0.241 OA
ATOM     13  O   UNL     1      11.965   0.137  -1.140  0.00  0.00    -0.241 OA
ENDBRANCH   9  11
BRANCH   7  14
ATOM     14  C   UNL     1       8.428   3.670   0.124  0.00  0.00    +0.387 C 
ATOM     15  O   UNL     1       7.396   4.267   0.352  0.00  0.00    -0.241 OA
ATOM     16  O   UNL     1       9.614   4.288   0.288  0.00  0.00    -0.241 OA
ENDBRANCH   7  14
ENDBRANCH   3   5
BRANCH   1  17
ATOM     17  C   UNL     1       3.564  -0.824  -0.382  0.00  0.00    +0.120 C 
BRANCH  17  21
ATOM     18  N   UNL     1       0.195  -0.482   0.373  0.00  0.00    -0.200 N 
ATOM     19  C   UNL     1       1.299  -1.145   0.675  0.00  0.00    +0.241 C 
ATOM     20  O   UNL     1       1.293  -2.329   0.936  0.00  0.00    -0.274 OA
ATOM     21  C   UNL     1       2.578  -0.319   0.673  0.00  0.00    +0.151 C 
ATOM     22  S   UNL     1       1.891   1.323   0.214  0.00  0.00    -0.054 S 
ATOM     23  C   UNL     1       0.178   0.832   0.081  0.00  0.00    +0.286 C 
ATOM     24  O   UNL     1      -0.779   1.523  -0.210  0.00  0.00    -0.262 OA
BRANCH  18  30
ATOM     25  C   UNL     1      -1.467  -1.772  -0.817  0.00  0.00    +0.025 A 
ATOM     26  C   UNL     1      -2.661  -2.466  -0.828  0.00  0.00    +0.022 A 
ATOM     27  C   UNL     1      -3.415  -2.567   0.327  0.00  0.00    +0.041 A 
ATOM     28  C   UNL     1      -2.974  -1.976   1.498  0.00  0.00    +0.022 A 
ATOM     29  C   UNL     1      -1.778  -1.285   1.516  0.00  0.00    +0.025 A 
ATOM     30  C   UNL     1      -1.019  -1.183   0.358  0.00  0.00    +0.045 A 
ATOM     31 CL   UNL     1      -4.919  -3.434   0.308  0.00  0.00    -0.084 Cl
ENDBRANCH  18  30
ENDBRANCH  17  21
ENDBRANCH   1  17
TORSDOF 6
