REMARK  Name = ZINC57425676
REMARK  9 active torsions:
REMARK  status: ('A' for Active; 'I' for Inactive)
REMARK    1  A    between atoms: C_1  and  O_2
REMARK    2  A    between atoms: O_2  and  C_3
REMARK    3  A    between atoms: C_3  and  C_4
REMARK    4  A    between atoms: C_4  and  N_5
REMARK    5  A    between atoms: C_14  and  S_15
REMARK    6  A    between atoms: S_15  and  C_16
REMARK    7  A    between atoms: C_16  and  C_17
REMARK    8  A    between atoms: N_19  and  C_20
REMARK    9  A    between atoms: C_24  and  C_26
REMARK                            x       y       z     vdW  Elec       q    Type
REMARK                         _______ _______ _______ _____ _____    ______ ____
ROOT
ATOM      1  S   UNL     1       3.501  -2.641   1.525  0.00  0.00    -0.078 S 
ENDROOT
BRANCH   1  11
ATOM      2  N   UNL     1       1.399  -2.543  -0.160  0.00  0.00    -0.285 N 
ATOM      3  C   UNL     1       0.795  -2.670  -1.367  0.00  0.00    +0.269 A 
ATOM      4  O   UNL     1      -0.392  -2.426  -1.500  0.00  0.00    -0.266 OA
ATOM      5  C   UNL     1       1.567  -3.084  -2.449  0.00  0.00    +0.102 A 
ATOM      6  C   UNL     1       2.937  -3.368  -2.312  0.00  0.00    +0.086 A 
ATOM      7  C   UNL     1       3.589  -3.776  -3.485  0.00  0.00    +0.036 A 
ATOM      8  C   UNL     1       2.904  -3.874  -4.644  0.00  0.00    +0.048 A 
ATOM      9  S   UNL     1       1.253  -3.391  -4.168  0.00  0.00    -0.090 S 
ATOM     10  N   UNL     1       3.461  -3.213  -1.060  0.00  0.00    -0.222 NA
ATOM     11  C   UNL     1       2.732  -2.819  -0.050  0.00  0.00    +0.173 A 
BRANCH   2  12
ATOM     12  C   UNL     1       0.632  -2.110   1.010  0.00  0.00    +0.155 C 
BRANCH  12  13
ATOM     13  C   UNL     1       0.675  -0.584   1.112  0.00  0.00    +0.181 C 
BRANCH  13  15
ATOM     14  C   UNL     1      -0.014   1.416  -0.015  0.00  0.00    +0.194 C 
ATOM     15  O   UNL     1       0.003  -0.013  -0.013  0.00  0.00    -0.381 OA
ENDBRANCH  13  15
ENDBRANCH  12  13
ENDBRANCH   2  12
ENDBRANCH   1  11
BRANCH   1  16
ATOM     16  C   UNL     1       5.231  -3.098   1.223  0.00  0.00    +0.173 C 
BRANCH  16  17
ATOM     17  C   UNL     1       6.011  -2.988   2.508  0.00  0.00    +0.227 C 
ATOM     18  O   UNL     1       5.455  -2.636   3.527  0.00  0.00    -0.275 OA
ATOM     19  N   UNL     1       7.327  -3.280   2.524  0.00  0.00    -0.285 N 
ATOM     20  H   UNL     1       7.757  -3.626   1.726  0.00  0.00    +0.155 HD
BRANCH  19  21
ATOM     21  C   UNL     1       8.072  -3.086   3.692  0.00  0.00    +0.034 A 
ATOM     22  C   UNL     1       9.393  -2.664   3.613  0.00  0.00    +0.023 A 
ATOM     23  C   UNL     1      10.126  -2.473   4.767  0.00  0.00    +0.002 A 
ATOM     24  C   UNL     1       9.546  -2.701   6.002  0.00  0.00    +0.012 A 
ATOM     25  C   UNL     1       8.231  -3.122   6.085  0.00  0.00    +0.057 A 
ATOM     26  C   UNL     1       7.491  -3.308   4.934  0.00  0.00    +0.035 A 
BRANCH  25  27
ATOM     27  C   UNL     1       7.604  -3.370   7.432  0.00  0.00    +0.417 C 
ATOM     28  F   UNL     1       8.540  -3.109   8.438  0.00  0.00    -0.166 F 
ATOM     29  F   UNL     1       6.499  -2.527   7.594  0.00  0.00    -0.166 F 
ATOM     30  F   UNL     1       7.189  -4.703   7.515  0.00  0.00    -0.166 F 
ENDBRANCH  25  27
ENDBRANCH  19  21
ENDBRANCH  16  17
ENDBRANCH   1  16
TORSDOF 8
