REMARK  Name = ZINC65305033
REMARK  5 active torsions:
REMARK  status: ('A' for Active; 'I' for Inactive)
REMARK    1  A    between atoms: C_4  and  N_11
REMARK    2  A    between atoms: C_5  and  C_7
REMARK    3  A    between atoms: C_12  and  C_14
REMARK    4  A    between atoms: C_14  and  N_15
REMARK    5  A    between atoms: C_25  and  C_29
REMARK                            x       y       z     vdW  Elec       q    Type
REMARK                         _______ _______ _______ _____ _____    ______ ____
ROOT
ATOM      1  N   UNL     1       7.180   0.264  -0.382  0.00  0.00    -0.302 N 
ATOM      2  C   UNL     1       7.675   0.809  -1.560  0.00  0.00    +0.069 A 
ATOM      3  C   UNL     1       7.336   0.643  -2.896  0.00  0.00    +0.028 A 
ATOM      4  C   UNL     1       8.024   1.336  -3.871  0.00  0.00    +0.002 A 
ATOM      5  C   UNL     1       9.052   2.197  -3.524  0.00  0.00    +0.002 A 
ATOM      6  C   UNL     1       9.397   2.369  -2.199  0.00  0.00    +0.028 A 
ATOM      7  C   UNL     1       8.711   1.677  -1.210  0.00  0.00    +0.076 A 
ATOM      8  N   UNL     1       8.827   1.644   0.178  0.00  0.00    -0.246 N 
ATOM      9  C   UNL     1       7.888   0.788   0.667  0.00  0.00    +0.197 A 
ATOM     10  N   UNL     1       7.778   0.574   1.968  0.00  0.00    -0.326 N 
ATOM     11  C   UNL     1       8.574   1.189   2.847  0.00  0.00    +0.054 A 
ATOM     12  C   UNL     1       9.544   2.074   2.397  0.00  0.00    +0.097 A 
ATOM     13  C   UNL     1       9.663   2.291   1.017  0.00  0.00    +0.260 A 
ATOM     14  O   UNL     1      10.502   3.064   0.582  0.00  0.00    -0.267 OA
ATOM     15  H   UNL     1       7.103  -0.043   2.291  0.00  0.00    +0.169 HD
ENDROOT
BRANCH  11  16
ATOM     16  C   UNL     1       8.423   0.927   4.299  0.00  0.00    +0.001 A 
ATOM     17  C   UNL     1       7.455   0.035   4.770  0.00  0.00    +0.029 A 
ATOM     18  C   UNL     1       7.348  -0.179   6.130  0.00  0.00    +0.111 A 
ATOM     19  N   UNL     1       8.142   0.444   6.978  0.00  0.00    -0.263 NA
ATOM     20  C   UNL     1       9.068   1.293   6.575  0.00  0.00    +0.111 A 
ATOM     21  C   UNL     1       9.247   1.562   5.233  0.00  0.00    +0.029 A 
ENDBRANCH  11  16
BRANCH   1  22
ATOM     22  C   UNL     1       6.083  -0.701  -0.278  0.00  0.00    +0.221 C 
BRANCH  22  24
ATOM     23  N   UNL     1       3.622  -0.651  -0.037  0.00  0.00    -0.284 N 
ATOM     24  C   UNL     1       4.775   0.037  -0.147  0.00  0.00    +0.237 C 
ATOM     25  O   UNL     1       4.761   1.250  -0.141  0.00  0.00    -0.274 OA
ATOM     26  H   UNL     1       3.639  -1.618   0.038  0.00  0.00    +0.155 HD
BRANCH  23  30
ATOM     27  C   UNL     1      -0.019   1.375  -0.023  0.00  0.00    +0.001 A 
ATOM     28  C   UNL     1       1.087   1.947  -0.626  0.00  0.00    +0.002 A 
ATOM     29  C   UNL     1       2.295   1.278  -0.633  0.00  0.00    +0.024 A 
ATOM     30  C   UNL     1       2.399   0.030  -0.032  0.00  0.00    +0.045 A 
ATOM     31  C   UNL     1       1.287  -0.541   0.573  0.00  0.00    +0.076 A 
ATOM     32  C   UNL     1       0.082   0.133   0.576  0.00  0.00    +0.014 A 
BRANCH  31  33
ATOM     33  C   UNL     1       1.396  -1.895   1.226  0.00  0.00    +0.419 C 
ATOM     34  F   UNL     1       0.155  -2.255   1.761  0.00  0.00    -0.166 F 
ATOM     35  F   UNL     1       1.785  -2.842   0.273  0.00  0.00    -0.166 F 
ATOM     36  F   UNL     1       2.349  -1.845   2.249  0.00  0.00    -0.166 F 
ENDBRANCH  31  33
ENDBRANCH  23  30
ENDBRANCH  22  24
ENDBRANCH   1  22
TORSDOF 5
