REMARK  Name = ZINC40703799
REMARK  8 active torsions:
REMARK  status: ('A' for Active; 'I' for Inactive)
REMARK    1  A    between atoms: C_1  and  C_2
REMARK    2  A    between atoms: C_5  and  N_9
REMARK    3  A    between atoms: C_11  and  N_33
REMARK    4  A    between atoms: C_12  and  N_16
REMARK    5  A    between atoms: N_16  and  N_17
REMARK    6  A    between atoms: C_18  and  C_20
REMARK    7  A    between atoms: C_20  and  C_21
REMARK    8  A    between atoms: C_20  and  C_27
REMARK                            x       y       z     vdW  Elec       q    Type
REMARK                         _______ _______ _______ _____ _____    ______ ____
ROOT
ATOM      1  N   UNL     1      -0.199  -3.150   1.829  0.00  0.00    -0.298 N 
ATOM      2  C   UNL     1       0.042  -4.112   2.804  0.00  0.00    +0.149 A 
ATOM      3  C   UNL     1       0.080  -5.467   2.468  0.00  0.00    +0.107 A 
ATOM      4  C   UNL     1       0.326  -6.391   3.485  0.00  0.00    +0.161 A 
ATOM      5  N   UNL     1       0.514  -5.949   4.726  0.00  0.00    -0.217 NA
ATOM      6  C   UNL     1       0.471  -4.661   5.000  0.00  0.00    +0.225 A 
ATOM      7  N   UNL     1       0.246  -3.756   4.070  0.00  0.00    -0.219 NA
ATOM      8  H   UNL     1      -0.421  -3.421   0.925  0.00  0.00    +0.154 HD
ENDROOT
BRANCH   1  13
ATOM      9  C   UNL     1       0.122   2.358   3.145  0.00  0.00    +0.045 C 
ATOM     10  C   UNL     1       0.036   0.895   2.795  0.00  0.00    -0.032 A 
ATOM     11  C   UNL     1       0.865  -0.015   3.426  0.00  0.00    +0.006 A 
ATOM     12  C   UNL     1       0.790  -1.357   3.108  0.00  0.00    +0.023 A 
ATOM     13  C   UNL     1      -0.120  -1.793   2.153  0.00  0.00    +0.034 A 
ATOM     14  C   UNL     1      -0.952  -0.878   1.521  0.00  0.00    +0.043 A 
ATOM     15  C   UNL     1      -0.875   0.464   1.847  0.00  0.00    +0.046 A 
ATOM     16 CL   UNL     1      -1.918   1.608   1.063  0.00  0.00    -0.083 Cl
ENDBRANCH   1  13
BRANCH   3  17
ATOM     17  N   UNL     1      -0.126  -5.888   1.145  0.00  0.00    -0.353 N 
ATOM     18  H   UNL     1      -0.296  -5.235   0.449  0.00  0.00    +0.143 HD
ATOM     19  H   UNL     1      -0.097  -6.833   0.926  0.00  0.00    +0.143 HD
ENDBRANCH   3  17
BRANCH   4  20
ATOM     20  N   UNL     1       0.373  -7.752   3.206  0.00  0.00    -0.247 N 
ATOM     21  H   UNL     1       0.234  -8.066   2.299  0.00  0.00    +0.172 HD
BRANCH  20  22
ATOM     22  N   UNL     1       0.621  -8.670   4.234  0.00  0.00    -0.235 N 
ATOM     23  C   UNL     1       0.666  -9.990   3.963  0.00  0.00    +0.241 C 
ATOM     24  O   UNL     1       0.493 -10.382   2.829  0.00  0.00    -0.273 OA
ATOM     25  H   UNL     1       0.759  -8.356   5.142  0.00  0.00    +0.173 HD
BRANCH  23  26
ATOM     26  C   UNL     1       0.933 -10.977   5.070  0.00  0.00    +0.136 C 
BRANCH  26  27
ATOM     27  C   UNL     1      -0.142 -10.858   6.120  0.00  0.00    -0.031 A 
ATOM     28  C   UNL     1      -1.474 -10.872   5.750  0.00  0.00    +0.005 A 
ATOM     29  C   UNL     1      -2.460 -10.763   6.712  0.00  0.00    +0.000 A 
ATOM     30  C   UNL     1      -2.114 -10.640   8.045  0.00  0.00    +0.000 A 
ATOM     31  C   UNL     1      -0.782 -10.627   8.415  0.00  0.00    +0.000 A 
ATOM     32  C   UNL     1       0.203 -10.741   7.453  0.00  0.00    +0.005 A 
ENDBRANCH  26  27
BRANCH  26  33
ATOM     33  C   UNL     1       0.932 -12.375   4.507  0.00  0.00    -0.031 A 
ATOM     34  C   UNL     1      -0.142 -12.818   3.758  0.00  0.00    +0.005 A 
ATOM     35  C   UNL     1      -0.143 -14.100   3.241  0.00  0.00    +0.000 A 
ATOM     36  C   UNL     1       0.931 -14.939   3.473  0.00  0.00    +0.000 A 
ATOM     37  C   UNL     1       2.006 -14.496   4.221  0.00  0.00    +0.000 A 
ATOM     38  C   UNL     1       2.008 -13.213   4.734  0.00  0.00    +0.005 A 
ENDBRANCH  26  33
ENDBRANCH  23  26
ENDBRANCH  20  22
ENDBRANCH   4  20
TORSDOF 7
