REMARK  Name = ZINC02059234
REMARK  10 active torsions:
REMARK  status: ('A' for Active; 'I' for Inactive)
REMARK    1  A    between atoms: C_1  and  C_2
REMARK    2  A    between atoms: C_3  and  C_21
REMARK    3  A    between atoms: C_4  and  C_11
REMARK    4  A    between atoms: N_9  and  C_10
REMARK    5  A    between atoms: C_13  and  O_19
REMARK    6  A    between atoms: C_14  and  O_18
REMARK    7  A    between atoms: O_19  and  C_20
REMARK    8  A    between atoms: C_21  and  O_23
REMARK    9  A    between atoms: O_23  and  C_24
REMARK   10  A    between atoms: C_24  and  C_25
REMARK                            x       y       z     vdW  Elec       q    Type
REMARK                         _______ _______ _______ _____ _____    ______ ____
ROOT
ATOM      1  C   UNL     1       6.215   2.792   0.923  0.00  0.00    +0.061 C 
ATOM      2  C   UNL     1       5.667   1.710   1.817  0.00  0.00    +0.024 C 
ATOM      3  C   UNL     1       4.416   1.246   1.608  0.00  0.00    +0.078 C 
ATOM      4  C   UNL     1       3.907   0.153   2.526  0.00  0.00    +0.144 C 
ATOM      5  N   UNL     1       4.822  -0.312   3.582  0.00  0.00    -0.288 N 
ATOM      6  C   UNL     1       6.042   0.254   3.668  0.00  0.00    +0.307 C 
ATOM      7  O   UNL     1       6.805  -0.122   4.537  0.00  0.00    -0.252 OA
ATOM      8  N   UNL     1       6.441   1.218   2.830  0.00  0.00    -0.262 N 
ATOM      9  C   UNL     1       7.786   1.773   3.003  0.00  0.00    +0.139 C 
ATOM     10  H   UNL     1       4.553  -1.009   4.201  0.00  0.00    +0.151 HD
ENDROOT
BRANCH   4  11
ATOM     11  C   UNL     1       3.538  -1.035   1.675  0.00  0.00    -0.018 A 
ATOM     12  C   UNL     1       2.208  -1.317   1.424  0.00  0.00    +0.055 A 
ATOM     13  C   UNL     1       1.867  -2.405   0.636  0.00  0.00    +0.163 A 
ATOM     14  C   UNL     1       2.866  -3.219   0.110  0.00  0.00    +0.173 A 
ATOM     15  C   UNL     1       4.197  -2.934   0.369  0.00  0.00    +0.063 A 
ATOM     16  C   UNL     1       4.530  -1.842   1.151  0.00  0.00    +0.025 A 
ATOM     17 BR   UNL     1       5.557  -4.036  -0.345  0.00  0.00    -0.046 Br
BRANCH  14  18
ATOM     18  O   UNL     1       2.536  -4.292  -0.659  0.00  0.00    -0.503 OA
ATOM     19  H   UNL     1       2.408  -5.109  -0.159  0.00  0.00    +0.292 HD
ENDBRANCH  14  18
BRANCH  13  20
ATOM     20  O   UNL     1       0.560  -2.681   0.384  0.00  0.00    -0.491 OA
ATOM     21  C   UNL     1      -0.407  -1.756   0.886  0.00  0.00    +0.277 C 
ENDBRANCH  13  20
ENDBRANCH   4  11
BRANCH   3  22
ATOM     22  C   UNL     1       3.611   1.758   0.564  0.00  0.00    +0.339 C 
ATOM     23  O   UNL     1       2.751   2.583   0.808  0.00  0.00    -0.245 OA
BRANCH  22  24
ATOM     24  O   UNL     1       3.797   1.332  -0.703  0.00  0.00    -0.457 OA
BRANCH  24  25
ATOM     25  C   UNL     1       3.008   1.954  -1.719  0.00  0.00    +0.259 C 
BRANCH  25  26
ATOM     26  C   UNL     1       3.277   1.286  -3.043  0.00  0.00    +0.006 C 
ATOM     27  C   UNL     1       2.279   0.941  -3.817  0.00  0.00    +0.007 C 
ENDBRANCH  25  26
ENDBRANCH  24  25
ENDBRANCH  22  24
ENDBRANCH   3  22
TORSDOF 7
