REMARK  Name = ZINC40759482
REMARK  11 active torsions:
REMARK  status: ('A' for Active; 'I' for Inactive)
REMARK    1  A    between atoms: C_1  and  C_2
REMARK    2  A    between atoms: C_2  and  N_3
REMARK    3  A    between atoms: N_3  and  C_4
REMARK    4  A    between atoms: N_3  and  S_6
REMARK    5  A    between atoms: C_4  and  C_5
REMARK    6  A    between atoms: S_6  and  C_9
REMARK    7  A    between atoms: C_12  and  N_15
REMARK    8  A    between atoms: C_17  and  N_33
REMARK    9  A    between atoms: C_18  and  N_22
REMARK   10  A    between atoms: N_22  and  N_23
REMARK   11  A    between atoms: C_24  and  C_26
REMARK                            x       y       z     vdW  Elec       q    Type
REMARK                         _______ _______ _______ _____ _____    ______ ____
ROOT
ATOM      1  N   UNL     1      -4.801   3.930   3.503  0.00  0.00    -0.298 N 
ATOM      2  C   UNL     1      -6.086   4.244   3.075  0.00  0.00    +0.149 A 
ATOM      3  C   UNL     1      -6.693   5.439   3.466  0.00  0.00    +0.107 A 
ATOM      4  C   UNL     1      -7.984   5.704   3.008  0.00  0.00    +0.161 A 
ATOM      5  N   UNL     1      -8.584   4.814   2.220  0.00  0.00    -0.217 NA
ATOM      6  C   UNL     1      -7.976   3.697   1.874  0.00  0.00    +0.225 A 
ATOM      7  N   UNL     1      -6.756   3.411   2.281  0.00  0.00    -0.219 NA
ATOM      8  H   UNL     1      -4.350   4.504   4.142  0.00  0.00    +0.154 HD
ENDROOT
BRANCH   1  12
ATOM      9  C   UNL     1      -2.889   0.532   2.042  0.00  0.00    +0.106 A 
ATOM     10  C   UNL     1      -3.767   1.231   1.233  0.00  0.00    +0.030 A 
ATOM     11  C   UNL     1      -4.402   2.358   1.715  0.00  0.00    +0.025 A 
ATOM     12  C   UNL     1      -4.160   2.790   3.013  0.00  0.00    +0.033 A 
ATOM     13  C   UNL     1      -3.278   2.085   3.822  0.00  0.00    +0.025 A 
ATOM     14  C   UNL     1      -2.649   0.956   3.336  0.00  0.00    +0.030 A 
BRANCH   9  15
ATOM     15  S   UNL     1      -2.080  -0.906   1.423  0.00  0.00    +0.061 S 
ATOM     16  O   UNL     1      -0.898  -1.070   2.195  0.00  0.00    -0.153 OA
ATOM     17  O   UNL     1      -2.054  -0.781   0.008  0.00  0.00    -0.153 OA
BRANCH  15  18
ATOM     18  N   UNL     1      -3.053  -2.201   1.766  0.00  0.00    -0.177 NA
BRANCH  18  20
ATOM     19  C   UNL     1      -5.415  -1.987   1.167  0.00  0.00    +0.022 C 
ATOM     20  C   UNL     1      -4.073  -2.627   0.804  0.00  0.00    +0.106 C 
ENDBRANCH  18  20
BRANCH  18  21
ATOM     21  C   UNL     1      -2.894  -2.922   3.032  0.00  0.00    +0.106 C 
ATOM     22  C   UNL     1      -1.980  -4.130   2.820  0.00  0.00    +0.022 C 
ENDBRANCH  18  21
ENDBRANCH  15  18
ENDBRANCH   9  15
ENDBRANCH   1  12
BRANCH   3  23
ATOM     23  N   UNL     1      -6.022   6.349   4.299  0.00  0.00    -0.353 N 
ATOM     24  H   UNL     1      -5.125   6.151   4.611  0.00  0.00    +0.143 HD
ATOM     25  H   UNL     1      -6.455   7.175   4.563  0.00  0.00    +0.143 HD
ENDBRANCH   3  23
BRANCH   4  26
ATOM     26  N   UNL     1      -8.634   6.879   3.368  0.00  0.00    -0.247 N 
ATOM     27  H   UNL     1      -8.190   7.522   3.942  0.00  0.00    +0.172 HD
BRANCH  26  28
ATOM     28  N   UNL     1      -9.930   7.134   2.901  0.00  0.00    -0.231 N 
ATOM     29  C   UNL     1     -10.559   8.273   3.250  0.00  0.00    +0.263 C 
ATOM     30  O   UNL     1     -10.003   9.079   3.970  0.00  0.00    -0.269 OA
ATOM     31  H   UNL     1     -10.374   6.491   2.327  0.00  0.00    +0.173 HD
BRANCH  29  32
ATOM     32  C   UNL     1     -11.926   8.542   2.758  0.00  0.00    +0.073 A 
ATOM     33  C   UNL     1     -12.571   7.616   1.936  0.00  0.00    +0.016 A 
ATOM     34  C   UNL     1     -13.846   7.873   1.480  0.00  0.00    +0.001 A 
ATOM     35  C   UNL     1     -14.490   9.046   1.835  0.00  0.00    +0.003 A 
ATOM     36  C   UNL     1     -13.860   9.970   2.648  0.00  0.00    +0.039 A 
ATOM     37  C   UNL     1     -12.583   9.723   3.119  0.00  0.00    +0.136 A 
ATOM     38  F   UNL     1     -11.969  10.623   3.918  0.00  0.00    -0.205 F 
ENDBRANCH  29  32
ENDBRANCH  26  28
ENDBRANCH   4  26
TORSDOF 9
