REMARK  Name = ZINC66165513
REMARK  15 active torsions:
REMARK  status: ('A' for Active; 'I' for Inactive)
REMARK    1  A    between atoms: C_1  and  C_2
REMARK    2  A    between atoms: C_2  and  C_3
REMARK    3  A    between atoms: C_3  and  C_4
REMARK    4  A    between atoms: C_4  and  C_5
REMARK    5  A    between atoms: C_5  and  C_6
REMARK    6  A    between atoms: C_6  and  O_7
REMARK    7  A    between atoms: O_7  and  C_8
REMARK    8  A    between atoms: C_11  and  C_14
REMARK    9  A    between atoms: C_14  and  N_15
REMARK   10  A    between atoms: N_15  and  C_16
REMARK   11  A    between atoms: C_19  and  O_22
REMARK   12  A    between atoms: O_22  and  C_23
REMARK   13  A    between atoms: C_23  and  C_24
REMARK   14  A    between atoms: C_24  and  C_25
REMARK   15  A    between atoms: C_25  and  C_26
REMARK                            x       y       z     vdW  Elec       q    Type
REMARK                         _______ _______ _______ _____ _____    ______ ____
ROOT
ATOM      1  C   UNL     1       2.666 -10.133   4.226  0.00  0.00    +0.137 C 
ENDROOT
BRANCH   1   5
ATOM      2  C   UNL     1       2.324  -5.897   3.768  0.00  0.00    +0.121 A 
ATOM      3  C   UNL     1       1.781  -6.746   2.813  0.00  0.00    +0.046 A 
ATOM      4  C   UNL     1       1.893  -8.114   2.964  0.00  0.00    +0.009 A 
ATOM      5  C   UNL     1       2.545  -8.639   4.065  0.00  0.00    -0.030 A 
ATOM      6  C   UNL     1       3.086  -7.796   5.018  0.00  0.00    +0.009 A 
ATOM      7  C   UNL     1       2.982  -6.426   4.869  0.00  0.00    +0.046 A 
BRANCH   2   8
ATOM      8  O   UNL     1       2.215  -4.551   3.622  0.00  0.00    -0.492 OA
BRANCH   8   9
ATOM      9  C   UNL     1       1.524  -4.077   2.464  0.00  0.00    +0.229 C 
BRANCH   9  10
ATOM     10  C   UNL     1       1.503  -2.548   2.473  0.00  0.00    +0.041 C 
BRANCH  10  11
ATOM     11  C   UNL     1       0.763  -2.041   1.233  0.00  0.00    +0.003 C 
BRANCH  11  12
ATOM     12  C   UNL     1       0.742  -0.511   1.242  0.00  0.00    -0.000 C 
BRANCH  12  14
ATOM     13  C   UNL     1      -0.019   1.526   0.010  0.00  0.00    +0.004 C 
ATOM     14  C   UNL     1       0.002  -0.004   0.002  0.00  0.00    -0.003 C 
ENDBRANCH  12  14
ENDBRANCH  11  12
ENDBRANCH  10  11
ENDBRANCH   9  10
ENDBRANCH   8   9
ENDBRANCH   2   8
ENDBRANCH   1   5
BRANCH   1  15
ATOM     15  N   UNL     1       3.898 -10.595   3.583  0.00  0.00    -0.340 N 
ATOM     16  H   UNL     1       4.484  -9.960   3.143  0.00  0.00    +0.146 HD
BRANCH  15  17
ATOM     17  C   UNL     1       4.229 -11.955   3.602  0.00  0.00    +0.028 A 
ATOM     18  C   UNL     1       3.387 -12.866   4.225  0.00  0.00    +0.026 A 
ATOM     19  C   UNL     1       3.714 -14.208   4.243  0.00  0.00    +0.047 A 
ATOM     20  C   UNL     1       4.883 -14.645   3.638  0.00  0.00    +0.121 A 
ATOM     21  C   UNL     1       5.725 -13.736   3.015  0.00  0.00    +0.047 A 
ATOM     22  C   UNL     1       5.396 -12.394   2.991  0.00  0.00    +0.026 A 
BRANCH  20  23
ATOM     23  O   UNL     1       5.204 -15.967   3.656  0.00  0.00    -0.492 OA
BRANCH  23  24
ATOM     24  C   UNL     1       6.423 -16.347   3.014  0.00  0.00    +0.229 C 
BRANCH  24  25
ATOM     25  C   UNL     1       6.614 -17.860   3.136  0.00  0.00    +0.041 C 
BRANCH  25  26
ATOM     26  C   UNL     1       7.918 -18.267   2.448  0.00  0.00    -0.000 C 
ATOM     27  C   UNL     1       8.109 -19.780   2.571  0.00  0.00    +0.004 C 
ENDBRANCH  25  26
ENDBRANCH  24  25
ENDBRANCH  23  24
ENDBRANCH  20  23
ENDBRANCH  15  17
ENDBRANCH   1  15
TORSDOF 13
