REMARK  Name = ZINC12050309
REMARK  4 active torsions:
REMARK  status: ('A' for Active; 'I' for Inactive)
REMARK    1  A    between atoms: C_10  and  C_13
REMARK    2  A    between atoms: C_13  and  O_14
REMARK    3  A    between atoms: C_18  and  N_20
REMARK    4  A    between atoms: C_21  and  C_23
REMARK                            x       y       z     vdW  Elec       q    Type
REMARK                         _______ _______ _______ _____ _____    ______ ____
ROOT
ATOM      1  C   UNL     1       2.364   1.278  -0.022  0.00  0.00    +0.121 A 
ATOM      2  C   UNL     1       1.181   2.008   0.002  0.00  0.00    +0.012 A 
ATOM      3  C   UNL     1      -0.016   1.324   0.009  0.00  0.00    +0.051 A 
ATOM      4  N   UNL     1       0.002  -0.004   0.002  0.00  0.00    -0.219 NA
ATOM      5  C   UNL     1       1.145  -0.670  -0.017  0.00  0.00    +0.218 A 
ATOM      6  N   UNL     1       2.312  -0.042  -0.030  0.00  0.00    -0.222 NA
ATOM      7  N   UNL     1       1.121  -2.054  -0.024  0.00  0.00    -0.300 N 
ATOM      8  C   UNL     1       0.326  -2.561  -1.150  0.00  0.00    +0.108 C 
ATOM      9  C   UNL     1       0.201  -4.083  -1.043  0.00  0.00    +0.025 C 
ATOM     10  C   UNL     1       1.599  -4.707  -1.059  0.00  0.00    +0.017 C 
ATOM     11  C   UNL     1       2.422  -4.126   0.094  0.00  0.00    +0.025 C 
ATOM     12  C   UNL     1       2.483  -2.603  -0.046  0.00  0.00    +0.108 C 
ATOM     13  C   UNL     1      -1.348   2.023   0.018  0.00  0.00    +0.056 C 
ATOM     14  C   UNL     1      -1.186   3.477   0.459  0.00  0.00    +0.008 C 
ATOM     15  C   UNL     1      -0.080   4.121  -0.385  0.00  0.00    +0.027 C 
ATOM     16  C   UNL     1       1.260   3.509   0.024  0.00  0.00    +0.106 C 
ENDROOT
BRANCH  16  17
ATOM     17  N   UNL     1       2.299   3.953  -0.909  0.00  0.00    -0.308 N 
ATOM     18  C   UNL     1       3.585   4.006  -0.509  0.00  0.00    +0.217 C 
ATOM     19  O   UNL     1       3.882   3.687   0.623  0.00  0.00    -0.275 OA
ATOM     20  H   UNL     1       2.062   4.209  -1.814  0.00  0.00    +0.149 HD
BRANCH  18  21
ATOM     21  C   UNL     1       4.654   4.463  -1.468  0.00  0.00    +0.075 C 
ATOM     22  C   UNL     1       4.683   3.531  -2.681  0.00  0.00    +0.013 C 
ATOM     23  C   UNL     1       5.768   3.994  -3.655  0.00  0.00    +0.001 C 
ATOM     24  C   UNL     1       7.128   3.962  -2.955  0.00  0.00    +0.000 C 
ATOM     25  C   UNL     1       7.100   4.894  -1.742  0.00  0.00    +0.001 C 
ATOM     26  C   UNL     1       6.015   4.430  -0.768  0.00  0.00    +0.013 C 
ENDBRANCH  18  21
ENDBRANCH  16  17
BRANCH  10  27
ATOM     27  C   UNL     1       1.484  -6.223  -0.892  0.00  0.00    +0.159 C 
BRANCH  27  28
ATOM     28  O   UNL     1       0.817  -6.779  -2.027  0.00  0.00    -0.395 OA
ATOM     29  H   UNL     1       0.708  -7.739  -1.989  0.00  0.00    +0.209 HD
ENDBRANCH  27  28
ENDBRANCH  10  27
TORSDOF 4
