REMARK  Name = ZINC63581956
REMARK  9 active torsions:
REMARK  status: ('A' for Active; 'I' for Inactive)
REMARK    1  A    between atoms: C_1  and  C_2
REMARK    2  A    between atoms: C_2  and  O_3
REMARK    3  A    between atoms: O_3  and  C_4
REMARK    4  A    between atoms: C_7  and  N_10
REMARK    5  A    between atoms: C_26  and  C_31
REMARK    6  A    between atoms: C_34  and  O_39
REMARK    7  A    between atoms: C_35  and  O_37
REMARK    8  A    between atoms: O_37  and  C_38
REMARK    9  A    between atoms: O_39  and  C_40
REMARK                            x       y       z     vdW  Elec       q    Type
REMARK                         _______ _______ _______ _____ _____    ______ ____
ROOT
ATOM      1  N   UNL     1      -2.007  -6.266   1.391  0.00  0.00    -0.220 N 
ATOM      2  C   UNL     1      -3.183  -6.926   1.345  0.00  0.00    +0.246 C 
ATOM      3  O   UNL     1      -4.255  -6.542   1.761  0.00  0.00    -0.273 OA
ATOM      4  C   UNL     1      -2.885  -8.246   0.668  0.00  0.00    +0.167 C 
ATOM      5  C   UNL     1      -3.257  -9.412   1.601  0.00  0.00    +0.065 C 
ATOM      6  C   UNL     1      -2.426 -10.593   1.159  0.00  0.00    -0.034 C 
ATOM      7  C   UNL     1      -2.787 -11.824   0.813  0.00  0.00    -0.001 A 
ATOM      8  C   UNL     1      -4.093 -12.502   0.829  0.00  0.00    +0.010 A 
ATOM      9  C   UNL     1      -4.108 -13.785   0.380  0.00  0.00    +0.001 A 
ATOM     10  C   UNL     1      -2.968 -14.453  -0.077  0.00  0.00    +0.002 A 
ATOM     11  C   UNL     1      -1.725 -13.910  -0.118  0.00  0.00    +0.026 A 
ATOM     12  C   UNL     1      -1.581 -12.566   0.335  0.00  0.00    +0.043 A 
ATOM     13  N   UNL     1      -0.522 -11.817   0.422  0.00  0.00    -0.375 N 
ATOM     14  C   UNL     1      -0.911 -10.535   1.014  0.00  0.00    +0.131 C 
ATOM     15  C   UNL     1      -0.596  -9.362   0.074  0.00  0.00    +0.133 C 
ATOM     16  N   UNL     1      -1.418  -8.217   0.501  0.00  0.00    -0.291 N 
ATOM     17  C   UNL     1      -1.009  -6.997   0.873  0.00  0.00    +0.148 C 
ATOM     18  S   UNL     1       0.600  -6.437   0.710  0.00  0.00    -0.018 S 
ATOM     19  H   UNL     1       0.373 -12.065   0.143  0.00  0.00    +0.160 HD
ENDROOT
BRANCH   1  23
ATOM     20  C   UNL     1      -1.537  -2.420   2.936  0.00  0.00    +0.121 A 
ATOM     21  C   UNL     1      -2.277  -2.617   1.779  0.00  0.00    +0.047 A 
ATOM     22  C   UNL     1      -2.433  -3.890   1.268  0.00  0.00    +0.027 A 
ATOM     23  C   UNL     1      -1.848  -4.972   1.910  0.00  0.00    +0.043 A 
ATOM     24  C   UNL     1      -1.107  -4.775   3.067  0.00  0.00    +0.027 A 
ATOM     25  C   UNL     1      -0.948  -3.501   3.575  0.00  0.00    +0.047 A 
BRANCH  20  26
ATOM     26  O   UNL     1      -1.385  -1.166   3.440  0.00  0.00    -0.492 OA
BRANCH  26  28
ATOM     27  C   UNL     1      -1.737   1.224   3.442  0.00  0.00    +0.048 C 
ATOM     28  C   UNL     1      -2.019  -0.100   2.731  0.00  0.00    +0.225 C 
ENDBRANCH  26  28
ENDBRANCH  20  26
ENDBRANCH   1  23
BRANCH  15  29
ATOM     29  C   UNL     1       0.867  -9.010   0.161  0.00  0.00    -0.021 A 
ATOM     30  C   UNL     1       1.469  -8.867   1.397  0.00  0.00    +0.009 A 
ATOM     31  C   UNL     1       2.810  -8.544   1.483  0.00  0.00    +0.050 A 
ATOM     32  C   UNL     1       3.554  -8.364   0.328  0.00  0.00    +0.162 A 
ATOM     33  C   UNL     1       2.948  -8.509  -0.916  0.00  0.00    +0.162 A 
ATOM     34  C   UNL     1       1.604  -8.837  -0.995  0.00  0.00    +0.055 A 
BRANCH  33  35
ATOM     35  O   UNL     1       3.675  -8.333  -2.052  0.00  0.00    -0.491 OA
ATOM     36  C   UNL     1       2.986  -8.498  -3.294  0.00  0.00    +0.277 C 
ENDBRANCH  33  35
BRANCH  32  37
ATOM     37  O   UNL     1       4.874  -8.046   0.410  0.00  0.00    -0.491 OA
ATOM     38  C   UNL     1       5.429  -7.913   1.721  0.00  0.00    +0.277 C 
ENDBRANCH  32  37
ENDBRANCH  15  29
TORSDOF 6
