REMARK  Name = ZINC38597764
REMARK  8 active torsions:
REMARK  status: ('A' for Active; 'I' for Inactive)
REMARK    1  A    between atoms: C_1  and  C_2
REMARK    2  A    between atoms: C_7  and  S_8
REMARK    3  A    between atoms: S_8  and  N_11
REMARK    4  A    between atoms: N_11  and  C_12
REMARK    5  A    between atoms: C_12  and  C_13
REMARK    6  A    between atoms: C_13  and  C_15
REMARK    7  A    between atoms: C_13  and  N_20
REMARK    8  A    between atoms: N_23  and  C_26
REMARK                            x       y       z     vdW  Elec       q    Type
REMARK                         _______ _______ _______ _____ _____    ______ ____
ROOT
ATOM      1  C   UNL     1       2.991   2.227   2.696  0.00  0.00    +0.015 C 
ENDROOT
BRANCH   1   2
ATOM      2  N   UNL     1       4.122   1.292   2.619  0.00  0.00    +0.389 N 
ATOM      3  C   UNL     1       5.276   1.864   3.325  0.00  0.00    -0.059 C 
ATOM      4  C   UNL     1       6.488   0.944   3.148  0.00  0.00    +0.086 C 
ATOM      5  N   UNL     1       6.115  -0.409   3.590  0.00  0.00    -0.333 N 
ATOM      6  C   UNL     1       4.878  -0.997   3.054  0.00  0.00    +0.086 C 
ATOM      7  C   UNL     1       3.741   0.015   3.236  0.00  0.00    -0.059 C 
ATOM      8  H   UNL     1       4.364   1.139   1.652  0.00  0.00    -0.081 HD
BRANCH   5   9
ATOM      9  C   UNL     1       6.914  -1.116   4.494  0.00  0.00    +0.030 A 
ATOM     10  C   UNL     1       6.619  -2.439   4.796  0.00  0.00    +0.026 A 
ATOM     11  C   UNL     1       7.410  -3.135   5.689  0.00  0.00    +0.040 A 
ATOM     12  C   UNL     1       8.496  -2.516   6.282  0.00  0.00    +0.124 A 
ATOM     13  C   UNL     1       8.793  -1.197   5.982  0.00  0.00    +0.040 A 
ATOM     14  C   UNL     1       8.008  -0.498   5.086  0.00  0.00    +0.026 A 
ATOM     15  F   UNL     1       9.268  -3.199   7.156  0.00  0.00    -0.205 F 
ENDBRANCH   5   9
ENDBRANCH   1   2
BRANCH   1  16
ATOM     16  C   UNL     1       3.354   3.513   1.998  0.00  0.00    +0.093 A 
ATOM     17  C   UNL     1       3.047   4.752   2.422  0.00  0.00    +0.043 A 
ATOM     18  C   UNL     1       3.577   5.653   1.471  0.00  0.00    +0.041 A 
ATOM     19  C   UNL     1       4.177   4.911   0.523  0.00  0.00    +0.195 A 
ATOM     20  O   UNL     1       4.043   3.616   0.851  0.00  0.00    -0.469 OA
ENDBRANCH   1  16
BRANCH   1  21
ATOM     21  C   UNL     1       1.769   1.606   2.018  0.00  0.00    +0.098 C 
BRANCH  21  22
ATOM     22  N   UNL     1       2.121   1.196   0.657  0.00  0.00    -0.191 NA
ATOM     23  H   UNL     1       2.928   1.539   0.240  0.00  0.00    +0.148 HD
BRANCH  22  24
ATOM     24  S   UNL     1       1.143   0.148  -0.172  0.00  0.00    +0.059 S 
ATOM     25  O   UNL     1       0.887  -0.945   0.700  0.00  0.00    -0.153 OA
ATOM     26  O   UNL     1       1.726  -0.023  -1.457  0.00  0.00    -0.153 OA
BRANCH  24  33
ATOM     27  C   UNL     1       0.792   2.638  -1.853  0.00  0.00    +0.046 C 
ATOM     28  C   UNL     1      -0.460   2.098  -1.210  0.00  0.00    -0.021 A 
ATOM     29  C   UNL     1      -1.670   2.735  -1.412  0.00  0.00    +0.043 A 
ATOM     30  C   UNL     1      -2.820   2.239  -0.823  0.00  0.00    +0.124 A 
ATOM     31  C   UNL     1      -2.756   1.105  -0.031  0.00  0.00    +0.040 A 
ATOM     32  C   UNL     1      -1.546   0.470   0.170  0.00  0.00    +0.031 A 
ATOM     33  C   UNL     1      -0.399   0.963  -0.424  0.00  0.00    +0.108 A 
ATOM     34  F   UNL     1      -4.003   2.861  -1.019  0.00  0.00    -0.205 F 
ENDBRANCH  24  33
ENDBRANCH  22  24
ENDBRANCH  21  22
ENDBRANCH   1  21
TORSDOF 7
