REMARK  Name = ZINC65113678
REMARK  13 active torsions:
REMARK  status: ('A' for Active; 'I' for Inactive)
REMARK    1  A    between atoms: C_1  and  C_2
REMARK    2  A    between atoms: C_5  and  N_9
REMARK    3  A    between atoms: C_6  and  C_8
REMARK    4  A    between atoms: C_10  and  C_12
REMARK    5  A    between atoms: C_13  and  N_34
REMARK    6  A    between atoms: N_14  and  C_17
REMARK    7  A    between atoms: C_17  and  C_18
REMARK    8  A    between atoms: C_19  and  C_33
REMARK    9  A    between atoms: C_21  and  C_23
REMARK   10  A    between atoms: C_26  and  O_31
REMARK   11  A    between atoms: C_27  and  O_29
REMARK   12  A    between atoms: O_29  and  C_30
REMARK   13  A    between atoms: O_31  and  C_32
REMARK                            x       y       z     vdW  Elec       q    Type
REMARK                         _______ _______ _______ _____ _____    ______ ____
ROOT
ATOM      1  C   UNL     1      -0.130  -6.303  -1.187  0.00  0.00    +0.188 A 
ATOM      2  C   UNL     1      -0.229  -7.115  -2.310  0.00  0.00    +0.148 A 
ATOM      3  N   UNL     1      -0.287  -8.389  -1.857  0.00  0.00    -0.225 N 
ATOM      4  N   UNL     1      -0.222  -8.328  -0.459  0.00  0.00    -0.063 NA
ATOM      5  N   UNL     1      -0.125  -7.096  -0.099  0.00  0.00    -0.123 NA
ENDROOT
BRANCH   1   7
ATOM      6  N   UNL     1       0.059  -4.169  -0.021  0.00  0.00    -0.280 N 
ATOM      7  C   UNL     1      -0.039  -4.838  -1.187  0.00  0.00    +0.272 C 
ATOM      8  O   UNL     1      -0.053  -4.227  -2.239  0.00  0.00    -0.268 OA
ATOM      9  H   UNL     1       0.136  -4.658   0.814  0.00  0.00    +0.155 HD
BRANCH   6  14
ATOM     10  C   UNL     1       0.024   1.503   0.006  0.00  0.00    +0.044 C 
ATOM     11  C   UNL     1       0.033  -0.004  -0.001  0.00  0.00    -0.050 A 
ATOM     12  C   UNL     1       0.631  -0.685  -1.046  0.00  0.00    +0.005 A 
ATOM     13  C   UNL     1       0.642  -2.066  -1.055  0.00  0.00    +0.024 A 
ATOM     14  C   UNL     1       0.051  -2.771  -0.014  0.00  0.00    +0.037 A 
ATOM     15  C   UNL     1      -0.549  -2.083   1.033  0.00  0.00    -0.029 A 
ATOM     16  C   UNL     1      -0.551  -0.702   1.039  0.00  0.00    +0.008 A 
ATOM     17  C   UNL     1      -1.191  -2.844   2.164  0.00  0.00    +0.045 C 
ENDBRANCH   6  14
ENDBRANCH   1   7
BRANCH   2  18
ATOM     18  N   UNL     1      -0.263  -6.703  -3.627  0.00  0.00    -0.341 N 
ATOM     19  H   UNL     1      -0.214  -5.758  -3.841  0.00  0.00    +0.144 HD
ATOM     20  H   UNL     1      -0.335  -7.359  -4.338  0.00  0.00    +0.144 HD
ENDBRANCH   2  18
BRANCH   3  21
ATOM     21  C   UNL     1      -0.398  -9.601  -2.673  0.00  0.00    +0.206 C 
BRANCH  21  22
ATOM     22  C   UNL     1       0.981 -10.103  -3.015  0.00  0.00    +0.104 A 
ATOM     23  C   UNL     1       1.705  -9.756  -4.094  0.00  0.00    +0.128 A 
ATOM     24  O   UNL     1       2.873 -10.426  -4.026  0.00  0.00    -0.440 OA
ATOM     25  C   UNL     1       2.850 -11.173  -2.908  0.00  0.00    +0.228 A 
ATOM     26  N   UNL     1       1.707 -10.972  -2.295  0.00  0.00    -0.212 NA
ATOM     27  C   UNL     1       1.288  -8.797  -5.179  0.00  0.00    +0.088 C 
BRANCH  25  28
ATOM     28  C   UNL     1       3.933 -12.066  -2.445  0.00  0.00    +0.041 A 
ATOM     29  C   UNL     1       3.780 -12.795  -1.264  0.00  0.00    +0.017 A 
ATOM     30  C   UNL     1       4.791 -13.628  -0.833  0.00  0.00    +0.050 A 
ATOM     31  C   UNL     1       5.961 -13.743  -1.570  0.00  0.00    +0.162 A 
ATOM     32  C   UNL     1       6.120 -13.018  -2.749  0.00  0.00    +0.162 A 
ATOM     33  C   UNL     1       5.107 -12.185  -3.189  0.00  0.00    +0.062 A 
BRANCH  32  34
ATOM     34  O   UNL     1       7.268 -13.132  -3.469  0.00  0.00    -0.491 OA
ATOM     35  C   UNL     1       7.362 -12.359  -4.667  0.00  0.00    +0.277 C 
ENDBRANCH  32  34
BRANCH  31  36
ATOM     36  O   UNL     1       6.955 -14.566  -1.141  0.00  0.00    -0.491 OA
ATOM     37  C   UNL     1       6.726 -15.279   0.075  0.00  0.00    +0.277 C 
ENDBRANCH  31  36
ENDBRANCH  25  28
ENDBRANCH  21  22
ENDBRANCH   3  21
TORSDOF 8
