REMARK  Name = ZINC65323189
REMARK  9 active torsions:
REMARK  status: ('A' for Active; 'I' for Inactive)
REMARK    1  A    between atoms: C_1  and  C_2
REMARK    2  A    between atoms: C_2  and  C_3
REMARK    3  A    between atoms: C_6  and  C_9
REMARK    4  A    between atoms: C_9  and  N_10
REMARK    5  A    between atoms: C_17  and  C_21
REMARK    6  A    between atoms: C_21  and  N_22
REMARK    7  A    between atoms: N_22  and  C_23
REMARK    8  A    between atoms: C_27  and  C_30
REMARK    9  A    between atoms: C_28  and  C_29
REMARK                            x       y       z     vdW  Elec       q    Type
REMARK                         _______ _______ _______ _____ _____    ______ ____
ROOT
ATOM      1  N   UNL     1       3.245  -0.778   5.486  0.00  0.00    -0.308 N 
ATOM      2  C   UNL     1       3.946  -0.993   6.670  0.00  0.00    +0.237 A 
ATOM      3  N   UNL     1       4.392  -0.048   7.472  0.00  0.00    -0.125 NA
ATOM      4  N   UNL     1       5.035  -0.687   8.540  0.00  0.00    -0.158 N 
ATOM      5  C   UNL     1       5.676  -0.230   9.652  0.00  0.00    +0.276 A 
ATOM      6  O   UNL     1       5.779   1.098   9.888  0.00  0.00    -0.266 OA
ATOM      7  C   UNL     1       6.212  -1.136  10.526  0.00  0.00    +0.097 A 
ATOM      8  C   UNL     1       6.089  -2.497  10.254  0.00  0.00    +0.067 A 
ATOM      9  N   UNL     1       5.464  -2.905   9.169  0.00  0.00    -0.214 NA
ATOM     10  C   UNL     1       4.935  -2.029   8.307  0.00  0.00    +0.258 A 
ATOM     11  N   UNL     1       4.265  -2.185   7.170  0.00  0.00    -0.176 NA
ATOM     12  H   UNL     1       3.053   0.126   5.193  0.00  0.00    +0.149 HD
ENDROOT
BRANCH   1  13
ATOM     13  C   UNL     1       2.797  -1.919   4.683  0.00  0.00    +0.139 C 
BRANCH  13  17
ATOM     14  C   UNL     1       0.731  -0.503   1.223  0.00  0.00    -0.048 A 
ATOM     15  C   UNL     1       2.097  -0.710   1.176  0.00  0.00    +0.004 A 
ATOM     16  C   UNL     1       2.766  -1.167   2.296  0.00  0.00    +0.005 A 
ATOM     17  C   UNL     1       2.068  -1.419   3.463  0.00  0.00    -0.030 A 
ATOM     18  C   UNL     1       0.702  -1.212   3.510  0.00  0.00    +0.005 A 
ATOM     19  C   UNL     1       0.034  -0.750   2.391  0.00  0.00    +0.004 A 
BRANCH  14  21
ATOM     20  C   UNL     1      -0.019   1.526   0.010  0.00  0.00    +0.009 C 
ATOM     21  C   UNL     1       0.002  -0.004   0.002  0.00  0.00    +0.032 C 
ENDBRANCH  14  21
ENDBRANCH  13  17
ENDBRANCH   1  13
BRANCH   8  22
ATOM     22  C   UNL     1       6.674  -3.508  11.206  0.00  0.00    +0.157 C 
BRANCH  22  23
ATOM     23  N   UNL     1       6.415  -4.859  10.704  0.00  0.00    -0.338 N 
ATOM     24  H   UNL     1       5.931  -4.983   9.873  0.00  0.00    +0.146 HD
BRANCH  23  25
ATOM     25  C   UNL     1       6.866  -5.969  11.422  0.00  0.00    +0.031 A 
ATOM     26  C   UNL     1       7.554  -5.794  12.616  0.00  0.00    +0.023 A 
ATOM     27  C   UNL     1       7.998  -6.893  13.324  0.00  0.00    +0.002 A 
ATOM     28  C   UNL     1       7.758  -8.168  12.845  0.00  0.00    +0.004 A 
ATOM     29  C   UNL     1       7.073  -8.347  11.657  0.00  0.00    -0.046 A 
ATOM     30  C   UNL     1       6.621  -7.252  10.947  0.00  0.00    -0.027 A 
ATOM     31  C   UNL     1       5.869  -7.447   9.656  0.00  0.00    +0.046 C 
ATOM     32  C   UNL     1       6.814  -9.738  11.139  0.00  0.00    +0.044 C 
ENDBRANCH  23  25
ENDBRANCH  22  23
ENDBRANCH   8  22
TORSDOF 6
