REMARK  Name = ZINC59170692
REMARK  5 active torsions:
REMARK  status: ('A' for Active; 'I' for Inactive)
REMARK    1  A    between atoms: C_12  and  C_26
REMARK    2  A    between atoms: N_14  and  C_15
REMARK    3  A    between atoms: C_18  and  S_21
REMARK    4  A    between atoms: S_21  and  N_24
REMARK    5  A    between atoms: N_28  and  C_29
REMARK                            x       y       z     vdW  Elec       q    Type
REMARK                         _______ _______ _______ _____ _____    ______ ____
ROOT
ATOM      1  C   UNL     1       0.175   0.830   1.817  0.00  0.00    +0.001 A 
ATOM      2  C   UNL     1       1.397   1.411   2.143  0.00  0.00    +0.001 A 
ATOM      3  C   UNL     1       2.572   0.833   1.758  0.00  0.00    +0.009 A 
ATOM      4  C   UNL     1       2.550  -0.359   1.029  0.00  0.00    -0.007 A 
ATOM      5  C   UNL     1       1.309  -0.954   0.697  0.00  0.00    -0.017 A 
ATOM      6  C   UNL     1       0.119  -0.332   1.107  0.00  0.00    +0.008 A 
ATOM      7  C   UNL     1       1.290  -2.157  -0.035  0.00  0.00    +0.012 A 
ATOM      8  C   UNL     1       2.443  -2.762  -0.420  0.00  0.00    +0.047 A 
ATOM      9  C   UNL     1       3.694  -2.219  -0.119  0.00  0.00    +0.138 A 
ATOM     10  C   UNL     1       3.783  -1.013   0.591  0.00  0.00    +0.026 A 
ATOM     11  C   UNL     1       5.044  -0.449   0.878  0.00  0.00    +0.030 A 
ATOM     12  C   UNL     1       6.164  -0.996   0.260  0.00  0.00    +0.098 A 
ATOM     13  C   UNL     1       5.936  -2.109  -0.681  0.00  0.00    +0.212 A 
ATOM     14  N   UNL     1       6.780  -2.360  -1.659  0.00  0.00    -0.325 N 
ATOM     15  O   UNL     1       4.823  -2.865  -0.500  0.00  0.00    -0.439 OA
ATOM     16  H   UNL     1       7.516  -1.752  -1.832  0.00  0.00    +0.169 HD
ENDROOT
BRANCH  14  17
ATOM     17  C   UNL     1       6.620  -3.478  -2.430  0.00  0.00    +0.042 A 
ATOM     18  C   UNL     1       6.335  -4.708  -1.833  0.00  0.00    +0.027 A 
ATOM     19  C   UNL     1       6.175  -5.831  -2.618  0.00  0.00    +0.030 A 
ATOM     20  C   UNL     1       6.297  -5.741  -3.993  0.00  0.00    +0.105 A 
ATOM     21  C   UNL     1       6.580  -4.526  -4.591  0.00  0.00    +0.030 A 
ATOM     22  C   UNL     1       6.736  -3.393  -3.820  0.00  0.00    +0.027 A 
BRANCH  20  23
ATOM     23  S   UNL     1       6.091  -7.181  -4.987  0.00  0.00    +0.056 S 
ATOM     24  O   UNL     1       6.793  -6.942  -6.199  0.00  0.00    -0.153 OA
ATOM     25  O   UNL     1       6.373  -8.296  -4.151  0.00  0.00    -0.153 OA
BRANCH  23  26
ATOM     26  N   UNL     1       4.486  -7.279  -5.381  0.00  0.00    -0.204 NA
ATOM     27  H   UNL     1       3.866  -6.604  -5.062  0.00  0.00    +0.144 HD
ATOM     28  H   UNL     1       4.165  -8.011  -5.931  0.00  0.00    +0.144 HD
ENDBRANCH  23  26
ENDBRANCH  20  23
ENDBRANCH  14  17
BRANCH  12  29
ATOM     29  C   UNL     1       7.517  -0.485   0.532  0.00  0.00    +0.253 C 
ATOM     30  O   UNL     1       7.665   0.516   1.206  0.00  0.00    -0.270 OA
ATOM     31  N   UNL     1       8.592  -1.128   0.035  0.00  0.00    -0.279 N 
ATOM     32  H   UNL     1       8.473  -1.896  -0.545  0.00  0.00    +0.155 HD
BRANCH  31  33
ATOM     33  C   UNL     1       9.881  -0.687   0.355  0.00  0.00    +0.069 A 
ATOM     34  C   UNL     1      10.101   0.645   0.678  0.00  0.00    +0.026 A 
ATOM     35  C   UNL     1      11.374   1.077   0.995  0.00  0.00    +0.002 A 
ATOM     36  C   UNL     1      12.431   0.186   0.990  0.00  0.00    +0.003 A 
ATOM     37  C   UNL     1      12.218  -1.142   0.668  0.00  0.00    +0.040 A 
ATOM     38  C   UNL     1      10.945  -1.583   0.356  0.00  0.00    +0.144 A 
ATOM     39  F   UNL     1      10.735  -2.882   0.048  0.00  0.00    -0.204 F 
ENDBRANCH  31  33
ENDBRANCH  12  29
TORSDOF 5
