REMARK  Name = ZINC01038720
REMARK  8 active torsions:
REMARK  status: ('A' for Active; 'I' for Inactive)
REMARK    1  A    between atoms: C_3  and  C_23
REMARK    2  A    between atoms: C_4  and  S_7
REMARK    3  A    between atoms: S_7  and  C_8
REMARK    4  A    between atoms: C_8  and  C_9
REMARK    5  A    between atoms: C_9  and  S_10
REMARK    6  A    between atoms: S_10  and  C_13
REMARK    7  A    between atoms: C_16  and  C_19
REMARK    8  A    between atoms: N_25  and  C_26
REMARK                            x       y       z     vdW  Elec       q    Type
REMARK                         _______ _______ _______ _____ _____    ______ ____
ROOT
ATOM      1  C   UNL     1      -0.016   1.378  -0.023  0.00  0.00    +0.020 A 
ATOM      2  C   UNL     1       1.178   2.077  -0.020  0.00  0.00    +0.017 A 
ATOM      3  C   UNL     1       2.374   1.350  -0.031  0.00  0.00    +0.069 A 
ATOM      4  C   UNL     1       2.312  -0.055  -0.044  0.00  0.00    +0.109 A 
ATOM      5  N   UNL     1       1.140  -0.673  -0.047  0.00  0.00    -0.248 NA
ATOM      6  C   UNL     1       0.003  -0.005  -0.036  0.00  0.00    +0.112 A 
ENDROOT
BRANCH   3   7
ATOM      7  C   UNL     1       3.674   2.043  -0.029  0.00  0.00    +0.251 C 
ATOM      8  O   UNL     1       4.707   1.400  -0.038  0.00  0.00    -0.270 OA
ATOM      9  N   UNL     1       3.719   3.390  -0.016  0.00  0.00    -0.280 N 
ATOM     10  H   UNL     1       2.898   3.904  -0.074  0.00  0.00    +0.155 HD
BRANCH   9  11
ATOM     11  C   UNL     1       4.951   4.048   0.081  0.00  0.00    +0.052 A 
ATOM     12  C   UNL     1       6.078   3.508  -0.524  0.00  0.00    +0.026 A 
ATOM     13  C   UNL     1       7.292   4.159  -0.427  0.00  0.00    +0.022 A 
ATOM     14  C   UNL     1       7.386   5.350   0.273  0.00  0.00    +0.042 A 
ATOM     15  C   UNL     1       6.266   5.891   0.877  0.00  0.00    +0.041 A 
ATOM     16  C   UNL     1       5.047   5.247   0.778  0.00  0.00    +0.064 A 
ATOM     17 CL   UNL     1       3.639   5.930   1.529  0.00  0.00    -0.082 Cl
ATOM     18 CL   UNL     1       8.914   6.165   0.392  0.00  0.00    -0.083 Cl
ENDBRANCH   9  11
ENDBRANCH   3   7
BRANCH   4  19
ATOM     19  S   UNL     1       3.800  -0.999  -0.058  0.00  0.00    -0.104 S 
BRANCH  19  20
ATOM     20  C   UNL     1       3.228  -2.720  -0.073  0.00  0.00    +0.099 C 
BRANCH  20  21
ATOM     21  C   UNL     1       4.437  -3.659  -0.086  0.00  0.00    +0.184 C 
BRANCH  21  22
ATOM     22  S   UNL     1       3.865  -5.380  -0.101  0.00  0.00    +0.015 S 
ATOM     23  O   UNL     1       3.235  -5.697   1.132  0.00  0.00    -0.168 OA
ATOM     24  O   UNL     1       3.227  -5.673  -1.337  0.00  0.00    -0.168 OA
BRANCH  22  25
ATOM     25  C   UNL     1       5.338  -6.346  -0.116  0.00  0.00    +0.176 A 
ATOM     26  C   UNL     1       5.909  -6.705  -1.323  0.00  0.00    +0.048 A 
ATOM     27  C   UNL     1       7.068  -7.465  -1.323  0.00  0.00    +0.017 A 
ATOM     28  C   UNL     1       7.612  -7.838  -0.103  0.00  0.00    +0.073 A 
ATOM     29  C   UNL     1       6.986  -7.443   1.063  0.00  0.00    +0.125 A 
ATOM     30  N   UNL     1       5.887  -6.715   1.025  0.00  0.00    -0.236 NA
BRANCH  28  31
ATOM     31  C   UNL     1       8.871  -8.665  -0.051  0.00  0.00    +0.419 C 
ATOM     32  F   UNL     1       9.985  -7.819  -0.021  0.00  0.00    -0.166 F 
ATOM     33  F   UNL     1       8.859  -9.461   1.099  0.00  0.00    -0.166 F 
ATOM     34  F   UNL     1       8.939  -9.484  -1.184  0.00  0.00    -0.166 F 
ENDBRANCH  28  31
ENDBRANCH  22  25
ENDBRANCH  21  22
ENDBRANCH  20  21
ENDBRANCH  19  20
ENDBRANCH   4  19
TORSDOF 8
