REMARK  Name = ZINC35678534
REMARK  2 active torsions:
REMARK  status: ('A' for Active; 'I' for Inactive)
REMARK    1  A    between atoms: C_3  and  N_8
REMARK    2  A    between atoms: C_9  and  C_11
REMARK                            x       y       z     vdW  Elec       q    Type
REMARK                         _______ _______ _______ _____ _____    ______ ____
ROOT
ATOM      1  N   UNL     1       3.596   2.002  -0.022  0.00  0.00    -0.266 N 
ATOM      2  C   UNL     1       3.627   3.346  -0.117  0.00  0.00    +0.252 C 
ATOM      3  O   UNL     1       2.591   3.981  -0.104  0.00  0.00    -0.270 OA
ATOM      4  H   UNL     1       4.424   1.501   0.042  0.00  0.00    +0.157 HD
ENDROOT
BRANCH   2   5
ATOM      5  C   UNL     1       4.921   4.047  -0.237  0.00  0.00    +0.072 A 
ATOM      6  C   UNL     1       6.114   3.321  -0.259  0.00  0.00    +0.017 A 
ATOM      7  C   UNL     1       7.318   3.982  -0.372  0.00  0.00    +0.016 A 
ATOM      8  C   UNL     1       7.349   5.364  -0.464  0.00  0.00    +0.021 A 
ATOM      9  C   UNL     1       6.173   6.092  -0.443  0.00  0.00    +0.054 A 
ATOM     10  C   UNL     1       4.957   5.442  -0.337  0.00  0.00    +0.137 A 
ATOM     11  F   UNL     1       3.808   6.153  -0.322  0.00  0.00    -0.205 F 
ATOM     12 BR   UNL     1       9.007   6.260  -0.618  0.00  0.00    -0.050 Br
ENDBRANCH   2   5
BRANCH   1  15
ATOM     13  C   UNL     1       1.131  -0.711  -0.017  0.00  0.00    +0.006 A 
ATOM     14  C   UNL     1       2.351  -0.058  -0.024  0.00  0.00    +0.044 A 
ATOM     15  C   UNL     1       2.374   1.332  -0.015  0.00  0.00    +0.126 A 
ATOM     16  N   UNL     1       1.247   2.026  -0.001  0.00  0.00    -0.225 NA
ATOM     17  C   UNL     1       0.069   1.431   0.006  0.00  0.00    +0.108 A 
ATOM     18  C   UNL     1      -0.029   0.052  -0.002  0.00  0.00    +0.035 A 
ATOM     19 BR   UNL     1      -1.506   2.477   0.027  0.00  0.00    -0.029 Br
ENDBRANCH   1  15
TORSDOF 2
