REMARK  Name = ZINC35357143
REMARK  4 active torsions:
REMARK  status: ('A' for Active; 'I' for Inactive)
REMARK    1  A    between atoms: C_1  and  C_2
REMARK    2  A    between atoms: C_3  and  S_8
REMARK    3  A    between atoms: S_8  and  N_11
REMARK    4  A    between atoms: N_11  and  C_12
REMARK                            x       y       z     vdW  Elec       q    Type
REMARK                         _______ _______ _______ _____ _____    ______ ____
ROOT
ATOM      1  S   UNL     1      -0.011  -0.130  -2.823  0.00  0.00    +0.100 S 
ATOM      2  O   UNL     1      -1.367  -0.154  -3.248  0.00  0.00    -0.148 OA
ATOM      3  O   UNL     1       0.775   1.053  -2.851  0.00  0.00    -0.148 OA
ENDROOT
BRANCH   1   6
ATOM      4  C   UNL     1      -0.018   1.503   0.010  0.00  0.00    +0.068 C 
ATOM      5  C   UNL     1       0.002  -0.004   0.002  0.00  0.00    +0.074 A 
ATOM      6  C   UNL     1       0.006  -0.707  -1.159  0.00  0.00    +0.171 A 
ATOM      7  S   UNL     1       0.032  -2.379  -0.532  0.00  0.00    -0.035 S 
ATOM      8  C   UNL     1       0.036  -2.010   1.110  0.00  0.00    +0.169 A 
ATOM      9  N   UNL     1       0.023  -0.700   1.123  0.00  0.00    -0.231 NA
ATOM     10 CL   UNL     1       0.058  -3.101   2.461  0.00  0.00    -0.054 Cl
ENDBRANCH   1   6
BRANCH   1  11
ATOM     11  N   UNL     1       0.791  -1.253  -3.739  0.00  0.00    -0.096 NA
BRANCH  11  12
ATOM     12  C   UNL     1       0.936  -1.058  -5.115  0.00  0.00    +0.094 A 
ATOM     13  C   UNL     1       0.412   0.080  -5.716  0.00  0.00    +0.028 A 
ATOM     14  C   UNL     1       0.557   0.271  -7.076  0.00  0.00    +0.003 A 
ATOM     15  C   UNL     1       1.222  -0.669  -7.841  0.00  0.00    +0.021 A 
ATOM     16  C   UNL     1       1.744  -1.805  -7.248  0.00  0.00    +0.061 A 
ATOM     17  C   UNL     1       1.609  -1.999  -5.885  0.00  0.00    +0.084 A 
ATOM     18 CL   UNL     1       2.271  -3.419  -5.139  0.00  0.00    -0.080 Cl
ATOM     19 CL   UNL     1       2.578  -2.983  -8.213  0.00  0.00    -0.082 Cl
ENDBRANCH  11  12
ENDBRANCH   1  11
TORSDOF 3
