REMARK  Name = ZINC09103049
REMARK  11 active torsions:
REMARK  status: ('A' for Active; 'I' for Inactive)
REMARK    1  A    between atoms: C_1  and  C_2
REMARK    2  A    between atoms: C_2  and  C_4
REMARK    3  A    between atoms: C_2  and  N_65
REMARK    4  A    between atoms: C_7  and  S_16
REMARK    5  A    between atoms: N_8  and  C_9
REMARK    6  A    between atoms: S_16  and  C_17
REMARK    7  A    between atoms: C_17  and  C_18
REMARK    8  A    between atoms: N_20  and  C_21
REMARK    9  A    between atoms: C_24  and  N_27
REMARK   10  A    between atoms: C_33  and  N_65
REMARK   11  A    between atoms: C_34  and  N_65
REMARK                            x       y       z     vdW  Elec       q    Type
REMARK                         _______ _______ _______ _____ _____    ______ ____
ROOT
ATOM      1  C   UNL     1      -1.464   3.491   2.497  0.00  0.00    +0.125 A 
ATOM      2  N   UNL     1      -2.583   3.012   2.963  0.00  0.00    -0.135 NA
ATOM      3  N   UNL     1      -2.903   3.616   4.051  0.00  0.00    -0.122 NA
ATOM      4  C   UNL     1      -2.003   4.528   4.338  0.00  0.00    +0.197 A 
ATOM      5  N   UNL     1      -1.054   4.477   3.354  0.00  0.00    -0.275 N 
ENDROOT
BRANCH   5   6
ATOM      6  C   UNL     1       0.098   5.270   3.246  0.00  0.00    +0.050 A 
ATOM      7  C   UNL     1       1.354   4.689   3.347  0.00  0.00    +0.028 A 
ATOM      8  C   UNL     1       2.487   5.470   3.234  0.00  0.00    +0.022 A 
ATOM      9  C   UNL     1       2.370   6.835   3.033  0.00  0.00    +0.041 A 
ATOM     10  C   UNL     1       1.119   7.418   2.938  0.00  0.00    +0.022 A 
ATOM     11  C   UNL     1      -0.017   6.639   3.044  0.00  0.00    +0.028 A 
ATOM     12 CL   UNL     1       3.796   7.816   2.899  0.00  0.00    -0.084 Cl
ENDBRANCH   5   6
BRANCH   1  14
ATOM     13  C   UNL     1      -1.500   3.583   0.019  0.00  0.00    -0.005 C 
ATOM     14  C   UNL     1      -0.755   3.047   1.243  0.00  0.00    -0.003 C 
BRANCH  14  17
ATOM     15  C   UNL     1      -0.039   1.108  -0.019  0.00  0.00    -0.096 C 
ATOM     16  C   UNL     1      -0.098   1.024   2.400  0.00  0.00    -0.096 C 
ATOM     17  N   UNL     1      -0.751   1.569   1.192  0.00  0.00    +0.382 N 
ATOM     18  H   UNL     1      -1.721   1.234   1.156  0.00  0.00    -0.082 HD
ENDBRANCH  14  17
ENDBRANCH   1  14
BRANCH   4  19
ATOM     19  S   UNL     1      -2.015   5.611   5.728  0.00  0.00    -0.076 S 
BRANCH  19  20
ATOM     20  C   UNL     1      -3.547   5.075   6.531  0.00  0.00    +0.173 C 
BRANCH  20  21
ATOM     21  C   UNL     1      -3.769   5.887   7.780  0.00  0.00    +0.227 C 
ATOM     22  O   UNL     1      -2.971   6.744   8.097  0.00  0.00    -0.275 OA
ATOM     23  N   UNL     1      -4.856   5.662   8.546  0.00  0.00    -0.285 N 
ATOM     24  H   UNL     1      -5.528   5.024   8.258  0.00  0.00    +0.155 HD
BRANCH  23  25
ATOM     25  C   UNL     1      -5.014   6.348   9.758  0.00  0.00    +0.034 A 
ATOM     26  C   UNL     1      -5.611   5.717  10.840  0.00  0.00    +0.025 A 
ATOM     27  C   UNL     1      -5.763   6.391  12.035  0.00  0.00    +0.025 A 
ATOM     28  C   UNL     1      -5.327   7.705  12.152  0.00  0.00    +0.030 A 
ATOM     29  C   UNL     1      -4.734   8.338  11.067  0.00  0.00    +0.025 A 
ATOM     30  C   UNL     1      -4.578   7.662   9.873  0.00  0.00    +0.025 A 
BRANCH  28  31
ATOM     31  N   UNL     1      -5.484   8.390  13.361  0.00  0.00    -0.330 N 
ATOM     32  C   UNL     1      -4.197   8.903  13.846  0.00  0.00    +0.105 C 
ATOM     33  C   UNL     1      -4.426   9.767  15.089  0.00  0.00    +0.019 C 
ATOM     34  C   UNL     1      -5.102   8.924  16.173  0.00  0.00    +0.003 C 
ATOM     35  C   UNL     1      -6.417   8.361  15.626  0.00  0.00    +0.019 C 
ATOM     36  C   UNL     1      -6.130   7.538  14.368  0.00  0.00    +0.105 C 
ENDBRANCH  28  31
ENDBRANCH  23  25
ENDBRANCH  20  21
ENDBRANCH  19  20
ENDBRANCH   4  19
TORSDOF 8
