REMARK  Name = ZINC35845801
REMARK  5 active torsions:
REMARK  status: ('A' for Active; 'I' for Inactive)
REMARK    1  A    between atoms: C_3  and  C_33
REMARK    2  A    between atoms: C_5  and  N_7
REMARK    3  A    between atoms: C_13  and  C_15
REMARK    4  A    between atoms: C_15  and  N_16
REMARK    5  A    between atoms: C_24  and  C_26
REMARK                            x       y       z     vdW  Elec       q    Type
REMARK                         _______ _______ _______ _____ _____    ______ ____
ROOT
ATOM      1  N   UNL     1       1.238  -2.077  -0.021  0.00  0.00    -0.327 N 
ATOM      2  C   UNL     1       2.510  -2.804  -0.141  0.00  0.00    +0.124 C 
ATOM      3  C   UNL     1       2.635  -3.771   1.042  0.00  0.00    +0.126 C 
ATOM      4  N   UNL     1       1.388  -4.540   1.155  0.00  0.00    -0.300 N 
ATOM      5  C   UNL     1       0.117  -3.813   1.276  0.00  0.00    +0.126 C 
ATOM      6  C   UNL     1      -0.009  -2.846   0.098  0.00  0.00    +0.124 C 
ATOM      7  C   UNL     1       1.410  -5.888   1.148  0.00  0.00    +0.199 C 
ATOM      8  O   UNL     1       2.465  -6.476   1.047  0.00  0.00    -0.278 OA
ENDROOT
BRANCH   1  13
ATOM      9  C   UNL     1       2.380   1.415   0.004  0.00  0.00    +0.002 A 
ATOM     10  C   UNL     1       1.171   2.086   0.002  0.00  0.00    +0.012 A 
ATOM     11  C   UNL     1      -0.016   1.377  -0.007  0.00  0.00    +0.057 A 
ATOM     12  C   UNL     1       0.002  -0.004  -0.015  0.00  0.00    +0.035 A 
ATOM     13  C   UNL     1       1.215  -0.681  -0.013  0.00  0.00    +0.030 A 
ATOM     14  C   UNL     1       2.406   0.035  -0.004  0.00  0.00    +0.023 A 
BRANCH  11  15
ATOM     15  C   UNL     1      -1.332   2.112  -0.008  0.00  0.00    +0.417 C 
ATOM     16  F   UNL     1      -1.096   3.491   0.001  0.00  0.00    -0.166 F 
ATOM     17  F   UNL     1      -2.056   1.770  -1.155  0.00  0.00    -0.166 F 
ATOM     18  F   UNL     1      -2.065   1.757   1.129  0.00  0.00    -0.166 F 
ENDBRANCH  11  15
ENDBRANCH   1  13
BRANCH   7  19
ATOM     19  C   UNL     1       0.123  -6.663   1.264  0.00  0.00    +0.020 C 
BRANCH  19  20
ATOM     20  N   UNL     1       0.413  -8.102   1.232  0.00  0.00    +0.395 N 
ATOM     21  C   UNL     1       0.976  -8.457  -0.078  0.00  0.00    -0.055 C 
ATOM     22  C   UNL     1       1.572  -9.869  -0.024  0.00  0.00    +0.103 C 
ATOM     23  N   UNL     1       0.558 -10.768   0.541  0.00  0.00    -0.353 N 
ATOM     24  C   UNL     1       0.522 -12.124   0.501  0.00  0.00    +0.086 A 
ATOM     25  C   UNL     1      -0.594 -12.534   1.142  0.00  0.00    +0.019 A 
ATOM     26  C   UNL     1      -1.270 -11.382   1.596  0.00  0.00    +0.021 A 
ATOM     27  C   UNL     1      -0.545 -10.319   1.219  0.00  0.00    +0.009 A 
ATOM     28  C   UNL     1      -0.829  -8.857   1.466  0.00  0.00    +0.011 C 
ATOM     29  H   UNL     1       1.082  -8.326   1.953  0.00  0.00    -0.080 HD
BRANCH  28  30
ATOM     30  C   UNL     1      -1.283  -8.661   2.889  0.00  0.00    -0.055 A 
ATOM     31  C   UNL     1      -0.355  -8.635   3.913  0.00  0.00    +0.004 A 
ATOM     32  C   UNL     1      -0.771  -8.455   5.219  0.00  0.00    +0.020 A 
ATOM     33  C   UNL     1      -2.117  -8.300   5.501  0.00  0.00    +0.041 A 
ATOM     34  C   UNL     1      -3.045  -8.326   4.476  0.00  0.00    +0.020 A 
ATOM     35  C   UNL     1      -2.627  -8.501   3.170  0.00  0.00    +0.004 A 
ATOM     36 CL   UNL     1      -2.640  -8.075   7.141  0.00  0.00    -0.084 Cl
ENDBRANCH  28  30
ENDBRANCH  19  20
ENDBRANCH   7  19
TORSDOF 5
