REMARK  Name = ZINC22510367
REMARK  6 active torsions:
REMARK  status: ('A' for Active; 'I' for Inactive)
REMARK    1  A    between atoms: C_1  and  N_2
REMARK    2  A    between atoms: N_2  and  C_3
REMARK    3  A    between atoms: C_4  and  C_6
REMARK    4  A    between atoms: C_10  and  N_12
REMARK    5  A    between atoms: C_13  and  C_15
REMARK    6  A    between atoms: C_18  and  C_20
REMARK                            x       y       z     vdW  Elec       q    Type
REMARK                         _______ _______ _______ _____ _____    ______ ____
ROOT
ATOM      1  N   UNL     1       6.733   2.399  -0.801  0.00  0.00    -0.280 N 
ATOM      2  C   UNL     1       5.764   2.815   0.038  0.00  0.00    +0.267 C 
ATOM      3  O   UNL     1       5.979   3.728   0.812  0.00  0.00    -0.268 OA
ATOM      4  H   UNL     1       6.558   1.537  -1.460  0.00  0.00    +0.155 HD
ENDROOT
BRANCH   1   9
ATOM      5  C   UNL     1       9.245   5.093  -0.647  0.00  0.00    +0.039 A 
ATOM      6  C   UNL     1      10.413   4.370  -0.901  0.00  0.00    +0.013 A 
ATOM      7  C   UNL     1      10.349   3.009  -1.117  0.00  0.00    +0.003 A 
ATOM      8  C   UNL     1       9.131   2.356  -1.084  0.00  0.00    +0.023 A 
ATOM      9  C   UNL     1       7.963   3.065  -0.833  0.00  0.00    +0.034 A 
ATOM     10  C   UNL     1       8.016   4.434  -0.619  0.00  0.00    +0.036 A 
BRANCH   5  14
ATOM     11  C   UNL     1      10.513   8.546   0.299  0.00  0.00    +0.132 C 
ATOM     12  N   UNL     1      10.393   7.091   0.180  0.00  0.00    -0.304 N 
ATOM     13  C   UNL     1      11.448   6.223   0.708  0.00  0.00    +0.132 C 
ATOM     14  C   UNL     1       9.311   6.551  -0.415  0.00  0.00    +0.246 C 
ATOM     15  O   UNL     1       8.389   7.264  -0.761  0.00  0.00    -0.270 OA
ENDBRANCH   5  14
ENDBRANCH   1   9
BRANCH   2  16
ATOM     16  C   UNL     1       4.443   2.163   0.017  0.00  0.00    +0.133 A 
ATOM     17  C   UNL     1       3.449   2.579   0.868  0.00  0.00    +0.080 A 
ATOM     18  S   UNL     1       2.149   1.513   0.431  0.00  0.00    -0.075 S 
ATOM     19  C   UNL     1       3.011   0.591  -0.832  0.00  0.00    +0.109 A 
ATOM     20  N   UNL     1       4.199   1.168  -0.822  0.00  0.00    -0.234 NA
BRANCH  19  21
ATOM     21  C   UNL     1       2.522  -0.523  -1.673  0.00  0.00    +0.007 A 
ATOM     22  C   UNL     1       1.215  -0.991  -1.525  0.00  0.00    +0.012 A 
ATOM     23  C   UNL     1       0.766  -2.033  -2.308  0.00  0.00    +0.020 A 
ATOM     24  C   UNL     1       1.605  -2.609  -3.248  0.00  0.00    +0.041 A 
ATOM     25  C   UNL     1       2.902  -2.148  -3.400  0.00  0.00    +0.020 A 
ATOM     26  C   UNL     1       3.364  -1.110  -2.618  0.00  0.00    +0.012 A 
ATOM     27 CL   UNL     1       1.030  -3.917  -4.234  0.00  0.00    -0.084 Cl
ENDBRANCH  19  21
ENDBRANCH   2  16
TORSDOF 4
