REMARK  Name = ZINC36188829
REMARK  9 active torsions:
REMARK  status: ('A' for Active; 'I' for Inactive)
REMARK    1  A    between atoms: C_1  and  C_2
REMARK    2  A    between atoms: C_14  and  C_15
REMARK    3  A    between atoms: C_15  and  O_17
REMARK    4  A    between atoms: O_17  and  C_18
REMARK    5  A    between atoms: C_18  and  C_20
REMARK    6  A    between atoms: C_18  and  C_21
REMARK    7  A    between atoms: N_23  and  C_24
REMARK    8  A    between atoms: C_27  and  S_30
REMARK    9  A    between atoms: S_30  and  N_33
REMARK                            x       y       z     vdW  Elec       q    Type
REMARK                         _______ _______ _______ _____ _____    ______ ____
ROOT
ATOM      1  C   UNL     1       0.067  -0.776   4.823  0.00  0.00    +0.259 C 
ATOM      2  C   UNL     1       1.513  -0.588   5.287  0.00  0.00    +0.062 C 
ENDROOT
BRANCH   1   3
ATOM      3  C   UNL     1      -0.629  -1.755   5.733  0.00  0.00    +0.258 C 
ATOM      4  O   UNL     1      -1.007  -2.823   5.300  0.00  0.00    -0.271 OA
ATOM      5  N   UNL     1      -0.831  -1.444   7.029  0.00  0.00    -0.282 N 
ATOM      6  H   UNL     1      -0.469  -0.620   7.392  0.00  0.00    +0.155 HD
BRANCH   5   7
ATOM      7  C   UNL     1      -1.561  -2.310   7.851  0.00  0.00    +0.034 A 
ATOM      8  C   UNL     1      -2.385  -1.797   8.844  0.00  0.00    +0.025 A 
ATOM      9  C   UNL     1      -3.104  -2.654   9.654  0.00  0.00    +0.030 A 
ATOM     10  C   UNL     1      -3.005  -4.021   9.476  0.00  0.00    +0.105 A 
ATOM     11  C   UNL     1      -2.186  -4.535   8.488  0.00  0.00    +0.030 A 
ATOM     12  C   UNL     1      -1.468  -3.684   7.671  0.00  0.00    +0.025 A 
BRANCH  10  13
ATOM     13  S   UNL     1      -3.925  -5.111  10.511  0.00  0.00    +0.056 S 
ATOM     14  O   UNL     1      -3.240  -6.356  10.500  0.00  0.00    -0.153 OA
ATOM     15  O   UNL     1      -4.194  -4.401  11.711  0.00  0.00    -0.153 OA
BRANCH  13  16
ATOM     16  N   UNL     1      -5.386  -5.368   9.775  0.00  0.00    -0.204 NA
ATOM     17  H   UNL     1      -5.584  -4.940   8.928  0.00  0.00    +0.144 HD
ATOM     18  H   UNL     1      -6.043  -5.947  10.191  0.00  0.00    +0.144 HD
ENDBRANCH  13  16
ENDBRANCH  10  13
ENDBRANCH   5   7
ENDBRANCH   1   3
BRANCH   1  19
ATOM     19  O   UNL     1       0.058  -1.280   3.486  0.00  0.00    -0.447 OA
BRANCH  19  20
ATOM     20  C   UNL     1       0.043  -0.371   2.489  0.00  0.00    +0.376 C 
ATOM     21  O   UNL     1       0.038   0.817   2.750  0.00  0.00    -0.241 OA
BRANCH  20  35
ATOM     22  C   UNL     1       0.007   1.509   0.016  0.00  0.00    +0.048 C 
ATOM     23  C   UNL     1       0.017   0.002   0.005  0.00  0.00    +0.010 A 
ATOM     24  C   UNL     1       0.018  -0.834  -1.139  0.00  0.00    +0.025 A 
ATOM     25  C   UNL     1       0.011  -0.573  -2.525  0.00  0.00    +0.012 A 
ATOM     26  C   UNL     1       0.013  -1.589  -3.420  0.00  0.00    +0.009 A 
ATOM     27  C   UNL     1       0.024  -2.929  -2.979  0.00  0.00    -0.014 A 
ATOM     28  C   UNL     1       0.028  -3.990  -3.897  0.00  0.00    +0.008 A 
ATOM     29  C   UNL     1       0.038  -5.276  -3.446  0.00  0.00    +0.001 A 
ATOM     30  C   UNL     1       0.046  -5.555  -2.083  0.00  0.00    +0.001 A 
ATOM     31  C   UNL     1       0.042  -4.550  -1.163  0.00  0.00    +0.012 A 
ATOM     32  C   UNL     1       0.032  -3.215  -1.592  0.00  0.00    +0.025 A 
ATOM     33  C   UNL     1       0.028  -2.150  -0.665  0.00  0.00    +0.144 A 
ATOM     34  O   UNL     1       0.034  -2.102   0.680  0.00  0.00    -0.447 OA
ATOM     35  C   UNL     1       0.032  -0.816   1.091  0.00  0.00    +0.216 A 
ENDBRANCH  20  35
ENDBRANCH  19  20
ENDBRANCH   1  19
TORSDOF 7
