REMARK  Name = ZINC44737401
REMARK  7 active torsions:
REMARK  status: ('A' for Active; 'I' for Inactive)
REMARK    1  A    between atoms: C_1  and  C_2
REMARK    2  A    between atoms: C_10  and  C_12
REMARK    3  A    between atoms: C_12  and  C_13
REMARK    4  A    between atoms: C_12  and  N_14
REMARK    5  A    between atoms: C_15  and  C_17
REMARK    6  A    between atoms: C_27  and  C_29
REMARK    7  A    between atoms: C_34  and  C_35
REMARK                            x       y       z     vdW  Elec       q    Type
REMARK                         _______ _______ _______ _____ _____    ______ ____
ROOT
ATOM      1  C   UNL     1      -1.404  -8.657   1.602  0.00  0.00    +0.100 C 
ATOM      2  C   UNL     1      -0.478  -9.137   0.462  0.00  0.00    +0.121 C 
ATOM      3  N   UNL     1       0.007 -10.464   0.907  0.00  0.00    -0.296 N 
ATOM      4  C   UNL     1      -1.175 -11.094   1.544  0.00  0.00    +0.115 C 
ATOM      5  C   UNL     1      -1.859  -9.946   2.307  0.00  0.00    -0.004 C 
ATOM      6  C   UNL     1      -1.407  -9.940   3.764  0.00  0.00    -0.010 C 
ATOM      7  C   UNL     1      -1.920 -11.205   4.457  0.00  0.00    -0.082 C 
ATOM      8  N   UNL     1      -3.385 -11.248   4.379  0.00  0.00    +0.379 N 
ATOM      9  C   UNL     1      -3.809 -11.347   2.977  0.00  0.00    -0.082 C 
ATOM     10  C   UNL     1      -3.376 -10.088   2.221  0.00  0.00    -0.010 C 
ATOM     11  C   UNL     1       1.243 -10.983   0.765  0.00  0.00    +0.247 C 
ATOM     12  O   UNL     1       1.462 -12.131   1.099  0.00  0.00    -0.270 OA
ATOM     13  H   UNL     1      -3.725 -12.050   4.889  0.00  0.00    -0.086 HD
ATOM     14  H   UNL     1      -3.767 -10.407   4.786  0.00  0.00    -0.086 HD
ENDROOT
BRANCH  11  15
ATOM     15  C   UNL     1       2.332 -10.155   0.204  0.00  0.00    +0.043 A 
ATOM     16  C   UNL     1       2.060  -9.232  -0.806  0.00  0.00    +0.051 A 
ATOM     17  C   UNL     1       3.083  -8.461  -1.326  0.00  0.00    +0.124 A 
ATOM     18  C   UNL     1       4.374  -8.604  -0.844  0.00  0.00    +0.038 A 
ATOM     19  C   UNL     1       4.648  -9.517   0.157  0.00  0.00    +0.007 A 
ATOM     20  C   UNL     1       3.634 -10.289   0.688  0.00  0.00    -0.038 A 
ATOM     21  C   UNL     1       3.934 -11.279   1.783  0.00  0.00    +0.044 C 
ATOM     22  F   UNL     1       2.823  -7.566  -2.305  0.00  0.00    -0.205 F 
ENDBRANCH  11  15
BRANCH   1  24
ATOM     23  N   UNL     1      -1.290  -6.813   3.247  0.00  0.00    -0.305 N 
ATOM     24  C   UNL     1      -0.644  -7.776   2.560  0.00  0.00    +0.219 C 
ATOM     25  O   UNL     1       0.549  -7.934   2.712  0.00  0.00    -0.275 OA
ATOM     26  H   UNL     1      -2.244  -6.687   3.125  0.00  0.00    +0.149 HD
BRANCH  23  27
ATOM     27  C   UNL     1      -0.551  -5.957   4.178  0.00  0.00    +0.136 C 
ATOM     28  C   UNL     1       0.072  -4.788   3.412  0.00  0.00    +0.036 C 
BRANCH  27  38
ATOM     29  C   UNL     1      -4.108  -3.220  10.114  0.00  0.00    +0.044 C 
ATOM     30  C   UNL     1      -3.822  -3.770   8.741  0.00  0.00    -0.048 A 
ATOM     31  C   UNL     1      -4.861  -3.941   7.837  0.00  0.00    +0.005 A 
ATOM     32  C   UNL     1      -4.623  -4.438   6.587  0.00  0.00    +0.030 A 
ATOM     33  C   UNL     1      -3.321  -4.779   6.210  0.00  0.00    +0.089 A 
ATOM     34  C   UNL     1      -2.269  -4.606   7.125  0.00  0.00    +0.067 A 
ATOM     35  C   UNL     1      -2.530  -4.095   8.389  0.00  0.00    +0.031 A 
ATOM     36  N   UNL     1      -1.125  -5.023   6.474  0.00  0.00    -0.340 N 
ATOM     37  H   UNL     1      -0.226  -5.029   6.838  0.00  0.00    +0.167 HD
ATOM     38  C   UNL     1      -1.493  -5.425   5.227  0.00  0.00    +0.128 A 
ATOM     39  N   UNL     1      -2.777  -5.282   5.072  0.00  0.00    -0.231 NA
ENDBRANCH  27  38
ENDBRANCH  23  27
ENDBRANCH   1  24
TORSDOF 4
