REMARK  Name = ZINC00709142
REMARK  6 active torsions:
REMARK  status: ('A' for Active; 'I' for Inactive)
REMARK    1  A    between atoms: C_1  and  O_2
REMARK    2  A    between atoms: O_2  and  C_3
REMARK    3  A    between atoms: C_8  and  N_9
REMARK    4  A    between atoms: C_15  and  C_17
REMARK    5  A    between atoms: C_22  and  C_35
REMARK    6  A    between atoms: C_25  and  C_28
REMARK                            x       y       z     vdW  Elec       q    Type
REMARK                         _______ _______ _______ _____ _____    ______ ____
ROOT
ATOM      1  C   UNL     1       0.167   1.824  -0.267  0.00  0.00    +0.167 A 
ATOM      2  C   UNL     1       1.429   2.457  -0.252  0.00  0.00    +0.112 A 
ATOM      3  C   UNL     1       2.374   1.497  -0.398  0.00  0.00    +0.137 A 
ATOM      4  N   UNL     1       1.734   0.297  -0.502  0.00  0.00    -0.237 N 
ATOM      5  N   UNL     1       0.360   0.526  -0.419  0.00  0.00    -0.163 NA
ATOM      6  C   UNL     1       2.420  -0.989  -0.672  0.00  0.00    +0.215 C 
ATOM      7  C   UNL     1       3.901  -0.782  -0.324  0.00  0.00    +0.063 C 
ATOM      8  C   UNL     1       4.405   0.483  -1.027  0.00  0.00    +0.104 C 
ATOM      9  N   UNL     1       3.757   1.666  -0.440  0.00  0.00    -0.321 N 
ATOM     10 CL   UNL     1       1.718   4.160  -0.077  0.00  0.00    -0.078 Cl
ATOM     11  H   UNL     1       4.125   1.861   0.479  0.00  0.00    +0.148 HD
ENDROOT
BRANCH   1  18
ATOM     12  N   UNL     1      -4.443   0.566  -1.548  0.00  0.00    -0.324 N 
ATOM     13  C   UNL     1      -3.099  -0.002  -1.724  0.00  0.00    +0.124 C 
ATOM     14  C   UNL     1      -2.242   0.334  -0.499  0.00  0.00    +0.127 C 
ATOM     15  N   UNL     1      -2.280   1.789  -0.287  0.00  0.00    -0.293 N 
ATOM     16  C   UNL     1      -3.592   2.451  -0.231  0.00  0.00    +0.127 C 
ATOM     17  C   UNL     1      -4.396   2.032  -1.473  0.00  0.00    +0.124 C 
ATOM     18  C   UNL     1      -1.141   2.497  -0.143  0.00  0.00    +0.268 C 
ATOM     19  O   UNL     1      -1.192   3.689   0.090  0.00  0.00    -0.268 OA
BRANCH  12  25
ATOM     20  C   UNL     1      -5.668  -1.198  -2.663  0.00  0.00    +0.141 A 
ATOM     21  C   UNL     1      -6.525  -1.609  -3.670  0.00  0.00    +0.047 A 
ATOM     22  C   UNL     1      -7.007  -0.692  -4.586  0.00  0.00    +0.004 A 
ATOM     23  C   UNL     1      -6.641   0.638  -4.496  0.00  0.00    +0.002 A 
ATOM     24  C   UNL     1      -5.791   1.058  -3.490  0.00  0.00    +0.027 A 
ATOM     25  C   UNL     1      -5.303   0.143  -2.568  0.00  0.00    +0.072 A 
BRANCH  20  27
ATOM     26  C   UNL     1      -5.605  -3.458  -1.923  0.00  0.00    +0.277 C 
ATOM     27  O   UNL     1      -5.189  -2.100  -1.764  0.00  0.00    -0.493 OA
ENDBRANCH  20  27
ENDBRANCH  12  25
ENDBRANCH   1  18
BRANCH   8  28
ATOM     28  C   UNL     1       4.073   0.407  -2.495  0.00  0.00    -0.027 A 
ATOM     29  C   UNL     1       4.505  -0.670  -3.246  0.00  0.00    +0.006 A 
ATOM     30  C   UNL     1       4.197  -0.743  -4.592  0.00  0.00    +0.015 A 
ATOM     31  C   UNL     1       3.465   0.268  -5.189  0.00  0.00    +0.018 A 
ATOM     32  C   UNL     1       3.036   1.347  -4.437  0.00  0.00    +0.015 A 
ATOM     33  C   UNL     1       3.341   1.416  -3.091  0.00  0.00    +0.006 A 
ATOM     34 BR   UNL     1       3.048   0.172  -7.031  0.00  0.00    -0.050 Br
ENDBRANCH   8  28
BRANCH   6  35
ATOM     35  C   UNL     1       1.808  -2.031   0.267  0.00  0.00    +0.412 C 
ATOM     36  F   UNL     1       0.450  -2.187  -0.032  0.00  0.00    -0.168 F 
ATOM     37  F   UNL     1       2.465  -3.254   0.099  0.00  0.00    -0.168 F 
ATOM     38  F   UNL     1       1.948  -1.603   1.591  0.00  0.00    -0.168 F 
ENDBRANCH   6  35
TORSDOF 5
