REMARK  Name = ZINC67120191
REMARK  11 active torsions:
REMARK  status: ('A' for Active; 'I' for Inactive)
REMARK    1  A    between atoms: C_1  and  N_2
REMARK    2  A    between atoms: C_3  and  C_5
REMARK    3  A    between atoms: C_5  and  O_6
REMARK    4  A    between atoms: O_6  and  C_7
REMARK    5  A    between atoms: C_10  and  C_15
REMARK    6  A    between atoms: C_12  and  O_13
REMARK    7  A    between atoms: O_13  and  C_14
REMARK    8  A    between atoms: C_15  and  N_16
REMARK    9  A    between atoms: N_16  and  C_17
REMARK   10  A    between atoms: C_17  and  C_18
REMARK   11  A    between atoms: C_21  and  N_24
REMARK                            x       y       z     vdW  Elec       q    Type
REMARK                         _______ _______ _______ _____ _____    ______ ____
ROOT
ATOM      1  N   UNL     1      -2.974  -8.848   1.351  0.00  0.00    +0.384 N 
ATOM      2  H   UNL     1      -2.069  -8.734   1.781  0.00  0.00    -0.085 HD
ATOM      3  H   UNL     1      -3.661  -8.320   1.867  0.00  0.00    -0.085 HD
ENDROOT
BRANCH   1   4
ATOM      4  C   UNL     1      -2.922  -8.361  -0.034  0.00  0.00    -0.046 C 
BRANCH   4   8
ATOM      5  C   UNL     1      -1.839  -4.224  -0.052  0.00  0.00    +0.163 A 
ATOM      6  C   UNL     1      -0.858  -5.200  -0.112  0.00  0.00    +0.049 A 
ATOM      7  C   UNL     1      -1.211  -6.537  -0.106  0.00  0.00    +0.005 A 
ATOM      8  C   UNL     1      -2.543  -6.903  -0.040  0.00  0.00    -0.061 A 
ATOM      9  C   UNL     1      -3.527  -5.934   0.019  0.00  0.00    +0.051 A 
ATOM     10  C   UNL     1      -3.179  -4.592   0.019  0.00  0.00    +0.162 A 
BRANCH  10  11
ATOM     11  O   UNL     1      -4.146  -3.638   0.084  0.00  0.00    -0.491 OA
ATOM     12  C   UNL     1      -5.500  -4.090   0.155  0.00  0.00    +0.277 C 
ENDBRANCH  10  11
BRANCH   5  13
ATOM     13  O   UNL     1      -1.494  -2.909  -0.058  0.00  0.00    -0.479 OA
BRANCH  13  14
ATOM     14  C   UNL     1      -0.099  -2.605  -0.133  0.00  0.00    +0.324 C 
BRANCH  14  17
ATOM     15  C   UNL     1       1.515   0.866  -0.187  0.00  0.00    +0.128 C 
ATOM     16  N   UNL     1       1.331  -0.587  -0.192  0.00  0.00    -0.316 N 
ATOM     17  C   UNL     1       0.090  -1.110  -0.128  0.00  0.00    +0.250 C 
ATOM     18  O   UNL     1      -0.874  -0.377  -0.066  0.00  0.00    -0.272 OA
ATOM     19  H   UNL     1       2.102  -1.174  -0.242  0.00  0.00    +0.148 HD
ENDBRANCH  14  17
ENDBRANCH  13  14
ENDBRANCH   5  13
ENDBRANCH   4   8
ENDBRANCH   1   4
BRANCH   1  20
ATOM     20  C   UNL     1      -3.344 -10.270   1.356  0.00  0.00    -0.046 C 
BRANCH  20  21
ATOM     21  C   UNL     1      -3.397 -10.769   2.777  0.00  0.00    -0.064 A 
ATOM     22  C   UNL     1      -2.262 -11.294   3.367  0.00  0.00    +0.003 A 
ATOM     23  C   UNL     1      -2.308 -11.752   4.669  0.00  0.00    +0.023 A 
ATOM     24  C   UNL     1      -3.495 -11.686   5.386  0.00  0.00    +0.035 A 
ATOM     25  C   UNL     1      -4.633 -11.158   4.791  0.00  0.00    +0.023 A 
ATOM     26  C   UNL     1      -4.580 -10.696   3.490  0.00  0.00    +0.003 A 
BRANCH  24  27
ATOM     27  N   UNL     1      -3.545 -12.150   6.705  0.00  0.00    -0.270 N 
ATOM     28  C   UNL     1      -2.464 -12.032   7.502  0.00  0.00    +0.301 C 
ATOM     29  O   UNL     1      -1.480 -11.437   7.108  0.00  0.00    -0.253 OA
ATOM     30  N   UNL     1      -2.475 -12.574   8.736  0.00  0.00    -0.313 N 
ATOM     31  H   UNL     1      -4.357 -12.557   7.046  0.00  0.00    +0.156 HD
ATOM     32  H   UNL     1      -3.260 -13.049   9.051  0.00  0.00    +0.146 HD
ATOM     33  H   UNL     1      -1.697 -12.489   9.310  0.00  0.00    +0.146 HD
ENDBRANCH  24  27
ENDBRANCH  20  21
ENDBRANCH   1  20
TORSDOF 9
