REMARK  Name = ZINC42133008
REMARK  7 active torsions:
REMARK  status: ('A' for Active; 'I' for Inactive)
REMARK    1  A    between atoms: C_1  and  C_2
REMARK    2  A    between atoms: C_3  and  C_8
REMARK    3  A    between atoms: C_4  and  C_7
REMARK    4  A    between atoms: C_8  and  N_9
REMARK    5  A    between atoms: N_9  and  C_10
REMARK    6  A    between atoms: N_9  and  C_11
REMARK    7  A    between atoms: C_11  and  C_12
REMARK                            x       y       z     vdW  Elec       q    Type
REMARK                         _______ _______ _______ _____ _____    ______ ____
ROOT
ATOM      1  C   UNL     1       2.733   0.268  -5.142  0.00  0.00    +0.116 A 
ATOM      2  N   UNL     1       3.397   1.409  -5.079  0.00  0.00    -0.219 NA
ATOM      3  C   UNL     1       4.688   1.490  -5.357  0.00  0.00    +0.128 A 
ATOM      4  C   UNL     1       5.388   0.311  -5.737  0.00  0.00    +0.051 A 
ATOM      5  C   UNL     1       6.806   0.164  -6.086  0.00  0.00    -0.025 A 
ATOM      6  C   UNL     1       7.222  -1.074  -6.418  0.00  0.00    -0.004 A 
ATOM      7  S   UNL     1       5.783  -2.103  -6.277  0.00  0.00    -0.073 S 
ATOM      8  C   UNL     1       4.616  -0.865  -5.781  0.00  0.00    +0.114 A 
ATOM      9  N   UNL     1       3.331  -0.858  -5.483  0.00  0.00    -0.227 NA
ATOM     10  C   UNL     1       8.597  -1.501  -6.830  0.00  0.00    +0.043 C 
ATOM     11  C   UNL     1       9.621  -0.948  -5.831  0.00  0.00    +0.005 C 
ATOM     12  C   UNL     1      10.066   0.429  -6.312  0.00  0.00    +0.001 C 
ATOM     13  C   UNL     1       8.911   1.134  -7.021  0.00  0.00    +0.005 C 
ATOM     14  C   UNL     1       7.752   1.361  -6.059  0.00  0.00    +0.037 C 
ATOM     15  N   UNL     1       5.347   2.704  -5.281  0.00  0.00    -0.343 N 
ATOM     16  H   UNL     1       6.299   2.728  -5.100  0.00  0.00    +0.144 HD
ATOM     17  H   UNL     1       4.856   3.531  -5.408  0.00  0.00    +0.144 HD
ENDROOT
BRANCH   1  18
ATOM     18  C   UNL     1       1.263   0.251  -4.811  0.00  0.00    -0.001 C 
BRANCH  18  19
ATOM     19  N   UNL     1       1.088   0.003  -3.374  0.00  0.00    +0.385 N 
ATOM     20  C   UNL     1       1.645   1.128  -2.611  0.00  0.00    -0.095 C 
ATOM     21  H   UNL     1       1.568  -0.847  -3.118  0.00  0.00    -0.081 HD
BRANCH  19  22
ATOM     22  C   UNL     1      -0.343  -0.133  -3.072  0.00  0.00    -0.037 C 
BRANCH  22  25
ATOM     23  C   UNL     1      -0.660   1.893  -0.646  0.00  0.00    +0.069 C 
ATOM     24  C   UNL     1      -0.658   0.389  -0.549  0.00  0.00    +0.082 A 
ATOM     25  C   UNL     1      -0.517  -0.508  -1.623  0.00  0.00    +0.001 A 
ATOM     26  C   UNL     1      -0.566  -1.761  -1.131  0.00  0.00    +0.136 A 
ATOM     27  O   UNL     1      -0.730  -1.679   0.198  0.00  0.00    -0.359 OA
ATOM     28  N   UNL     1      -0.780  -0.307   0.546  0.00  0.00    -0.083 NA
ATOM     29  C   UNL     1      -0.455  -3.032  -1.933  0.00  0.00    +0.089 C 
ENDBRANCH  22  25
ENDBRANCH  19  22
ENDBRANCH  18  19
ENDBRANCH   1  18
TORSDOF 4
