REMARK  Name = ZINC04651108
REMARK  7 active torsions:
REMARK  status: ('A' for Active; 'I' for Inactive)
REMARK    1  A    between atoms: C_1  and  C_2
REMARK    2  A    between atoms: C_3  and  C_9
REMARK    3  A    between atoms: C_4  and  C_8
REMARK    4  A    between atoms: N_5  and  C_7
REMARK    5  A    between atoms: C_20  and  O_34
REMARK    6  A    between atoms: C_24  and  C_33
REMARK    7  A    between atoms: C_29  and  C_32
REMARK                            x       y       z     vdW  Elec       q    Type
REMARK                         _______ _______ _______ _____ _____    ______ ____
ROOT
ATOM      1  C   UNL     1       0.053  -0.586  -2.601  0.00  0.00    +0.018 C 
ATOM      2  C   UNL     1      -0.757   0.392  -3.077  0.00  0.00    -0.003 C 
ATOM      3  C   UNL     1      -0.927   0.766  -4.540  0.00  0.00    +0.043 C 
ATOM      4  C   UNL     1      -1.424   2.245  -4.478  0.00  0.00    +0.010 C 
ATOM      5  C   UNL     1      -0.177   3.105  -4.250  0.00  0.00    +0.001 C 
ATOM      6  C   UNL     1       0.498   3.316  -5.614  0.00  0.00    +0.031 C 
ATOM      7  C   UNL     1       1.627   4.293  -5.484  0.00  0.00    -0.027 C 
ATOM      8  C   UNL     1       1.735   5.141  -4.512  0.00  0.00    -0.065 C 
ATOM      9  C   UNL     1       2.952   6.049  -4.438  0.00  0.00    +0.062 C 
ATOM     10  C   UNL     1       3.219   6.317  -2.950  0.00  0.00    +0.119 C 
ATOM     11  C   UNL     1       2.883   5.068  -2.138  0.00  0.00    +0.032 C 
ATOM     12  C   UNL     1       1.374   4.834  -2.087  0.00  0.00    +0.014 C 
ATOM     13  C   UNL     1       0.731   5.273  -3.401  0.00  0.00    -0.008 C 
ATOM     14  C   UNL     1      -0.539   4.469  -3.663  0.00  0.00    +0.003 C 
ATOM     15  C   UNL     1      -1.267   4.259  -2.327  0.00  0.00    +0.005 C 
ATOM     16  C   UNL     1      -2.568   3.506  -2.589  0.00  0.00    +0.015 C 
ATOM     17  C   UNL     1      -2.315   2.164  -3.226  0.00  0.00    +0.034 C 
ATOM     18  C   UNL     1      -1.588   1.227  -2.296  0.00  0.00    +0.165 C 
ATOM     19  O   UNL     1      -1.695   1.196  -1.086  0.00  0.00    -0.292 OA
ATOM     20  C   UNL     1      -3.643   1.511  -3.612  0.00  0.00    +0.020 C 
ATOM     21  C   UNL     1       0.341   6.747  -3.276  0.00  0.00    +0.016 C 
ENDROOT
BRANCH   1  24
ATOM     22  C   UNL     1      -2.494  -1.653  -1.036  0.00  0.00    +0.068 C 
ATOM     23  C   UNL     1      -1.117  -1.424  -0.467  0.00  0.00    +0.067 A 
ATOM     24  C   UNL     1       0.009  -0.947  -1.179  0.00  0.00    +0.019 A 
ATOM     25  C   UNL     1       1.062  -0.886  -0.282  0.00  0.00    +0.043 A 
ATOM     26  N   UNL     1       0.599  -1.303   0.908  0.00  0.00    -0.271 N 
ATOM     27  N   UNL     1      -0.756  -1.626   0.770  0.00  0.00    -0.176 NA
ATOM     28  C   UNL     1       1.379  -1.398   2.144  0.00  0.00    +0.172 C 
ATOM     29  C   UNL     1       2.468  -0.435  -0.584  0.00  0.00    +0.066 C 
ENDBRANCH   1  24
BRANCH  10  30
ATOM     30  O   UNL     1       4.596   6.649  -2.765  0.00  0.00    -0.391 OA
ATOM     31  H   UNL     1       4.880   7.435  -3.252  0.00  0.00    +0.210 HD
ENDBRANCH  10  30
TORSDOF 2
