REMARK  Name = ZINC04457541
REMARK  8 active torsions:
REMARK  status: ('A' for Active; 'I' for Inactive)
REMARK    1  A    between atoms: C_1  and  C_2
REMARK    2  A    between atoms: C_2  and  C_3
REMARK    3  A    between atoms: C_3  and  N_4
REMARK    4  A    between atoms: C_11  and  C_23
REMARK    5  A    between atoms: C_13  and  C_19
REMARK    6  A    between atoms: C_13  and  C_21
REMARK    7  A    between atoms: C_14  and  N_18
REMARK    8  A    between atoms: C_15  and  C_16
REMARK                            x       y       z     vdW  Elec       q    Type
REMARK                         _______ _______ _______ _____ _____    ______ ____
ROOT
ATOM      1  N   UNL     1       0.971  -1.906  -0.739  0.00  0.00    -0.298 NA
ATOM      2  C   UNL     1      -0.435  -2.336  -0.851  0.00  0.00    +0.112 C 
ATOM      3  C   UNL     1      -0.448  -3.845  -0.882  0.00  0.00    -0.007 C 
ATOM      4  C   UNL     1       0.547  -4.501  -1.448  0.00  0.00    -0.026 C 
ATOM      5  C   UNL     1       1.698  -3.814  -2.127  0.00  0.00    +0.044 C 
ATOM      6  C   UNL     1       1.722  -2.316  -1.928  0.00  0.00    +0.093 C 
ATOM      7  C   UNL     1       2.993  -4.479  -1.655  0.00  0.00    +0.069 C 
ATOM      8  C   UNL     1       2.990  -5.941  -2.103  0.00  0.00    +0.188 C 
ATOM      9  C   UNL     1       1.718  -6.637  -1.725  0.00  0.00    +0.054 C 
ATOM     10  C   UNL     1       0.565  -5.985  -1.428  0.00  0.00    +0.074 C 
ENDROOT
BRANCH   7  11
ATOM     11  C   UNL     1       4.175  -3.765  -2.259  0.00  0.00    -0.023 A 
ATOM     12  C   UNL     1       4.175  -3.417  -3.601  0.00  0.00    +0.007 A 
ATOM     13  C   UNL     1       5.284  -2.762  -4.113  0.00  0.00    +0.020 A 
ATOM     14  C   UNL     1       6.346  -2.480  -3.275  0.00  0.00    +0.111 A 
ATOM     15  N   UNL     1       6.312  -2.826  -2.003  0.00  0.00    -0.263 NA
ATOM     16  C   UNL     1       5.271  -3.445  -1.480  0.00  0.00    +0.114 A 
ENDBRANCH   7  11
BRANCH   9  17
ATOM     17  N   UNL     1       1.719  -8.003  -1.677  0.00  0.00    -0.358 N 
ATOM     18  H   UNL     1       2.529  -8.495  -1.885  0.00  0.00    +0.142 HD
ATOM     19  H   UNL     1       0.910  -8.480  -1.436  0.00  0.00    +0.142 HD
ENDBRANCH   9  17
BRANCH  10  20
ATOM     20  C   UNL     1      -0.619  -6.720  -1.099  0.00  0.00    +0.101 C 
ATOM     21  N   UNL     1      -1.559  -7.303  -0.838  0.00  0.00    -0.191 NA
ENDBRANCH  10  20
BRANCH   8  22
ATOM     22  C   UNL     1       3.150  -5.995  -3.565  0.00  0.00    +0.091 C 
ATOM     23  N   UNL     1       3.274  -6.036  -4.694  0.00  0.00    -0.194 NA
ENDBRANCH   8  22
BRANCH   8  24
ATOM     24  C   UNL     1       4.124  -6.637  -1.472  0.00  0.00    +0.091 C 
ATOM     25  N   UNL     1       4.998  -7.174  -0.986  0.00  0.00    -0.194 NA
ENDBRANCH   8  24
BRANCH   1  26
ATOM     26  C   UNL     1       1.062  -0.455  -0.533  0.00  0.00    +0.084 C 
BRANCH  26  28
ATOM     27  C   UNL     1       0.579   1.416   1.052  0.00  0.00    +0.005 C 
ATOM     28  C   UNL     1       0.484  -0.096   0.838  0.00  0.00    +0.012 C 
ENDBRANCH  26  28
ENDBRANCH   1  26
TORSDOF 7
