REMARK  Name = ZINC65021987
REMARK  5 active torsions:
REMARK  status: ('A' for Active; 'I' for Inactive)
REMARK    1  A    between atoms: C_1  and  C_2
REMARK    2  A    between atoms: C_8  and  C_10
REMARK    3  A    between atoms: N_13  and  S_16
REMARK    4  A    between atoms: S_16  and  C_19
REMARK    5  A    between atoms: N_28  and  C_29
REMARK                            x       y       z     vdW  Elec       q    Type
REMARK                         _______ _______ _______ _____ _____    ______ ____
ROOT
ATOM      1  C   UNL     1       0.089  -5.172   3.144  0.00  0.00    +0.078 C 
ATOM      2  C   UNL     1       1.339  -4.915   3.989  0.00  0.00    +0.030 C 
ATOM      3  C   UNL     1       1.337  -5.859   5.196  0.00  0.00    +0.110 C 
ATOM      4  N   UNL     1       1.208  -7.241   4.715  0.00  0.00    -0.177 NA
ATOM      5  C   UNL     1       0.091  -7.577   3.820  0.00  0.00    +0.110 C 
ATOM      6  C   UNL     1       0.107  -6.613   2.629  0.00  0.00    +0.030 C 
ENDROOT
BRANCH   1  14
ATOM      7  C   UNL     1      -0.018   1.503   0.010  0.00  0.00    +0.066 C 
ATOM      8  C   UNL     1       0.002  -0.004   0.002  0.00  0.00    +0.047 A 
ATOM      9  C   UNL     1       0.006  -0.706  -1.158  0.00  0.00    +0.071 A 
ATOM     10  S   UNL     1       0.032  -2.379  -0.535  0.00  0.00    -0.060 S 
ATOM     11  C   UNL     1       0.036  -2.015   1.108  0.00  0.00    +0.165 A 
ATOM     12  N   UNL     1       0.023  -0.700   1.124  0.00  0.00    -0.230 NA
ATOM     13  N   UNL     1       0.053  -2.891   2.187  0.00  0.00    -0.264 N 
ATOM     14  C   UNL     1       0.071  -4.222   1.974  0.00  0.00    +0.222 C 
ATOM     15  O   UNL     1       0.071  -4.655   0.841  0.00  0.00    -0.275 OA
ATOM     16  H   UNL     1       0.053  -2.545   3.093  0.00  0.00    +0.157 HD
ENDBRANCH   1  14
BRANCH   4  17
ATOM     17  S   UNL     1       2.300  -8.399   5.171  0.00  0.00    +0.061 S 
ATOM     18  O   UNL     1       2.267  -9.406   4.169  0.00  0.00    -0.153 OA
ATOM     19  O   UNL     1       3.494  -7.714   5.524  0.00  0.00    -0.153 OA
BRANCH  17  20
ATOM     20  C   UNL     1       1.689  -9.139   6.649  0.00  0.00    +0.107 A 
ATOM     21  C   UNL     1       2.029  -8.619   7.886  0.00  0.00    +0.030 A 
ATOM     22  C   UNL     1       1.562  -9.182   9.050  0.00  0.00    +0.029 A 
ATOM     23  C   UNL     1       0.722 -10.308   9.019  0.00  0.00    +0.059 A 
ATOM     24  C   UNL     1       0.396 -10.810   7.751  0.00  0.00    +0.043 A 
ATOM     25  C   UNL     1       0.857 -10.244   6.588  0.00  0.00    +0.045 A 
ATOM     26  S   UNL     1      -0.654 -12.194   8.123  0.00  0.00    -0.027 S 
ATOM     27  C   UNL     1      -0.620 -12.056   9.902  0.00  0.00    +0.291 A 
ATOM     28  O   UNL     1      -1.174 -12.754  10.732  0.00  0.00    -0.259 OA
ATOM     29  N   UNL     1       0.174 -10.985  10.096  0.00  0.00    -0.305 N 
ATOM     30  C   UNL     1       0.460 -10.531  11.459  0.00  0.00    +0.153 C 
ENDBRANCH  17  20
ENDBRANCH   4  17
TORSDOF 3
