REMARK  Name = ZINC40326208
REMARK  5 active torsions:
REMARK  status: ('A' for Active; 'I' for Inactive)
REMARK    1  A    between atoms: C_3  and  S_9
REMARK    2  A    between atoms: C_6  and  N_7
REMARK    3  A    between atoms: S_9  and  N_12
REMARK    4  A    between atoms: N_12  and  C_13
REMARK    5  A    between atoms: C_17  and  C_19
REMARK                            x       y       z     vdW  Elec       q    Type
REMARK                         _______ _______ _______ _____ _____    ______ ____
ROOT
ATOM      1  S   UNL     1       3.890   2.321  -0.023  0.00  0.00    +0.093 S 
ATOM      2  O   UNL     1       4.688   1.766  -1.059  0.00  0.00    -0.148 OA
ATOM      3  O   UNL     1       3.539   3.698   0.014  0.00  0.00    -0.148 OA
ENDROOT
BRANCH   1   6
ATOM      4  C   UNL     1      -0.017   1.385   0.010  0.00  0.00    +0.025 A 
ATOM      5  C   UNL     1       1.171   2.091   0.002  0.00  0.00    +0.032 A 
ATOM      6  C   UNL     1       2.377   1.417  -0.013  0.00  0.00    +0.129 A 
ATOM      7  C   UNL     1       2.400   0.033  -0.021  0.00  0.00    +0.069 A 
ATOM      8  C   UNL     1       1.216  -0.679  -0.014  0.00  0.00    +0.044 A 
ATOM      9  C   UNL     1       0.002  -0.004   0.002  0.00  0.00    +0.026 A 
ATOM     10 CL   UNL     1       3.918  -0.810  -0.040  0.00  0.00    -0.081 Cl
BRANCH   9  11
ATOM     11  N   UNL     1      -1.197  -0.720   0.010  0.00  0.00    -0.358 N 
ATOM     12  H   UNL     1      -2.044  -0.248   0.021  0.00  0.00    +0.142 HD
ATOM     13  H   UNL     1      -1.183  -1.690   0.005  0.00  0.00    +0.142 HD
ENDBRANCH   9  11
ENDBRANCH   1   6
BRANCH   1  14
ATOM     14  N   UNL     1       4.667   1.992   1.401  0.00  0.00    -0.098 NA
BRANCH  14  15
ATOM     15  C   UNL     1       5.906   2.577   1.673  0.00  0.00    +0.076 A 
ATOM     16  C   UNL     1       6.484   3.441   0.749  0.00  0.00    +0.028 A 
ATOM     17  C   UNL     1       7.709   4.024   1.012  0.00  0.00    +0.023 A 
ATOM     18  C   UNL     1       8.369   3.751   2.195  0.00  0.00    +0.058 A 
ATOM     19  C   UNL     1       7.797   2.884   3.130  0.00  0.00    +0.072 A 
ATOM     20  C   UNL     1       6.556   2.301   2.865  0.00  0.00    +0.047 A 
ATOM     21 CL   UNL     1       9.909   4.485   2.519  0.00  0.00    -0.082 Cl
BRANCH  19  22
ATOM     22  C   UNL     1       8.478   2.599   4.356  0.00  0.00    +0.101 C 
ATOM     23  N   UNL     1       9.019   2.373   5.330  0.00  0.00    -0.191 NA
ENDBRANCH  19  22
ENDBRANCH  14  15
ENDBRANCH   1  14
TORSDOF 5
