REMARK  Name = ZINC49840810
REMARK  3 active torsions:
REMARK  status: ('A' for Active; 'I' for Inactive)
REMARK    1  A    between atoms: C_6  and  C_7
REMARK    2  A    between atoms: C_7  and  C_9
REMARK    3  A    between atoms: C_7  and  O_20
REMARK                            x       y       z     vdW  Elec       q    Type
REMARK                         _______ _______ _______ _____ _____    ______ ____
ROOT
ATOM      1  C   UNL     1      -1.293  -0.775   0.010  0.00  0.00    +0.176 C 
ENDROOT
BRANCH   1   2
ATOM      2  C   UNL     1      -1.612  -1.236  -1.389  0.00  0.00    +0.007 A 
ATOM      3  C   UNL     1      -1.247  -2.506  -1.796  0.00  0.00    +0.057 A 
ATOM      4  C   UNL     1      -1.541  -2.933  -3.082  0.00  0.00    +0.163 A 
ATOM      5  C   UNL     1      -2.203  -2.083  -3.960  0.00  0.00    +0.163 A 
ATOM      6  C   UNL     1      -2.565  -0.810  -3.546  0.00  0.00    +0.069 A 
ATOM      7  C   UNL     1      -2.274  -0.391  -2.260  0.00  0.00    +0.051 A 
ATOM      8 CL   UNL     1      -2.735   1.201  -1.743  0.00  0.00    -0.083 Cl
ATOM      9  O   UNL     1      -2.507  -2.486  -5.224  0.00  0.00    -0.485 OA
ATOM     10  C   UNL     1      -1.802  -3.628  -5.723  0.00  0.00    +0.270 C 
ATOM     11  C   UNL     1      -1.813  -4.712  -4.637  0.00  0.00    +0.270 C 
ATOM     12  O   UNL     1      -1.172  -4.185  -3.470  0.00  0.00    -0.485 OA
ENDBRANCH   1   2
BRANCH   1  18
ATOM     13  C   UNL     1      -0.017   1.378   0.010  0.00  0.00    +0.008 A 
ATOM     14  C   UNL     1       1.170   2.087   0.002  0.00  0.00    +0.018 A 
ATOM     15  C   UNL     1       2.378   1.413  -0.013  0.00  0.00    +0.053 A 
ATOM     16  C   UNL     1       2.397   0.028  -0.021  0.00  0.00    +0.138 A 
ATOM     17  C   UNL     1       1.208  -0.680  -0.013  0.00  0.00    +0.046 A 
ATOM     18  C   UNL     1       0.002  -0.004   0.002  0.00  0.00    -0.012 A 
ATOM     19  F   UNL     1       3.576  -0.631  -0.036  0.00  0.00    -0.204 F 
ATOM     20 BR   UNL     1       4.002   2.383  -0.024  0.00  0.00    -0.047 Br
ENDBRANCH   1  18
BRANCH   1  21
ATOM     21  O   UNL     1      -1.166  -1.910   0.869  0.00  0.00    -0.382 OA
ATOM     22  H   UNL     1      -0.469  -2.526   0.606  0.00  0.00    +0.211 HD
ENDBRANCH   1  21
TORSDOF 3
