REMARK  Name = ZINC60241454
REMARK  6 active torsions:
REMARK  status: ('A' for Active; 'I' for Inactive)
REMARK    1  A    between atoms: C_1  and  C_2
REMARK    2  A    between atoms: C_10  and  C_11
REMARK    3  A    between atoms: N_13  and  C_14
REMARK    4  A    between atoms: C_14  and  C_15
REMARK    5  A    between atoms: C_14  and  C_16
REMARK    6  A    between atoms: C_14  and  C_17
REMARK                            x       y       z     vdW  Elec       q    Type
REMARK                         _______ _______ _______ _____ _____    ______ ____
ROOT
ATOM      1  C   UNL     1       0.105  -0.383   2.484  0.00  0.00    +0.280 C 
ATOM      2  O   UNL     1       0.166   0.804   2.745  0.00  0.00    -0.267 OA
ATOM      3  N   UNL     1       0.049  -1.290   3.479  0.00  0.00    -0.300 N 
ATOM      4  H   UNL     1      -0.000  -2.236   3.270  0.00  0.00    +0.150 HD
ENDROOT
BRANCH   1  14
ATOM      5  C   UNL     1       0.223   1.499   0.010  0.00  0.00    +0.048 C 
ATOM      6  C   UNL     1       0.142  -0.006   0.002  0.00  0.00    +0.008 A 
ATOM      7  C   UNL     1       0.111  -0.878  -1.171  0.00  0.00    +0.027 A 
ATOM      8  C   UNL     1       0.140  -0.655  -2.551  0.00  0.00    +0.050 A 
ATOM      9  C   UNL     1       0.094  -1.728  -3.414  0.00  0.00    +0.124 A 
ATOM     10  C   UNL     1       0.018  -3.025  -2.917  0.00  0.00    +0.042 A 
ATOM     11  C   UNL     1      -0.011  -3.257  -1.560  0.00  0.00    +0.050 A 
ATOM     12  C   UNL     1       0.035  -2.191  -0.670  0.00  0.00    +0.136 A 
ATOM     13  O   UNL     1       0.022  -2.112   0.676  0.00  0.00    -0.450 OA
ATOM     14  C   UNL     1       0.091  -0.827   1.083  0.00  0.00    +0.193 A 
ATOM     15  F   UNL     1       0.121  -1.520  -4.749  0.00  0.00    -0.205 F 
ENDBRANCH   1  14
BRANCH   3  16
ATOM     16  C   UNL     1       0.063  -0.848   4.875  0.00  0.00    +0.055 C 
ATOM     17  C   UNL     1       1.366  -0.098   5.160  0.00  0.00    +0.036 C 
ATOM     18  C   UNL     1      -1.126   0.082   5.127  0.00  0.00    +0.036 C 
BRANCH  16  19
ATOM     19  C   UNL     1      -0.036  -2.046   5.783  0.00  0.00    -0.021 A 
ATOM     20  C   UNL     1       0.451  -1.975   7.075  0.00  0.00    +0.009 A 
ATOM     21  C   UNL     1       0.363  -3.073   7.910  0.00  0.00    +0.050 A 
ATOM     22  C   UNL     1      -0.214  -4.249   7.454  0.00  0.00    +0.162 A 
ATOM     23  C   UNL     1      -0.705  -4.320   6.156  0.00  0.00    +0.162 A 
ATOM     24  C   UNL     1      -0.618  -3.213   5.324  0.00  0.00    +0.055 A 
ATOM     25  O   UNL     1      -1.281  -5.462   5.691  0.00  0.00    -0.485 OA
ATOM     26  C   UNL     1      -1.021  -6.661   6.428  0.00  0.00    +0.270 C 
ATOM     27  C   UNL     1      -1.208  -6.358   7.920  0.00  0.00    +0.270 C 
ATOM     28  O   UNL     1      -0.289  -5.323   8.287  0.00  0.00    -0.485 OA
ENDBRANCH  16  19
ENDBRANCH   3  16
TORSDOF 3
