REMARK  Name = ZINC06182428
REMARK  9 active torsions:
REMARK  status: ('A' for Active; 'I' for Inactive)
REMARK    1  A    between atoms: C_1  and  C_2
REMARK    2  A    between atoms: C_5  and  C_32
REMARK    3  A    between atoms: C_9  and  N_10
REMARK    4  A    between atoms: C_9  and  N_58
REMARK    5  A    between atoms: C_13  and  S_20
REMARK    6  A    between atoms: S_20  and  N_23
REMARK    7  A    between atoms: N_23  and  C_24
REMARK    8  A    between atoms: C_29  and  O_30
REMARK    9  A    between atoms: O_30  and  C_31
REMARK                            x       y       z     vdW  Elec       q    Type
REMARK                         _______ _______ _______ _____ _____    ______ ____
ROOT
ATOM      1  N   UNL     1       3.671  -0.700  -0.286  0.00  0.00    -0.319 N 
ATOM      2  C   UNL     1       2.604   0.196  -0.241  0.00  0.00    +0.088 A 
ATOM      3  C   UNL     1       2.524   1.577  -0.153  0.00  0.00    +0.058 A 
ATOM      4  C   UNL     1       1.288   2.194  -0.126  0.00  0.00    +0.111 A 
ATOM      5  C   UNL     1       0.131   1.436  -0.188  0.00  0.00    +0.032 A 
ATOM      6  C   UNL     1       0.203   0.060  -0.277  0.00  0.00    +0.050 A 
ATOM      7  C   UNL     1       1.438  -0.568  -0.303  0.00  0.00    +0.154 A 
ATOM      8  O   UNL     1       1.813  -1.868  -0.383  0.00  0.00    -0.431 OA
ATOM      9  C   UNL     1       3.155  -1.941  -0.372  0.00  0.00    +0.248 A 
ATOM     10  S   UNL     1       4.066  -3.388  -0.455  0.00  0.00    +0.009 S 
ENDROOT
BRANCH   4  11
ATOM     11  S   UNL     1       1.184   3.949  -0.014  0.00  0.00    +0.073 S 
ATOM     12  O   UNL     1       2.409   4.462  -0.519  0.00  0.00    -0.150 OA
ATOM     13  O   UNL     1      -0.077   4.317  -0.556  0.00  0.00    -0.150 OA
BRANCH  11  14
ATOM     14  N   UNL     1       1.137   4.335   1.596  0.00  0.00    -0.213 N 
ATOM     15  H   UNL     1       0.371   4.807   1.959  0.00  0.00    +0.174 HD
BRANCH  14  16
ATOM     16  C   UNL     1       2.202   3.980   2.432  0.00  0.00    +0.090 A 
ATOM     17  C   UNL     1       3.503   4.008   1.951  0.00  0.00    +0.028 A 
ATOM     18  C   UNL     1       4.553   3.662   2.780  0.00  0.00    +0.002 A 
ATOM     19  C   UNL     1       4.310   3.279   4.086  0.00  0.00    +0.004 A 
ATOM     20  C   UNL     1       3.016   3.244   4.571  0.00  0.00    +0.047 A 
ATOM     21  C   UNL     1       1.958   3.593   3.748  0.00  0.00    +0.142 A 
BRANCH  21  22
ATOM     22  O   UNL     1       0.684   3.558   4.223  0.00  0.00    -0.493 OA
ATOM     23  C   UNL     1       0.510   3.151   5.582  0.00  0.00    +0.277 C 
ENDBRANCH  21  22
ENDBRANCH  14  16
ENDBRANCH  11  14
ENDBRANCH   4  11
BRANCH   1  24
ATOM     24  C   UNL     1       5.094  -0.354  -0.248  0.00  0.00    +0.051 C 
BRANCH  24  32
ATOM     25  C   UNL     1       4.921  -0.140  -4.449  0.00  0.00    +0.005 C 
ATOM     26  C   UNL     1       5.923  -1.123  -3.840  0.00  0.00    -0.030 C 
ATOM     27  C   UNL     1       7.329  -0.518  -3.890  0.00  0.00    +0.003 C 
ATOM     28  C   UNL     1       7.356   0.759  -3.045  0.00  0.00    -0.030 C 
ATOM     29  C   UNL     1       6.936   0.426  -1.612  0.00  0.00    -0.073 C 
ATOM     30  C   UNL     1       5.545  -1.402  -2.384  0.00  0.00    -0.073 C 
ATOM     31  C   UNL     1       8.772   1.338  -3.041  0.00  0.00    +0.005 C 
ATOM     32  N   UNL     1       5.566  -0.130  -1.630  0.00  0.00    +0.392 N 
ATOM     33  H   UNL     1       4.941   0.541  -2.092  0.00  0.00    -0.079 HD
ENDBRANCH  24  32
ENDBRANCH   1  24
TORSDOF 6
