REMARK  Name = ZINC18175305
REMARK  6 active torsions:
REMARK  status: ('A' for Active; 'I' for Inactive)
REMARK    1  A    between atoms: C_3  and  N_20
REMARK    2  A    between atoms: C_4  and  N_17
REMARK    3  A    between atoms: C_6  and  S_7
REMARK    4  A    between atoms: S_7  and  N_10
REMARK    5  A    between atoms: C_26  and  N_30
REMARK    6  A    between atoms: C_27  and  C_28
REMARK                            x       y       z     vdW  Elec       q    Type
REMARK                         _______ _______ _______ _____ _____    ______ ____
ROOT
ATOM      1  C   UNL     1      -3.559  -0.717  -0.559  0.00  0.00    +0.030 A 
ATOM      2  C   UNL     1      -2.288  -0.204  -0.732  0.00  0.00    +0.027 A 
ATOM      3  C   UNL     1      -1.283  -0.525   0.171  0.00  0.00    +0.061 A 
ATOM      4  C   UNL     1      -1.558  -1.366   1.242  0.00  0.00    +0.149 A 
ATOM      5  C   UNL     1      -2.832  -1.871   1.412  0.00  0.00    +0.063 A 
ATOM      6  C   UNL     1      -3.831  -1.549   0.511  0.00  0.00    +0.108 A 
ENDROOT
BRANCH   3   7
ATOM      7  N   UNL     1       0.003  -0.007  -0.000  0.00  0.00    -0.323 N 
ATOM      8  C   UNL     1      -0.015   1.462   0.004  0.00  0.00    +0.110 C 
ATOM      9  C   UNL     1       1.404   2.005   0.194  0.00  0.00    +0.056 C 
ATOM     10  C   UNL     1       2.310   1.337  -0.833  0.00  0.00    -0.015 A 
ATOM     11  C   UNL     1       1.911   0.203  -1.453  0.00  0.00    +0.013 A 
ATOM     12  S   UNL     1       3.244  -0.209  -2.540  0.00  0.00    -0.076 S 
ATOM     13  C   UNL     1       4.317   1.102  -2.177  0.00  0.00    +0.081 A 
ATOM     14  C   UNL     1       3.618   1.829  -1.223  0.00  0.00    +0.083 A 
ATOM     15  C   UNL     1       0.617  -0.518  -1.241  0.00  0.00    +0.147 C 
BRANCH  13  16
ATOM     16  N   UNL     1       5.569   1.361  -2.709  0.00  0.00    -0.352 N 
ATOM     17  H   UNL     1       6.069   2.138  -2.415  0.00  0.00    +0.143 HD
ATOM     18  H   UNL     1       5.945   0.766  -3.376  0.00  0.00    +0.143 HD
ENDBRANCH  13  16
BRANCH  14  19
ATOM     19  C   UNL     1       4.167   3.020  -0.645  0.00  0.00    +0.102 C 
ATOM     20  N   UNL     1       4.602   3.964  -0.188  0.00  0.00    -0.191 NA
ENDBRANCH  14  19
ENDBRANCH   3   7
BRANCH   6  21
ATOM     21  S   UNL     1      -5.453  -2.202   0.728  0.00  0.00    +0.061 S 
ATOM     22  O   UNL     1      -5.584  -2.514   2.108  0.00  0.00    -0.153 OA
ATOM     23  O   UNL     1      -6.340  -1.316   0.059  0.00  0.00    -0.153 OA
BRANCH  21  24
ATOM     24  N   UNL     1      -5.515  -3.641  -0.091  0.00  0.00    -0.177 NA
ATOM     25  C   UNL     1      -5.931  -3.633  -1.475  0.00  0.00    +0.109 C 
ATOM     26  C   UNL     1      -7.464  -3.785  -1.564  0.00  0.00    +0.017 C 
ATOM     27  C   UNL     1      -7.864  -5.152  -1.197  0.00  0.00    +0.001 C 
ATOM     28  C   UNL     1      -7.526  -5.542   0.239  0.00  0.00    +0.001 C 
ATOM     29  C   UNL     1      -6.104  -6.041   0.300  0.00  0.00    +0.017 C 
ATOM     30  C   UNL     1      -5.148  -4.878   0.625  0.00  0.00    +0.109 C 
ENDBRANCH  21  24
ENDBRANCH   6  21
BRANCH   4  31
ATOM     31  N   UNL     1      -0.488  -1.715   2.204  0.00  0.00    +0.058 N 
ATOM     32  O   UNL     1      -0.704  -2.524   3.088  0.00  0.00    -0.126 OA
ATOM     33  O   UNL     1       0.609  -1.193   2.111  0.00  0.00    -0.126 OA
ENDBRANCH   4  31
TORSDOF 6
