REMARK  Name = ZINC36856026
REMARK  6 active torsions:
REMARK  status: ('A' for Active; 'I' for Inactive)
REMARK    1  A    between atoms: C_1  and  C_2
REMARK    2  A    between atoms: C_2  and  C_3
REMARK    3  A    between atoms: C_7  and  C_14
REMARK    4  A    between atoms: C_14  and  S_15
REMARK    5  A    between atoms: S_15  and  C_16
REMARK    6  A    between atoms: C_29  and  C_33
REMARK                            x       y       z     vdW  Elec       q    Type
REMARK                         _______ _______ _______ _____ _____    ______ ____
ROOT
ATOM      1  C   UNL     1      -6.512  -4.053   3.498  0.00  0.00    +0.169 C 
ATOM      2  N   UNL     1      -7.427  -3.148   3.772  0.00  0.00    -0.225 NA
ATOM      3  C   UNL     1      -8.080  -3.144   4.947  0.00  0.00    +0.079 A 
ATOM      4  C   UNL     1      -9.055  -2.186   5.248  0.00  0.00    +0.028 A 
ATOM      5  C   UNL     1      -9.690  -2.226   6.456  0.00  0.00    +0.002 A 
ATOM      6  C   UNL     1      -9.382  -3.204   7.394  0.00  0.00    +0.001 A 
ATOM      7  C   UNL     1      -8.434  -4.153   7.130  0.00  0.00    +0.015 A 
ATOM      8  C   UNL     1      -7.771  -4.138   5.904  0.00  0.00    +0.063 A 
ATOM      9  C   UNL     1      -6.743  -5.130   5.561  0.00  0.00    +0.260 C 
ATOM     10  O   UNL     1      -6.429  -6.014   6.342  0.00  0.00    -0.269 OA
ATOM     11  N   UNL     1      -6.164  -5.030   4.346  0.00  0.00    -0.200 N 
ATOM     12  C   UNL     1      -5.211  -5.929   3.981  0.00  0.00    +0.112 A 
ATOM     13  C   UNL     1      -5.283  -7.246   4.436  0.00  0.00    +0.046 A 
ATOM     14  C   UNL     1      -4.306  -8.143   4.054  0.00  0.00    -0.046 A 
ATOM     15  C   UNL     1      -3.272  -7.710   3.222  0.00  0.00    +0.021 A 
ATOM     16  C   UNL     1      -3.236  -6.420   2.799  0.00  0.00    +0.084 A 
ATOM     17  N   UNL     1      -4.192  -5.546   3.167  0.00  0.00    -0.349 N 
ATOM     18  C   UNL     1      -4.355  -9.573   4.530  0.00  0.00    +0.044 C 
ATOM     19  H   UNL     1      -4.151  -4.630   2.851  0.00  0.00    +0.167 HD
ENDROOT
BRANCH   1  20
ATOM     20  S   UNL     1      -5.708  -3.980   1.932  0.00  0.00    -0.085 S 
BRANCH  20  21
ATOM     21  C   UNL     1      -6.460  -2.543   1.119  0.00  0.00    +0.113 C 
BRANCH  21  26
ATOM     22  C   UNL     1      -1.958  -0.793  -0.754  0.00  0.00    -0.044 A 
ATOM     23  C   UNL     1      -2.482  -0.941   0.522  0.00  0.00    +0.004 A 
ATOM     24  C   UNL     1      -3.738  -1.448   0.703  0.00  0.00    +0.012 A 
ATOM     25  C   UNL     1      -4.501  -1.820  -0.408  0.00  0.00    +0.022 A 
ATOM     26  C   UNL     1      -5.853  -2.366  -0.249  0.00  0.00    -0.020 A 
ATOM     27  C   UNL     1      -6.542  -2.707  -1.367  0.00  0.00    +0.097 A 
ATOM     28  C   UNL     1      -5.950  -2.532  -2.637  0.00  0.00    +0.338 A 
ATOM     29  O   UNL     1      -6.579  -2.842  -3.633  0.00  0.00    -0.245 OA
ATOM     30  O   UNL     1      -4.713  -2.031  -2.775  0.00  0.00    -0.422 OA
ATOM     31  C   UNL     1      -3.974  -1.672  -1.703  0.00  0.00    +0.140 A 
ATOM     32  C   UNL     1      -2.697  -1.149  -1.863  0.00  0.00    +0.050 A 
BRANCH  22  34
ATOM     33  C   UNL     1      -0.649   1.291  -1.054  0.00  0.00    +0.009 C 
ATOM     34  C   UNL     1      -0.571  -0.232  -0.931  0.00  0.00    +0.032 C 
ENDBRANCH  22  34
ENDBRANCH  21  26
ENDBRANCH  20  21
ENDBRANCH   1  20
TORSDOF 4
