REMARK  Name = ZINC14814888
REMARK  5 active torsions:
REMARK  status: ('A' for Active; 'I' for Inactive)
REMARK    1  A    between atoms: C_1  and  C_2
REMARK    2  A    between atoms: C_7  and  O_8
REMARK    3  A    between atoms: O_8  and  C_9
REMARK    4  A    between atoms: C_9  and  C_10
REMARK    5  A    between atoms: N_15  and  C_26
REMARK                            x       y       z     vdW  Elec       q    Type
REMARK                         _______ _______ _______ _____ _____    ______ ____
ROOT
ATOM      1  C   UNL     1      -4.234   0.386   1.100  0.00  0.00    +0.259 C 
ATOM      2  O   UNL     1      -4.638   0.155  -0.020  0.00  0.00    -0.271 OA
ATOM      3  N   UNL     1      -4.935  -0.040   2.170  0.00  0.00    -0.249 N 
ATOM      4  C   UNL     1      -6.194  -0.786   2.009  0.00  0.00    +0.134 C 
ATOM      5  C   UNL     1      -7.176  -0.256   3.063  0.00  0.00    +0.125 C 
ATOM      6  N   UNL     1      -6.633  -0.516   4.399  0.00  0.00    -0.314 N 
ATOM      7  C   UNL     1      -5.351  -0.024   4.569  0.00  0.00    +0.163 A 
ATOM      8  C   UNL     1      -4.490   0.207   3.471  0.00  0.00    +0.169 A 
ATOM      9  N   UNL     1      -3.273   0.670   3.656  0.00  0.00    -0.227 NA
ATOM     10  C   UNL     1      -2.835   0.924   4.897  0.00  0.00    +0.091 A 
ATOM     11  C   UNL     1      -1.539   1.414   5.120  0.00  0.00    +0.030 A 
ATOM     12  C   UNL     1      -1.121   1.666   6.392  0.00  0.00    +0.002 A 
ATOM     13  C   UNL     1      -1.964   1.442   7.478  0.00  0.00    +0.002 A 
ATOM     14  C   UNL     1      -3.227   0.967   7.298  0.00  0.00    +0.030 A 
ATOM     15  C   UNL     1      -3.692   0.696   6.000  0.00  0.00    +0.091 A 
ATOM     16  N   UNL     1      -4.929   0.226   5.797  0.00  0.00    -0.227 NA
ATOM     17  C   UNL     1      -7.535  -0.008   5.442  0.00  0.00    +0.131 C 
ENDROOT
BRANCH   1  18
ATOM     18  C   UNL     1      -2.949   1.147   1.295  0.00  0.00    +0.325 C 
BRANCH  18  19
ATOM     19  O   UNL     1      -2.397   1.486   0.021  0.00  0.00    -0.481 OA
BRANCH  19  26
ATOM     20  C   UNL     1       0.002  -0.004   0.002  0.00  0.00    +0.047 C 
ATOM     21  C   UNL     1      -0.018   1.503   0.010  0.00  0.00    -0.006 A 
ATOM     22  C   UNL     1       1.169   2.210   0.003  0.00  0.00    +0.022 A 
ATOM     23  C   UNL     1       1.151   3.593   0.010  0.00  0.00    +0.020 A 
ATOM     24  C   UNL     1      -0.055   4.272   0.025  0.00  0.00    +0.039 A 
ATOM     25  C   UNL     1      -1.244   3.568   0.033  0.00  0.00    +0.084 A 
ATOM     26  C   UNL     1      -1.228   2.180   0.020  0.00  0.00    +0.142 A 
ATOM     27 CL   UNL     1      -2.757   4.420   0.052  0.00  0.00    -0.080 Cl
ATOM     28 BR   UNL     1       2.777   4.558   0.000  0.00  0.00    -0.050 Br
ENDBRANCH  19  26
ENDBRANCH  18  19
ENDBRANCH   1  18
TORSDOF 3
