REMARK  Name = ZINC09308311
REMARK  3 active torsions:
REMARK  status: ('A' for Active; 'I' for Inactive)
REMARK    1  A    between atoms: C_1  and  C_2
REMARK    2  A    between atoms: N_20  and  C_23
REMARK    3  A    between atoms: C_26  and  N_30
REMARK                            x       y       z     vdW  Elec       q    Type
REMARK                         _______ _______ _______ _____ _____    ______ ____
ROOT
ATOM      1  C   UNL     1       3.826  -0.596   0.405  0.00  0.00    +0.044 C 
ATOM      2  C   UNL     1       2.504   0.127   0.384  0.00  0.00    -0.050 A 
ATOM      3  C   UNL     1       1.322  -0.586   0.475  0.00  0.00    +0.005 A 
ATOM      4  C   UNL     1       0.109   0.071   0.456  0.00  0.00    +0.024 A 
ATOM      5  C   UNL     1       0.065   1.459   0.345  0.00  0.00    +0.036 A 
ATOM      6  C   UNL     1       1.261   2.165   0.254  0.00  0.00    -0.027 A 
ATOM      7  C   UNL     1       2.469   1.506   0.273  0.00  0.00    +0.008 A 
ATOM      8  C   UNL     1       0.876   3.615   0.148  0.00  0.00    +0.053 C 
ATOM      9  C   UNL     1       1.404   4.239  -1.148  0.00  0.00    +0.089 C 
ATOM     10  C   UNL     1       1.789   5.693  -0.757  0.00  0.00    +0.074 C 
ATOM     11  C   UNL     1       1.454   5.809   0.742  0.00  0.00    -0.054 C 
ATOM     12  C   UNL     1       2.909   4.089   1.433  0.00  0.00    -0.076 C 
ATOM     13  C   UNL     1       3.553   5.394   1.940  0.00  0.00    -0.020 C 
ATOM     14  C   UNL     1       2.610   6.519   1.469  0.00  0.00    -0.016 C 
ATOM     15  C   UNL     1       3.305   5.698  -0.943  0.00  0.00    +0.228 C 
ATOM     16  O   UNL     1       4.029   6.649  -0.739  0.00  0.00    -0.275 OA
ATOM     17  N   UNL     1       3.708   4.496  -1.370  0.00  0.00    -0.209 N 
ATOM     18  C   UNL     1       2.724   3.602  -1.521  0.00  0.00    +0.229 C 
ATOM     19  O   UNL     1       2.868   2.459  -1.898  0.00  0.00    -0.275 OA
ATOM     20  C   UNL     1      -0.628   3.622   0.188  0.00  0.00    +0.212 C 
ATOM     21  O   UNL     1      -1.349   4.595   0.128  0.00  0.00    -0.277 OA
ATOM     22  N   UNL     1      -1.019   2.338   0.298  0.00  0.00    -0.286 N 
ATOM     23  H   UNL     1      -1.946   2.056   0.343  0.00  0.00    +0.155 HD
ATOM     24  N   UNL     1       1.480   4.450   1.212  0.00  0.00    +0.395 N 
ATOM     25  H   UNL     1       0.949   4.350   2.086  0.00  0.00    -0.079 HD
ENDROOT
BRANCH  17  26
ATOM     26  C   UNL     1       5.051   4.197  -1.637  0.00  0.00    +0.062 A 
ATOM     27  C   UNL     1       5.865   3.692  -0.632  0.00  0.00    +0.027 A 
ATOM     28  C   UNL     1       7.187   3.394  -0.899  0.00  0.00    +0.034 A 
ATOM     29  C   UNL     1       7.704   3.609  -2.164  0.00  0.00    +0.128 A 
ATOM     30  C   UNL     1       6.899   4.117  -3.166  0.00  0.00    +0.054 A 
ATOM     31  C   UNL     1       5.573   4.412  -2.906  0.00  0.00    +0.065 A 
ATOM     32 CL   UNL     1       4.562   5.050  -4.165  0.00  0.00    -0.082 Cl
BRANCH  29  33
ATOM     33  N   UNL     1       9.123   3.295  -2.445  0.00  0.00    +0.056 N 
ATOM     34  O   UNL     1       9.580   3.484  -3.558  0.00  0.00    -0.126 OA
ATOM     35  O   UNL     1       9.834   2.848  -1.563  0.00  0.00    -0.126 OA
ENDBRANCH  29  33
ENDBRANCH  17  26
TORSDOF 2
