REMARK  Name = ZINC16104174
REMARK  2 active torsions:
REMARK  status: ('A' for Active; 'I' for Inactive)
REMARK    1  A    between atoms: C_5  and  C_7
REMARK    2  A    between atoms: N_9  and  C_10
REMARK                            x       y       z     vdW  Elec       q    Type
REMARK                         _______ _______ _______ _____ _____    ______ ____
ROOT
ATOM      1  C   UNL     1      -0.006   1.332   0.176  0.00  0.00    +0.249 C 
ATOM      2  O   UNL     1       1.041   1.932   0.325  0.00  0.00    -0.270 OA
ATOM      3  N   UNL     1       0.002  -0.004   0.002  0.00  0.00    -0.281 N 
ATOM      4  H   UNL     1      -0.835  -0.493  -0.040  0.00  0.00    +0.155 HD
ENDROOT
BRANCH   3   5
ATOM      5  C   UNL     1       1.218  -0.687  -0.119  0.00  0.00    +0.037 A 
ATOM      6  C   UNL     1       1.341  -1.979   0.374  0.00  0.00    +0.027 A 
ATOM      7  C   UNL     1       2.541  -2.655   0.256  0.00  0.00    +0.051 A 
ATOM      8  C   UNL     1       3.624  -2.045  -0.356  0.00  0.00    +0.173 A 
ATOM      9  C   UNL     1       3.504  -0.749  -0.853  0.00  0.00    +0.174 A 
ATOM     10  C   UNL     1       2.300  -0.075  -0.737  0.00  0.00    +0.073 A 
ATOM     11  O   UNL     1       4.698  -0.380  -1.402  0.00  0.00    -0.395 OA
ATOM     12  C   UNL     1       5.425  -1.606  -1.603  0.00  0.00    +0.589 C 
ATOM     13  O   UNL     1       4.894  -2.487  -0.596  0.00  0.00    -0.395 OA
ATOM     14  F   UNL     1       5.180  -2.118  -2.882  0.00  0.00    -0.125 F 
ATOM     15  F   UNL     1       6.795  -1.403  -1.410  0.00  0.00    -0.125 F 
ENDBRANCH   3   5
BRANCH   1  20
ATOM     16  C   UNL     1      -3.683   2.078   0.010  0.00  0.00    +0.001 A 
ATOM     17  C   UNL     1      -3.688   3.450   0.189  0.00  0.00    +0.001 A 
ATOM     18  C   UNL     1      -2.499   4.136   0.364  0.00  0.00    +0.015 A 
ATOM     19  C   UNL     1      -1.299   3.454   0.361  0.00  0.00    +0.025 A 
ATOM     20  C   UNL     1      -1.287   2.069   0.181  0.00  0.00    +0.050 A 
ATOM     21  C   UNL     1      -2.490   1.385  -0.001  0.00  0.00    +0.014 A 
ATOM     22  I   UNL     1       0.500   4.494   0.625  0.00  0.00    -0.043 I 
ENDBRANCH   1  20
TORSDOF 2
