REMARK  Name = ZINC41097657
REMARK  3 active torsions:
REMARK  status: ('A' for Active; 'I' for Inactive)
REMARK    1  A    between atoms: N_15  and  C_17
REMARK    2  A    between atoms: C_18  and  C_28
REMARK    3  A    between atoms: C_20  and  C_22
REMARK                            x       y       z     vdW  Elec       q    Type
REMARK                         _______ _______ _______ _____ _____    ______ ____
ROOT
ATOM      1  C   UNL     1      -0.026   1.837   0.178  0.00  0.00    +0.007 A 
ATOM      2  C   UNL     1       1.245   2.422   0.167  0.00  0.00    +0.022 A 
ATOM      3  C   UNL     1       2.358   1.653   0.042  0.00  0.00    +0.027 A 
ATOM      4  N   UNL     1       2.252   0.315  -0.129  0.00  0.00    -0.312 N 
ATOM      5  C   UNL     1       1.041  -0.286  -0.021  0.00  0.00    +0.251 A 
ATOM      6  O   UNL     1       0.969  -1.504  -0.026  0.00  0.00    -0.268 OA
ATOM      7  C   UNL     1      -0.128   0.479   0.095  0.00  0.00    +0.070 A 
ATOM      8  C   UNL     1       3.385  -0.538  -0.490  0.00  0.00    +0.130 C 
ATOM      9  C   UNL     1       4.720   0.104  -0.158  0.00  0.00    +0.027 C 
ATOM     10  C   UNL     1       4.742   1.548  -0.661  0.00  0.00    +0.018 C 
ATOM     11  C   UNL     1       3.697   2.348   0.120  0.00  0.00    +0.054 C 
ATOM     12  C   UNL     1       4.121   2.381   1.599  0.00  0.00    +0.117 C 
ATOM     13  N   UNL     1       4.186   0.988   2.067  0.00  0.00    -0.298 N 
ATOM     14  C   UNL     1       5.022   0.054   1.333  0.00  0.00    +0.113 C 
ENDROOT
BRANCH  13  15
ATOM     15  C   UNL     1       3.470   0.582   3.173  0.00  0.00    +0.228 A 
ATOM     16  C   UNL     1       3.894   0.620   4.492  0.00  0.00    +0.201 A 
ATOM     17  N   UNL     1       2.878   0.128   5.250  0.00  0.00    -0.194 NA
ATOM     18  C   UNL     1       1.886  -0.197   4.457  0.00  0.00    +0.266 A 
ATOM     19  O   UNL     1       2.222   0.078   3.181  0.00  0.00    -0.417 OA
BRANCH  18  20
ATOM     20  C   UNL     1       0.603  -0.765   4.892  0.00  0.00    +0.191 A 
ATOM     21  C   UNL     1       0.243  -1.038   6.179  0.00  0.00    +0.056 A 
ATOM     22  C   UNL     1      -1.060  -1.567   6.132  0.00  0.00    +0.058 A 
ATOM     23  C   UNL     1      -1.430  -1.594   4.834  0.00  0.00    +0.171 A 
ATOM     24  O   UNL     1      -0.427  -1.104   4.089  0.00  0.00    -0.443 OA
ATOM     25 BR   UNL     1      -3.092  -2.212   4.175  0.00  0.00    -0.008 Br
ENDBRANCH  18  20
BRANCH  16  26
ATOM     26  C   UNL     1       5.161   1.089   4.967  0.00  0.00    +0.124 C 
ATOM     27  N   UNL     1       6.166   1.461   5.344  0.00  0.00    -0.189 NA
ENDBRANCH  16  26
ENDBRANCH  13  15
TORSDOF 3
