REMARK  Name = ZINC00463134
REMARK  3 active torsions:
REMARK  status: ('A' for Active; 'I' for Inactive)
REMARK    1  A    between atoms: C_4  and  N_7
REMARK    2  A    between atoms: C_8  and  N_22
REMARK    3  A    between atoms: C_9  and  C_13
REMARK                            x       y       z     vdW  Elec       q    Type
REMARK                         _______ _______ _______ _____ _____    ______ ____
ROOT
ATOM      1  N   UNL     1       4.302   4.755  -0.014  0.00  0.00    -0.285 N 
ATOM      2  C   UNL     1       3.851   3.478  -0.011  0.00  0.00    +0.119 A 
ATOM      3  C   UNL     1       2.498   3.279  -0.005  0.00  0.00    +0.085 A 
ATOM      4  S   UNL     1       1.889   4.957   0.010  0.00  0.00    -0.058 S 
ATOM      5  C   UNL     1       3.418   5.776   0.000  0.00  0.00    +0.132 A 
ATOM      6  S   UNL     1       3.729   7.460   0.006  0.00  0.00    -0.024 S 
ENDROOT
BRANCH   3   7
ATOM      7  C   UNL     1       1.748   2.022  -0.004  0.00  0.00    +0.119 A 
ATOM      8  N   UNL     1       2.206   0.783  -0.015  0.00  0.00    -0.238 NA
ATOM      9  C   UNL     1       1.387  -0.289  -0.013  0.00  0.00    +0.079 A 
ATOM     10  C   UNL     1       1.744  -1.658  -0.023  0.00  0.00    +0.029 A 
ATOM     11  C   UNL     1       0.780  -2.632  -0.019  0.00  0.00    +0.002 A 
ATOM     12  C   UNL     1      -0.571  -2.316  -0.005  0.00  0.00    +0.001 A 
ATOM     13  C   UNL     1      -0.956  -0.987   0.006  0.00  0.00    +0.017 A 
ATOM     14  C   UNL     1       0.002  -0.004   0.002  0.00  0.00    +0.040 A 
ATOM     15  S   UNL     1      -0.022   1.772   0.012  0.00  0.00    -0.067 S 
ENDBRANCH   3   7
BRANCH   1  19
ATOM     16  C   UNL     1       8.398   5.528  -0.046  0.00  0.00    +0.000 A 
ATOM     17  C   UNL     1       7.636   5.893   1.048  0.00  0.00    +0.002 A 
ATOM     18  C   UNL     1       6.278   5.638   1.062  0.00  0.00    +0.026 A 
ATOM     19  C   UNL     1       5.679   5.015  -0.025  0.00  0.00    +0.049 A 
ATOM     20  C   UNL     1       6.448   4.646  -1.121  0.00  0.00    +0.026 A 
ATOM     21  C   UNL     1       7.804   4.908  -1.131  0.00  0.00    +0.002 A 
ENDBRANCH   1  19
BRANCH   2  22
ATOM     22  N   UNL     1       4.731   2.408  -0.018  0.00  0.00    -0.343 N 
ATOM     23  H   UNL     1       4.390   1.500  -0.018  0.00  0.00    +0.144 HD
ATOM     24  H   UNL     1       5.687   2.567  -0.022  0.00  0.00    +0.144 HD
ENDBRANCH   2  22
TORSDOF 3
