REMARK  Name = ZINC44606264
REMARK  3 active torsions:
REMARK  status: ('A' for Active; 'I' for Inactive)
REMARK    1  A    between atoms: C_4  and  C_7
REMARK    2  A    between atoms: C_7  and  C_9
REMARK    3  A    between atoms: C_9  and  N_10
REMARK                            x       y       z     vdW  Elec       q    Type
REMARK                         _______ _______ _______ _____ _____    ______ ____
ROOT
ATOM      1  N   UNL     1       5.109  -2.653  -0.063  0.00  0.00    -0.292 NA
ATOM      2  C   UNL     1       5.775  -2.278  -1.318  0.00  0.00    +0.104 C 
ATOM      3  C   UNL     1       7.266  -2.620  -1.223  0.00  0.00    +0.123 C 
ATOM      4  N   UNL     1       7.398  -4.036  -0.848  0.00  0.00    -0.297 N 
ATOM      5  C   UNL     1       6.648  -4.518   0.322  0.00  0.00    +0.123 C 
ATOM      6  C   UNL     1       5.182  -4.102   0.167  0.00  0.00    +0.104 C 
ATOM      7  C   UNL     1       8.206  -4.891  -1.576  0.00  0.00    +0.218 A 
ATOM      8  N   UNL     1       8.871  -4.420  -2.621  0.00  0.00    -0.223 NA
ATOM      9  C   UNL     1       9.650  -5.213  -3.338  0.00  0.00    +0.118 A 
ATOM     10  C   UNL     1       9.767  -6.550  -2.983  0.00  0.00    -0.025 A 
ATOM     11  C   UNL     1       9.062  -7.007  -1.888  0.00  0.00    +0.046 A 
ATOM     12  N   UNL     1       8.301  -6.160  -1.210  0.00  0.00    -0.219 NA
ATOM     13  C   UNL     1       9.148  -8.443  -1.443  0.00  0.00    +0.037 C 
ATOM     14  C   UNL     1       9.735  -9.296  -2.569  0.00  0.00    -0.076 C 
ATOM     15  N   UNL     1      10.979  -8.666  -3.038  0.00  0.00    +0.382 N 
ATOM     16  C   UNL     1      10.649  -7.456  -3.796  0.00  0.00    -0.043 C 
ATOM     17  H   UNL     1      11.553  -8.421  -2.244  0.00  0.00    -0.085 HD
ATOM     18  H   UNL     1      11.480  -9.310  -3.631  0.00  0.00    -0.085 HD
ENDROOT
BRANCH   1  19
ATOM     19  C   UNL     1       3.716  -2.186  -0.046  0.00  0.00    +0.164 C 
BRANCH  19  20
ATOM     20  C   UNL     1       3.691  -0.679  -0.038  0.00  0.00    +0.177 C 
ATOM     21  O   UNL     1       4.731  -0.056  -0.045  0.00  0.00    -0.291 OA
BRANCH  20  25
ATOM     22  C   UNL     1      -0.017   1.380   0.010  0.00  0.00    +0.000 A 
ATOM     23  C   UNL     1       1.168   2.095   0.002  0.00  0.00    +0.001 A 
ATOM     24  C   UNL     1       2.377   1.433  -0.013  0.00  0.00    +0.011 A 
ATOM     25  C   UNL     1       2.405   0.035  -0.021  0.00  0.00    +0.019 A 
ATOM     26  C   UNL     1       1.203  -0.681  -0.013  0.00  0.00    +0.011 A 
ATOM     27  C   UNL     1       0.002  -0.004   0.002  0.00  0.00    +0.001 A 
ENDBRANCH  20  25
ENDBRANCH  19  20
ENDBRANCH   1  19
TORSDOF 3
