REMARK  Name = ZINC00817277
REMARK  3 active torsions:
REMARK  status: ('A' for Active; 'I' for Inactive)
REMARK    1  A    between atoms: C_3  and  N_8
REMARK    2  A    between atoms: N_8  and  S_9
REMARK    3  A    between atoms: S_9  and  C_12
REMARK                            x       y       z     vdW  Elec       q    Type
REMARK                         _______ _______ _______ _____ _____    ______ ____
ROOT
ATOM      1  S   UNL     1       3.684  -0.140  -0.498  0.00  0.00    +0.072 S 
ATOM      2  O   UNL     1       4.805   0.560   0.025  0.00  0.00    -0.150 OA
ATOM      3  O   UNL     1       2.798  -0.883   0.327  0.00  0.00    -0.150 OA
ENDROOT
BRANCH   1   4
ATOM      4  C   UNL     1       2.701   1.048  -1.350  0.00  0.00    +0.112 A 
ATOM      5  C   UNL     1       1.332   0.874  -1.442  0.00  0.00    +0.032 A 
ATOM      6  C   UNL     1       0.558   1.803  -2.110  0.00  0.00    +0.051 A 
ATOM      7  C   UNL     1       1.152   2.914  -2.691  0.00  0.00    +0.162 A 
ATOM      8  C   UNL     1       2.527   3.091  -2.596  0.00  0.00    +0.164 A 
ATOM      9  C   UNL     1       3.299   2.154  -1.925  0.00  0.00    +0.078 A 
ATOM     10  O   UNL     1       3.129   4.178  -3.151  0.00  0.00    -0.485 OA
ATOM     11  C   UNL     1       2.377   4.899  -4.133  0.00  0.00    +0.270 C 
ATOM     12  C   UNL     1       0.955   5.105  -3.593  0.00  0.00    +0.270 C 
ATOM     13  O   UNL     1       0.378   3.817  -3.353  0.00  0.00    -0.485 OA
ENDBRANCH   1   4
BRANCH   1  14
ATOM     14  N   UNL     1       4.271  -1.194  -1.632  0.00  0.00    -0.216 N 
ATOM     15  H   UNL     1       5.227  -1.266  -1.779  0.00  0.00    +0.174 HD
BRANCH  14  18
ATOM     16  C   UNL     1       2.252  -2.440  -4.439  0.00  0.00    +0.003 A 
ATOM     17  C   UNL     1       3.125  -1.661  -3.704  0.00  0.00    +0.024 A 
ATOM     18  C   UNL     1       3.389  -1.979  -2.378  0.00  0.00    +0.049 A 
ATOM     19  C   UNL     1       2.779  -3.084  -1.797  0.00  0.00    +0.039 A 
ATOM     20  C   UNL     1       1.903  -3.856  -2.536  0.00  0.00    +0.020 A 
ATOM     21  C   UNL     1       1.642  -3.536  -3.857  0.00  0.00    +0.015 A 
ATOM     22 BR   UNL     1       1.066  -5.355  -1.744  0.00  0.00    -0.050 Br
ENDBRANCH  14  18
ENDBRANCH   1  14
TORSDOF 3
