REMARK  Name = ZINC21755456
REMARK  10 active torsions:
REMARK  status: ('A' for Active; 'I' for Inactive)
REMARK    1  A    between atoms: C_1  and  C_2
REMARK    2  A    between atoms: C_7  and  S_8
REMARK    3  A    between atoms: S_8  and  N_11
REMARK    4  A    between atoms: N_11  and  C_12
REMARK    5  A    between atoms: C_12  and  C_13
REMARK    6  A    between atoms: C_13  and  C_15
REMARK    7  A    between atoms: C_13  and  N_24
REMARK    8  A    between atoms: C_18  and  N_21
REMARK    9  A    between atoms: N_21  and  C_22
REMARK   10  A    between atoms: N_21  and  C_23
REMARK                            x       y       z     vdW  Elec       q    Type
REMARK                         _______ _______ _______ _____ _____    ______ ____
ROOT
ATOM      1  C   UNL     1      -3.929   0.940   2.289  0.00  0.00    -0.021 C 
ENDROOT
BRANCH   1   2
ATOM      2  N   UNL     1      -3.672   0.202   3.533  0.00  0.00    +0.388 N 
ATOM      3  C   UNL     1      -4.707   0.489   4.540  0.00  0.00    -0.073 C 
ATOM      4  C   UNL     1      -4.606  -0.556   5.650  0.00  0.00    +0.017 C 
ATOM      5  C   UNL     1      -3.182  -0.660   6.132  0.00  0.00    -0.048 A 
ATOM      6  C   UNL     1      -2.939  -1.277   7.350  0.00  0.00    +0.004 A 
ATOM      7  C   UNL     1      -1.648  -1.401   7.824  0.00  0.00    +0.000 A 
ATOM      8  C   UNL     1      -0.592  -0.908   7.080  0.00  0.00    +0.000 A 
ATOM      9  C   UNL     1      -0.834  -0.292   5.868  0.00  0.00    +0.002 A 
ATOM     10  C   UNL     1      -2.130  -0.165   5.391  0.00  0.00    -0.061 A 
ATOM     11  C   UNL     1      -2.343   0.518   4.066  0.00  0.00    -0.042 C 
ATOM     12  H   UNL     1      -3.702  -0.872   3.297  0.00  0.00    -0.080 HD
ENDBRANCH   1   2
BRANCH   1  13
ATOM     13  C   UNL     1      -4.561   2.268   2.614  0.00  0.00    -0.060 A 
ATOM     14  C   UNL     1      -3.874   3.190   3.382  0.00  0.00    +0.004 A 
ATOM     15  C   UNL     1      -4.448   4.411   3.677  0.00  0.00    +0.023 A 
ATOM     16  C   UNL     1      -5.723   4.708   3.211  0.00  0.00    +0.029 A 
ATOM     17  C   UNL     1      -6.413   3.777   2.444  0.00  0.00    +0.023 A 
ATOM     18  C   UNL     1      -5.830   2.561   2.148  0.00  0.00    +0.004 A 
BRANCH  16  19
ATOM     19  N   UNL     1      -6.309   5.939   3.512  0.00  0.00    -0.336 N 
ATOM     20  C   UNL     1      -7.695   6.206   3.120  0.00  0.00    +0.129 C 
ATOM     21  C   UNL     1      -5.538   6.964   4.221  0.00  0.00    +0.129 C 
ENDBRANCH  16  19
ENDBRANCH   1  13
BRANCH   1  22
ATOM     22  C   UNL     1      -2.609   1.170   1.551  0.00  0.00    +0.095 C 
BRANCH  22  23
ATOM     23  N   UNL     1      -1.936  -0.114   1.340  0.00  0.00    -0.191 NA
ATOM     24  H   UNL     1      -2.141  -0.959   2.014  0.00  0.00    +0.148 HD
BRANCH  23  25
ATOM     25  S   UNL     1      -0.692  -0.229   0.253  0.00  0.00    +0.059 S 
ATOM     26  O   UNL     1      -1.153   0.359  -0.955  0.00  0.00    -0.153 OA
ATOM     27  O   UNL     1      -0.219  -1.567   0.317  0.00  0.00    -0.153 OA
BRANCH  25  34
ATOM     28  C   UNL     1       0.882  -0.772   2.779  0.00  0.00    +0.046 C 
ATOM     29  C   UNL     1       1.278   0.463   2.011  0.00  0.00    -0.024 A 
ATOM     30  C   UNL     1       2.303   1.267   2.476  0.00  0.00    +0.005 A 
ATOM     31  C   UNL     1       2.662   2.403   1.776  0.00  0.00    +0.000 A 
ATOM     32  C   UNL     1       1.997   2.735   0.610  0.00  0.00    +0.002 A 
ATOM     33  C   UNL     1       0.973   1.932   0.145  0.00  0.00    +0.029 A 
ATOM     34  C   UNL     1       0.613   0.795   0.846  0.00  0.00    +0.108 A 
ENDBRANCH  25  34
ENDBRANCH  23  25
ENDBRANCH  22  23
ENDBRANCH   1  22
TORSDOF 7
