REMARK  Name = ZINC12456776
REMARK  7 active torsions:
REMARK  status: ('A' for Active; 'I' for Inactive)
REMARK    1  A    between atoms: C_1  and  C_2
REMARK    2  A    between atoms: C_10  and  C_13
REMARK    3  A    between atoms: C_11  and  C_12
REMARK    4  A    between atoms: N_19  and  C_27
REMARK    5  A    between atoms: C_27  and  C_28
REMARK    6  A    between atoms: C_33  and  O_34
REMARK    7  A    between atoms: O_34  and  C_35
REMARK                            x       y       z     vdW  Elec       q    Type
REMARK                         _______ _______ _______ _____ _____    ______ ____
ROOT
ATOM      1  C   UNL     1       0.066  -1.411   4.834  0.00  0.00    -0.019 C 
ATOM      2  C   UNL     1      -1.371  -1.514   5.368  0.00  0.00    -0.005 C 
ATOM      3  C   UNL     1      -1.624  -0.214   6.150  0.00  0.00    +0.003 C 
ATOM      4  C   UNL     1      -2.096  -0.556   7.579  0.00  0.00    +0.110 C 
ATOM      5  N   UNL     1      -0.879  -0.690   8.388  0.00  0.00    -0.298 N 
ATOM      6  C   UNL     1       0.185  -0.152   7.763  0.00  0.00    +0.206 C 
ATOM      7  O   UNL     1       1.304  -0.090   8.227  0.00  0.00    -0.277 OA
ATOM      8  C   UNL     1      -0.213   0.371   6.395  0.00  0.00    +0.018 C 
ATOM      9  N   UNL     1       0.637  -0.143   5.305  0.00  0.00    +0.395 N 
ATOM     10  C   UNL     1       0.568   0.885   4.237  0.00  0.00    -0.076 C 
ATOM     11  C   UNL     1       0.605   2.219   5.029  0.00  0.00    -0.019 C 
ATOM     12  C   UNL     1      -0.231   1.896   6.293  0.00  0.00    -0.004 C 
ATOM     13  H   UNL     1       1.585  -0.276   5.624  0.00  0.00    -0.079 HD
ENDROOT
BRANCH   1  23
ATOM     14  C   UNL     1      -2.911  -0.907   0.075  0.00  0.00    +0.046 C 
ATOM     15  C   UNL     1      -1.434  -1.199   0.034  0.00  0.00    -0.027 A 
ATOM     16  C   UNL     1      -0.790  -1.342  -1.176  0.00  0.00    +0.005 A 
ATOM     17  C   UNL     1       0.570  -1.611  -1.227  0.00  0.00    +0.001 A 
ATOM     18  C   UNL     1       1.296  -1.739  -0.077  0.00  0.00    +0.010 A 
ATOM     19  C   UNL     1       0.665  -1.598   1.160  0.00  0.00    +0.003 A 
ATOM     20  C   UNL     1      -0.713  -1.320   1.218  0.00  0.00    +0.050 A 
ATOM     21  N   UNL     1      -1.054  -1.230   2.549  0.00  0.00    -0.359 N 
ATOM     22  H   UNL     1      -1.946  -1.049   2.884  0.00  0.00    +0.166 HD
ATOM     23  C   UNL     1       0.052  -1.435   3.327  0.00  0.00    +0.006 A 
ATOM     24  C   UNL     1       1.121  -1.670   2.550  0.00  0.00    -0.024 A 
ATOM     25  C   UNL     1       2.528  -1.942   3.019  0.00  0.00    +0.046 C 
ENDBRANCH   1  23
BRANCH   5  26
ATOM     26  C   UNL     1      -0.829  -1.326   9.706  0.00  0.00    +0.146 C 
BRANCH  26  27
ATOM     27  C   UNL     1      -0.540  -2.796   9.544  0.00  0.00    +0.011 A 
ATOM     28  C   UNL     1      -1.570  -3.715   9.607  0.00  0.00    +0.009 A 
ATOM     29  C   UNL     1      -1.306  -5.063   9.459  0.00  0.00    +0.001 A 
ATOM     30  C   UNL     1      -0.010  -5.497   9.246  0.00  0.00    +0.004 A 
ATOM     31  C   UNL     1       1.023  -4.583   9.180  0.00  0.00    +0.046 A 
ATOM     32  C   UNL     1       0.760  -3.228   9.324  0.00  0.00    +0.125 A 
BRANCH  32  33
ATOM     33  O   UNL     1       1.774  -2.327   9.255  0.00  0.00    -0.495 OA
ATOM     34  C   UNL     1       3.087  -2.843   9.026  0.00  0.00    +0.277 C 
ENDBRANCH  32  33
ENDBRANCH  26  27
ENDBRANCH   5  26
TORSDOF 4
