REMARK  Name = ZINC36555453
REMARK  17 active torsions:
REMARK  status: ('A' for Active; 'I' for Inactive)
REMARK    1  A    between atoms: C_1  and  C_2
REMARK    2  A    between atoms: C_2  and  C_3
REMARK    3  A    between atoms: C_3  and  C_4
REMARK    4  A    between atoms: C_4  and  C_5
REMARK    5  A    between atoms: C_5  and  C_6
REMARK    6  A    between atoms: C_6  and  C_8
REMARK    7  A    between atoms: C_6  and  N_15
REMARK    8  A    between atoms: N_10  and  C_11
REMARK    9  A    between atoms: C_11  and  C_12
REMARK   10  A    between atoms: C_12  and  C_13
REMARK   11  A    between atoms: C_13  and  C_14
REMARK   12  A    between atoms: N_15  and  C_16
REMARK   13  A    between atoms: C_16  and  C_17
REMARK   14  A    between atoms: C_20  and  C_22
REMARK   15  A    between atoms: C_23  and  C_25
REMARK   16  A    between atoms: C_25  and  C_33
REMARK   17  A    between atoms: C_26  and  C_27
REMARK                            x       y       z     vdW  Elec       q    Type
REMARK                         _______ _______ _______ _____ _____    ______ ____
ROOT
ATOM      1  N   UNL     1       2.084  -4.969  -1.217  0.00  0.00    -0.279 N 
ATOM      2  C   UNL     1       1.429  -5.892  -0.485  0.00  0.00    +0.248 C 
ATOM      3  O   UNL     1       2.050  -6.768   0.087  0.00  0.00    -0.270 OA
ENDROOT
BRANCH   2   4
ATOM      4  C   UNL     1      -0.037  -5.840  -0.377  0.00  0.00    +0.045 C 
ATOM      5  C   UNL     1      -0.643  -6.128   0.806  0.00  0.00    +0.021 C 
BRANCH   5   6
ATOM      6  C   UNL     1      -2.106  -6.254   0.871  0.00  0.00    -0.024 A 
ATOM      7  C   UNL     1      -2.817  -6.769  -0.218  0.00  0.00    +0.008 A 
ATOM      8  C   UNL     1      -4.189  -6.884  -0.149  0.00  0.00    +0.001 A 
ATOM      9  C   UNL     1      -4.863  -6.491   0.995  0.00  0.00    +0.000 A 
ATOM     10  C   UNL     1      -4.167  -5.979   2.076  0.00  0.00    +0.001 A 
ATOM     11  C   UNL     1      -2.794  -5.864   2.025  0.00  0.00    +0.008 A 
ENDBRANCH   5   6
BRANCH   4  12
ATOM     12  C   UNL     1      -0.854  -5.473  -1.557  0.00  0.00    -0.013 A 
ATOM     13  C   UNL     1      -0.663  -6.130  -2.772  0.00  0.00    +0.008 A 
ATOM     14  C   UNL     1      -1.427  -5.784  -3.868  0.00  0.00    +0.001 A 
ATOM     15  C   UNL     1      -2.381  -4.787  -3.763  0.00  0.00    +0.000 A 
ATOM     16  C   UNL     1      -2.574  -4.131  -2.560  0.00  0.00    +0.001 A 
ATOM     17  C   UNL     1      -1.821  -4.473  -1.456  0.00  0.00    +0.008 A 
ENDBRANCH   4  12
ENDBRANCH   2   4
BRANCH   1  18
ATOM     18  C   UNL     1       1.349  -3.854  -1.819  0.00  0.00    +0.163 C 
BRANCH  18  19
ATOM     19  C   UNL     1       1.373  -3.988  -3.319  0.00  0.00    +0.234 C 
ATOM     20  O   UNL     1       1.948  -4.923  -3.836  0.00  0.00    -0.274 OA
ATOM     21  N   UNL     1       0.755  -3.068  -4.088  0.00  0.00    -0.314 N 
ATOM     22  H   UNL     1       0.296  -2.321  -3.675  0.00  0.00    +0.149 HD
BRANCH  21  23
ATOM     23  C   UNL     1       0.778  -3.198  -5.547  0.00  0.00    +0.104 C 
BRANCH  23  24
ATOM     24  C   UNL     1       0.010  -2.034  -6.175  0.00  0.00    +0.018 C 
BRANCH  24  25
ATOM     25  C   UNL     1       0.035  -2.169  -7.699  0.00  0.00    -0.002 C 
ATOM     26  C   UNL     1      -0.734  -1.005  -8.326  0.00  0.00    +0.004 C 
ENDBRANCH  24  25
ENDBRANCH  23  24
ENDBRANCH  21  23
ENDBRANCH  18  19
BRANCH  18  27
ATOM     27  C   UNL     1       2.006  -2.533  -1.414  0.00  0.00    +0.032 C 
BRANCH  27  28
ATOM     28  C   UNL     1       1.871  -2.338   0.098  0.00  0.00    +0.002 C 
BRANCH  28  29
ATOM     29  C   UNL     1       2.527  -1.017   0.503  0.00  0.00    -0.000 C 
BRANCH  29  31
ATOM     30  C   UNL     1       3.049   0.498   2.419  0.00  0.00    +0.004 C 
ATOM     31  C   UNL     1       2.393  -0.823   2.014  0.00  0.00    -0.003 C 
ENDBRANCH  29  31
ENDBRANCH  28  29
ENDBRANCH  27  28
ENDBRANCH  18  27
ENDBRANCH   1  18
BRANCH   1  32
ATOM     32  C   UNL     1       3.532  -5.082  -1.412  0.00  0.00    +0.183 C 
BRANCH  32  33
ATOM     33  C   UNL     1       4.246  -4.478  -0.230  0.00  0.00    +0.122 A 
ATOM     34  C   UNL     1       4.513  -5.103   0.931  0.00  0.00    +0.046 A 
ATOM     35  C   UNL     1       5.191  -4.172   1.751  0.00  0.00    +0.045 A 
ATOM     36  C   UNL     1       5.299  -3.034   1.042  0.00  0.00    +0.102 A 
ATOM     37  O   UNL     1       4.730  -3.227  -0.159  0.00  0.00    -0.463 OA
ATOM     38  C   UNL     1       5.952  -1.760   1.513  0.00  0.00    +0.086 C 
ENDBRANCH  32  33
ENDBRANCH   1  32
TORSDOF 14
