REMARK  Name = ZINC00652432
REMARK  7 active torsions:
REMARK  status: ('A' for Active; 'I' for Inactive)
REMARK    1  A    between atoms: C_1  and  C_2
REMARK    2  A    between atoms: C_5  and  S_8
REMARK    3  A    between atoms: S_8  and  N_11
REMARK    4  A    between atoms: N_11  and  C_12
REMARK    5  A    between atoms: C_15  and  N_18
REMARK    6  A    between atoms: C_19  and  C_21
REMARK    7  A    between atoms: C_27  and  C_29
REMARK                            x       y       z     vdW  Elec       q    Type
REMARK                         _______ _______ _______ _____ _____    ______ ____
ROOT
ATOM      1  C   UNL     1       1.180  -0.659   0.097  0.00  0.00    +0.048 A 
ATOM      2  C   UNL     1       0.062  -0.002   0.596  0.00  0.00    +0.026 A 
ATOM      3  C   UNL     1       0.102   1.361   0.811  0.00  0.00    +0.025 A 
ATOM      4  C   UNL     1       1.259   2.075   0.529  0.00  0.00    +0.034 A 
ATOM      5  C   UNL     1       2.376   1.418   0.030  0.00  0.00    +0.025 A 
ATOM      6  C   UNL     1       2.337   0.055  -0.185  0.00  0.00    +0.026 A 
ENDROOT
BRANCH   4   7
ATOM      7  N   UNL     1       1.300   3.459   0.747  0.00  0.00    -0.285 N 
ATOM      8  C   UNL     1       2.436   4.040   1.178  0.00  0.00    +0.221 C 
ATOM      9  O   UNL     1       3.448   3.381   1.295  0.00  0.00    -0.275 OA
ATOM     10  H   UNL     1       0.509   3.998   0.588  0.00  0.00    +0.155 HD
BRANCH   8  11
ATOM     11  C   UNL     1       2.451   5.509   1.516  0.00  0.00    +0.089 C 
ATOM     12  C   UNL     1       1.446   5.784   2.637  0.00  0.00    +0.013 C 
ATOM     13  C   UNL     1       1.830   4.972   3.876  0.00  0.00    +0.001 C 
ATOM     14  C   UNL     1       3.232   5.376   4.337  0.00  0.00    +0.001 C 
ATOM     15  C   UNL     1       4.236   5.101   3.215  0.00  0.00    +0.015 C 
ATOM     16  C   UNL     1       3.853   5.913   1.977  0.00  0.00    +0.114 C 
BRANCH  16  17
ATOM     17  C   UNL     1       4.842   5.642   0.872  0.00  0.00    +0.360 C 
ATOM     18  O   UNL     1       4.464   5.173  -0.175  0.00  0.00    -0.246 OA
ATOM     19  O   UNL     1       6.142   5.920   1.053  0.00  0.00    -0.246 OA
ENDBRANCH  16  17
ENDBRANCH   8  11
ENDBRANCH   4   7
BRANCH   1  20
ATOM     20  N   UNL     1       1.139  -2.041  -0.120  0.00  0.00    -0.216 N 
ATOM     21  H   UNL     1       1.592  -2.641   0.493  0.00  0.00    +0.174 HD
BRANCH  20  22
ATOM     22  S   UNL     1       0.320  -2.650  -1.424  0.00  0.00    +0.072 S 
ATOM     23  O   UNL     1       0.518  -4.057  -1.406  0.00  0.00    -0.150 OA
ATOM     24  O   UNL     1      -0.974  -2.062  -1.401  0.00  0.00    -0.150 OA
BRANCH  22  29
ATOM     25  C   UNL     1       3.067  -0.584  -6.383  0.00  0.00    +0.044 C 
ATOM     26  C   UNL     1       2.380  -1.100  -5.144  0.00  0.00    -0.050 A 
ATOM     27  C   UNL     1       2.725  -2.335  -4.627  0.00  0.00    +0.005 A 
ATOM     28  C   UNL     1       2.096  -2.808  -3.491  0.00  0.00    +0.029 A 
ATOM     29  C   UNL     1       1.122  -2.047  -2.872  0.00  0.00    +0.109 A 
ATOM     30  C   UNL     1       0.773  -0.815  -3.393  0.00  0.00    +0.029 A 
ATOM     31  C   UNL     1       1.406  -0.339  -4.526  0.00  0.00    +0.005 A 
ENDBRANCH  22  29
ENDBRANCH  20  22
ENDBRANCH   1  20
TORSDOF 6
