REMARK  Name = ZINC04488709
REMARK  6 active torsions:
REMARK  status: ('A' for Active; 'I' for Inactive)
REMARK    1  A    between atoms: C_1  and  C_2
REMARK    2  A    between atoms: C_2  and  C_32
REMARK    3  A    between atoms: C_9  and  C_21
REMARK    4  A    between atoms: C_17  and  C_19
REMARK    5  A    between atoms: C_17  and  C_20
REMARK    6  A    between atoms: N_23  and  C_24
REMARK                            x       y       z     vdW  Elec       q    Type
REMARK                         _______ _______ _______ _____ _____    ______ ____
ROOT
ATOM      1  C   UNL     1      -3.621  -0.341  -1.062  0.00  0.00    +0.074 C 
ATOM      2  C   UNL     1      -2.934   0.900  -0.488  0.00  0.00    +0.166 C 
ATOM      3  O   UNL     1      -1.534   0.911  -0.891  0.00  0.00    -0.341 OA
ATOM      4  C   UNL     1      -0.859   0.326   0.237  0.00  0.00    +0.187 C 
ATOM      5  C   UNL     1      -1.645   0.904   1.441  0.00  0.00    +0.191 C 
ATOM      6  O   UNL     1      -3.007   0.872   0.945  0.00  0.00    -0.340 OA
ATOM      7  C   UNL     1      -1.288   2.362   1.713  0.00  0.00    +0.238 C 
ATOM      8  O   UNL     1       0.120   2.619   1.676  0.00  0.00    -0.333 OA
ATOM      9  C   UNL     1       0.663   2.275   0.411  0.00  0.00    +0.286 C 
ATOM     10  C   UNL     1       0.584   0.726   0.331  0.00  0.00    +0.209 C 
ATOM     11  O   UNL     1       1.440   0.437  -0.766  0.00  0.00    -0.338 OA
ATOM     12  C   UNL     1       2.413   1.506  -0.794  0.00  0.00    +0.168 C 
ATOM     13  O   UNL     1       2.068   2.469   0.233  0.00  0.00    -0.318 OA
ATOM     14  C   UNL     1       2.392   2.186  -2.165  0.00  0.00    +0.074 C 
ATOM     15  C   UNL     1       3.808   0.940  -0.523  0.00  0.00    +0.074 C 
ATOM     16  C   UNL     1      -3.626   2.159  -1.014  0.00  0.00    +0.074 C 
ENDROOT
BRANCH   7  17
ATOM     17  C   UNL     1      -1.964   3.224   0.678  0.00  0.00    +0.249 C 
ATOM     18  O   UNL     1      -1.454   3.376  -0.411  0.00  0.00    -0.273 OA
ATOM     19  N   UNL     1      -3.136   3.825   0.964  0.00  0.00    -0.283 N 
ATOM     20  H   UNL     1      -3.502   3.774   1.861  0.00  0.00    +0.155 HD
BRANCH  19  21
ATOM     21  C   UNL     1      -3.826   4.525  -0.035  0.00  0.00    +0.036 A 
ATOM     22  C   UNL     1      -5.203   4.680   0.051  0.00  0.00    +0.026 A 
ATOM     23  C   UNL     1      -5.882   5.370  -0.934  0.00  0.00    +0.043 A 
ATOM     24  C   UNL     1      -5.192   5.907  -2.007  0.00  0.00    +0.159 A 
ATOM     25  C   UNL     1      -3.816   5.754  -2.095  0.00  0.00    +0.160 A 
ATOM     26  C   UNL     1      -3.132   5.068  -1.107  0.00  0.00    +0.064 A 
ATOM     27  F   UNL     1      -3.144   6.278  -3.143  0.00  0.00    -0.202 F 
ATOM     28  F   UNL     1      -5.858   6.581  -2.970  0.00  0.00    -0.202 F 
ENDBRANCH  19  21
ENDBRANCH   7  17
TORSDOF 2
