REMARK  Name = ZINC36516727
REMARK  17 active torsions:
REMARK  status: ('A' for Active; 'I' for Inactive)
REMARK    1  A    between atoms: C_1  and  C_2
REMARK    2  A    between atoms: C_2  and  C_3
REMARK    3  A    between atoms: C_3  and  C_4
REMARK    4  A    between atoms: C_4  and  C_5
REMARK    5  A    between atoms: C_5  and  C_6
REMARK    6  A    between atoms: C_6  and  N_7
REMARK    7  A    between atoms: N_7  and  C_8
REMARK    8  A    between atoms: C_8  and  C_10
REMARK    9  A    between atoms: C_8  and  C_20
REMARK   10  A    between atoms: C_13  and  C_16
REMARK   11  A    between atoms: N_22  and  C_23
REMARK   12  A    between atoms: C_23  and  C_24
REMARK   13  A    between atoms: C_24  and  C_25
REMARK   14  A    between atoms: C_25  and  C_26
REMARK   15  A    between atoms: C_27  and  C_29
REMARK   16  A    between atoms: C_30  and  C_31
REMARK   17  A    between atoms: C_30  and  C_32
REMARK                            x       y       z     vdW  Elec       q    Type
REMARK                         _______ _______ _______ _____ _____    ______ ____
ROOT
ATOM      1  C   UNL     1       2.810  -5.745  -2.961  0.00  0.00    +0.192 C 
ENDROOT
BRANCH   1   2
ATOM      2  C   UNL     1       3.786  -5.306  -4.022  0.00  0.00    -0.018 A 
ATOM      3  C   UNL     1       3.903  -6.027  -5.196  0.00  0.00    +0.006 A 
ATOM      4  C   UNL     1       4.798  -5.624  -6.169  0.00  0.00    +0.013 A 
ATOM      5  C   UNL     1       5.576  -4.499  -5.969  0.00  0.00    +0.055 A 
ATOM      6  C   UNL     1       5.458  -3.777  -4.796  0.00  0.00    +0.013 A 
ATOM      7  C   UNL     1       4.560  -4.178  -3.825  0.00  0.00    +0.006 A 
BRANCH   5   8
ATOM      8  C   UNL     1       6.552  -4.059  -7.029  0.00  0.00    +0.417 C 
ATOM      9  F   UNL     1       5.918  -3.178  -7.911  0.00  0.00    -0.166 F 
ATOM     10  F   UNL     1       7.637  -3.415  -6.426  0.00  0.00    -0.166 F 
ATOM     11  F   UNL     1       7.008  -5.178  -7.736  0.00  0.00    -0.166 F 
ENDBRANCH   5   8
ENDBRANCH   1   2
BRANCH   1  12
ATOM     12  C   UNL     1       2.662  -7.245  -3.006  0.00  0.00    +0.238 C 
ATOM     13  O   UNL     1       1.575  -7.740  -3.220  0.00  0.00    -0.273 OA
ATOM     14  N   UNL     1       3.735  -8.034  -2.808  0.00  0.00    -0.313 N 
ATOM     15  H   UNL     1       4.604  -7.638  -2.637  0.00  0.00    +0.149 HD
BRANCH  14  16
ATOM     16  C   UNL     1       3.591  -9.492  -2.852  0.00  0.00    +0.104 C 
BRANCH  16  17
ATOM     17  C   UNL     1       4.950 -10.147  -2.598  0.00  0.00    +0.018 C 
BRANCH  17  18
ATOM     18  C   UNL     1       4.799 -11.669  -2.643  0.00  0.00    -0.002 C 
ATOM     19  C   UNL     1       6.158 -12.324  -2.389  0.00  0.00    +0.004 C 
ENDBRANCH  17  18
ENDBRANCH  16  17
ENDBRANCH  14  16
ENDBRANCH   1  12
BRANCH   1  20
ATOM     20  N   UNL     1       1.509  -5.118  -3.205  0.00  0.00    -0.282 N 
ATOM     21  C   UNL     1       0.870  -5.323  -4.374  0.00  0.00    +0.240 C 
ATOM     22  O   UNL     1       1.324  -6.106  -5.186  0.00  0.00    -0.271 OA
BRANCH  21  23
ATOM     23  C   UNL     1      -0.376  -4.598  -4.668  0.00  0.00    +0.066 C 
ATOM     24  C   UNL     1      -0.938  -4.701  -5.869  0.00  0.00    -0.071 C 
ATOM     25  C   UNL     1      -0.215  -5.420  -6.979  0.00  0.00    +0.039 C 
ATOM     26  C   UNL     1      -2.296  -4.099  -6.119  0.00  0.00    +0.039 C 
ENDBRANCH  21  23
BRANCH  20  27
ATOM     27  C   UNL     1       0.902  -4.269  -2.177  0.00  0.00    +0.109 C 
BRANCH  27  28
ATOM     28  C   UNL     1       1.351  -2.821  -2.382  0.00  0.00    +0.019 C 
BRANCH  28  29
ATOM     29  C   UNL     1       0.717  -1.933  -1.309  0.00  0.00    +0.002 C 
BRANCH  29  30
ATOM     30  C   UNL     1       1.166  -0.485  -1.514  0.00  0.00    -0.000 C 
BRANCH  30  32
ATOM     31  C   UNL     1       0.981   1.850  -0.645  0.00  0.00    +0.004 C 
ATOM     32  C   UNL     1       0.532   0.402  -0.440  0.00  0.00    -0.003 C 
ENDBRANCH  30  32
ENDBRANCH  29  30
ENDBRANCH  28  29
ENDBRANCH  27  28
ENDBRANCH  20  27
ENDBRANCH   1  20
TORSDOF 13
