REMARK  Name = ZINC46032141
REMARK  7 active torsions:
REMARK  status: ('A' for Active; 'I' for Inactive)
REMARK    1  A    between atoms: C_1  and  C_2
REMARK    2  A    between atoms: C_3  and  N_9
REMARK    3  A    between atoms: N_15  and  C_18
REMARK    4  A    between atoms: C_18  and  C_19
REMARK    5  A    between atoms: C_27  and  C_29
REMARK    6  A    between atoms: C_33  and  O_35
REMARK    7  A    between atoms: O_35  and  C_36
REMARK                            x       y       z     vdW  Elec       q    Type
REMARK                         _______ _______ _______ _____ _____    ______ ____
ROOT
ATOM      1  C   UNL     1      -1.529   2.042  -8.001  0.00  0.00    +0.140 C 
ENDROOT
BRANCH   1   8
ATOM      2  N   UNL     1      -0.004   0.011  -2.413  0.00  0.00    -0.269 N 
ATOM      3  C   UNL     1       0.095  -0.653  -3.581  0.00  0.00    +0.307 C 
ATOM      4  O   UNL     1       0.107  -1.869  -3.590  0.00  0.00    -0.252 OA
ATOM      5  N   UNL     1       0.182   0.030  -4.740  0.00  0.00    -0.283 N 
ATOM      6  C   UNL     1       0.279   1.498  -4.745  0.00  0.00    +0.124 C 
ATOM      7  C   UNL     1      -0.786   2.053  -5.697  0.00  0.00    +0.104 C 
ATOM      8  N   UNL     1      -0.641   1.416  -7.013  0.00  0.00    -0.294 NA
ATOM      9  C   UNL     1      -0.880  -0.032  -6.934  0.00  0.00    +0.104 C 
ATOM     10  C   UNL     1       0.187  -0.672  -6.032  0.00  0.00    +0.124 C 
ATOM     11  H   UNL     1      -0.045   0.981  -2.408  0.00  0.00    +0.156 HD
BRANCH   2  14
ATOM     12  C   UNL     1       0.726   1.377  -0.025  0.00  0.00    +0.047 C 
ATOM     13  C   UNL     1       0.301  -0.068  -0.018  0.00  0.00    -0.011 A 
ATOM     14  C   UNL     1      -0.047  -0.697  -1.206  0.00  0.00    +0.039 A 
ATOM     15  C   UNL     1      -0.438  -2.029  -1.196  0.00  0.00    +0.024 A 
ATOM     16  C   UNL     1      -0.480  -2.726  -0.004  0.00  0.00    +0.003 A 
ATOM     17  C   UNL     1      -0.134  -2.099   1.178  0.00  0.00    +0.020 A 
ATOM     18  C   UNL     1       0.262  -0.772   1.171  0.00  0.00    +0.046 A 
ATOM     19 CL   UNL     1       0.704   0.010   2.656  0.00  0.00    -0.083 Cl
ENDBRANCH   2  14
ENDBRANCH   1   8
BRANCH   1  20
ATOM     20  C   UNL     1      -1.183   1.538  -9.379  0.00  0.00    +0.063 A 
ATOM     21  C   UNL     1      -2.088   0.787 -10.099  0.00  0.00    +0.096 A 
ATOM     22  C   UNL     1      -1.748   0.330 -11.373  0.00  0.00    +0.275 A 
ATOM     23  O   UNL     1      -2.546  -0.335 -12.016  0.00  0.00    -0.266 OA
ATOM     24  N   UNL     1      -0.524   0.628 -11.899  0.00  0.00    -0.171 N 
ATOM     25  C   UNL     1       0.312   1.377 -11.117  0.00  0.00    +0.199 A 
ATOM     26  N   UNL     1      -0.001   1.814  -9.923  0.00  0.00    -0.225 NA
ATOM     27  S   UNL     1       1.760   1.537 -12.139  0.00  0.00    -0.028 S 
ATOM     28  C   UNL     1       1.166   0.601 -13.538  0.00  0.00    +0.132 A 
ATOM     29  N   UNL     1      -0.031   0.252 -13.145  0.00  0.00    -0.154 NA
BRANCH  28  30
ATOM     30  C   UNL     1       1.852   0.298 -14.814  0.00  0.00    +0.012 A 
ATOM     31  C   UNL     1       1.205  -0.454 -15.795  0.00  0.00    +0.011 A 
ATOM     32  C   UNL     1       1.847  -0.735 -16.984  0.00  0.00    +0.004 A 
ATOM     33  C   UNL     1       3.131  -0.273 -17.206  0.00  0.00    +0.045 A 
ATOM     34  C   UNL     1       3.783   0.475 -16.236  0.00  0.00    +0.121 A 
ATOM     35  C   UNL     1       3.144   0.768 -15.042  0.00  0.00    +0.056 A 
BRANCH  34  36
ATOM     36  O   UNL     1       5.045   0.926 -16.459  0.00  0.00    -0.495 OA
ATOM     37  C   UNL     1       5.640   0.593 -17.715  0.00  0.00    +0.277 C 
ENDBRANCH  34  36
ENDBRANCH  28  30
ENDBRANCH   1  20
TORSDOF 5
