REMARK  Name = ZINC01370845
REMARK  3 active torsions:
REMARK  status: ('A' for Active; 'I' for Inactive)
REMARK    1  A    between atoms: C_1  and  C_2
REMARK    2  A    between atoms: C_6  and  C_8
REMARK    3  A    between atoms: C_19  and  C_22
REMARK                            x       y       z     vdW  Elec       q    Type
REMARK                         _______ _______ _______ _____ _____    ______ ____
ROOT
ATOM      1  C   UNL     1      -0.070   5.323   0.029  0.00  0.00    +0.247 C 
ATOM      2  O   UNL     1      -1.127   5.917  -0.064  0.00  0.00    -0.270 OA
ATOM      3  N   UNL     1       1.084   6.012   0.124  0.00  0.00    -0.295 N 
ATOM      4  C   UNL     1       2.381   5.318   0.117  0.00  0.00    +0.127 C 
ATOM      5  C   UNL     1       3.276   5.980  -0.943  0.00  0.00    +0.125 C 
ATOM      6  N   UNL     1       3.347   7.424  -0.683  0.00  0.00    -0.311 N 
ATOM      7  C   UNL     1       2.027   8.055  -0.815  0.00  0.00    +0.125 C 
ATOM      8  C   UNL     1       1.081   7.478   0.243  0.00  0.00    +0.127 C 
ATOM      9  C   UNL     1       4.273   8.032  -1.512  0.00  0.00    +0.140 A 
ATOM     10  C   UNL     1       5.592   7.601  -1.547  0.00  0.00    +0.098 A 
ATOM     11  C   UNL     1       6.532   8.220  -2.397  0.00  0.00    +0.111 A 
ATOM     12  C   UNL     1       7.857   7.629  -2.301  0.00  0.00    +0.106 A 
ATOM     13  N   UNL     1       8.059   6.626  -1.485  0.00  0.00    -0.208 NA
ATOM     14  S   UNL     1       6.543   6.339  -0.750  0.00  0.00    +0.017 S 
ATOM     15  N   UNL     1       6.072   9.243  -3.149  0.00  0.00    -0.233 NA
ATOM     16  C   UNL     1       4.821   9.623  -3.083  0.00  0.00    +0.224 A 
ATOM     17  N   UNL     1       3.925   9.052  -2.296  0.00  0.00    -0.220 NA
ENDROOT
BRANCH   1  23
ATOM     18  C   UNL     1      -1.792   0.972  -1.704  0.00  0.00    +0.044 C 
ATOM     19  C   UNL     1      -0.877   1.748  -0.792  0.00  0.00    -0.050 A 
ATOM     20  C   UNL     1      -0.017   1.076   0.058  0.00  0.00    +0.003 A 
ATOM     21  C   UNL     1       0.829   1.781   0.895  0.00  0.00    +0.001 A 
ATOM     22  C   UNL     1       0.817   3.160   0.891  0.00  0.00    +0.013 A 
ATOM     23  C   UNL     1      -0.052   3.845   0.039  0.00  0.00    +0.037 A 
ATOM     24  C   UNL     1      -0.903   3.127  -0.802  0.00  0.00    +0.016 A 
ENDBRANCH   1  23
BRANCH  12  25
ATOM     25  C   UNL     1       8.971   8.158  -3.122  0.00  0.00    +0.003 A 
ATOM     26  C   UNL     1       8.727   8.629  -4.412  0.00  0.00    +0.011 A 
ATOM     27  C   UNL     1       9.768   9.125  -5.170  0.00  0.00    +0.020 A 
ATOM     28  C   UNL     1      11.053   9.147  -4.657  0.00  0.00    +0.041 A 
ATOM     29  C   UNL     1      11.302   8.675  -3.379  0.00  0.00    +0.020 A 
ATOM     30  C   UNL     1      10.268   8.182  -2.610  0.00  0.00    +0.011 A 
ATOM     31 CL   UNL     1      12.359   9.767  -5.619  0.00  0.00    -0.084 Cl
ENDBRANCH  12  25
TORSDOF 2
