REMARK  Name = ZINC13647995
REMARK  7 active torsions:
REMARK  status: ('A' for Active; 'I' for Inactive)
REMARK    1  A    between atoms: C_1  and  C_2
REMARK    2  A    between atoms: N_5  and  C_11
REMARK    3  A    between atoms: C_7  and  C_10
REMARK    4  A    between atoms: C_12  and  C_22
REMARK    5  A    between atoms: C_23  and  C_24
REMARK    6  A    between atoms: C_23  and  C_26
REMARK    7  A    between atoms: N_28  and  C_29
REMARK                            x       y       z     vdW  Elec       q    Type
REMARK                         _______ _______ _______ _____ _____    ______ ____
ROOT
ATOM      1  C   UNL     1      -2.100  -2.855  -0.663  0.00  0.00    +0.136 A 
ATOM      2  C   UNL     1      -1.960  -4.259  -0.519  0.00  0.00    +0.081 A 
ATOM      3  C   UNL     1      -2.701  -5.101  -1.388  0.00  0.00    +0.267 A 
ATOM      4  O   UNL     1      -2.614  -6.312  -1.302  0.00  0.00    -0.267 OA
ATOM      5  N   UNL     1      -3.507  -4.535  -2.313  0.00  0.00    -0.268 N 
ATOM      6  C   UNL     1      -4.223  -5.335  -3.152  0.00  0.00    +0.096 A 
ATOM      7  C   UNL     1      -5.038  -4.802  -4.090  0.00  0.00    +0.018 A 
ATOM      8  C   UNL     1      -5.156  -3.411  -4.209  0.00  0.00    +0.005 A 
ATOM      9  C   UNL     1      -4.444  -2.602  -3.374  0.00  0.00    +0.047 A 
ATOM     10  C   UNL     1      -3.602  -3.174  -2.405  0.00  0.00    +0.142 A 
ATOM     11  N   UNL     1      -2.913  -2.373  -1.590  0.00  0.00    -0.214 NA
ENDROOT
BRANCH   1  15
ATOM     12  C   UNL     1      -1.605   1.659   1.096  0.00  0.00    +0.039 C 
ATOM     13  C   UNL     1      -1.078   0.403   0.398  0.00  0.00    +0.133 C 
ATOM     14  C   UNL     1      -2.022  -0.772   0.678  0.00  0.00    +0.138 C 
ATOM     15  N   UNL     1      -1.401  -2.000   0.158  0.00  0.00    -0.310 N 
ATOM     16  C   UNL     1      -0.009  -2.288   0.541  0.00  0.00    +0.138 C 
ATOM     17  C   UNL     1       0.836  -1.039   0.267  0.00  0.00    +0.133 C 
ATOM     18  O   UNL     1       0.225   0.091   0.895  0.00  0.00    -0.371 OA
ATOM     19  C   UNL     1       2.243  -1.240   0.833  0.00  0.00    +0.039 C 
ENDBRANCH   1  15
BRANCH   2  20
ATOM     20  C   UNL     1      -1.109  -4.803   0.459  0.00  0.00    +0.040 C 
ATOM     21  C   UNL     1       0.012  -5.528   0.077  0.00  0.00    +0.114 C 
BRANCH  21  22
ATOM     22  C   UNL     1       0.827  -6.205   1.091  0.00  0.00    +0.255 C 
ATOM     23  O   UNL     1       0.521  -6.130   2.267  0.00  0.00    -0.269 OA
ATOM     24  N   UNL     1       1.915  -6.910   0.721  0.00  0.00    -0.308 N 
ATOM     25  H   UNL     1       2.159  -6.969  -0.216  0.00  0.00    +0.149 HD
BRANCH  24  26
ATOM     26  C   UNL     1       2.729  -7.586   1.734  0.00  0.00    +0.073 C 
ATOM     27  C   UNL     1       3.746  -6.599   2.313  0.00  0.00    +0.022 C 
ATOM     28  C   UNL     1       4.596  -7.305   3.371  0.00  0.00    +0.002 C 
ATOM     29  C   UNL     1       5.335  -8.482   2.730  0.00  0.00    +0.000 C 
ATOM     30  C   UNL     1       4.318  -9.468   2.151  0.00  0.00    +0.002 C 
ATOM     31  C   UNL     1       3.468  -8.762   1.093  0.00  0.00    +0.022 C 
ENDBRANCH  24  26
ENDBRANCH  21  22
BRANCH  21  32
ATOM     32  C   UNL     1       0.372  -5.616  -1.306  0.00  0.00    +0.104 C 
ATOM     33  N   UNL     1       0.657  -5.686  -2.403  0.00  0.00    -0.191 NA
ENDBRANCH  21  32
ENDBRANCH   2  20
TORSDOF 5
