REMARK  Name = ZINC59771768
REMARK  10 active torsions:
REMARK  status: ('A' for Active; 'I' for Inactive)
REMARK    1  A    between atoms: C_1  and  C_2
REMARK    2  A    between atoms: C_4  and  C_27
REMARK    3  A    between atoms: C_5  and  S_14
REMARK    4  A    between atoms: C_6  and  C_13
REMARK    5  A    between atoms: C_7  and  N_8
REMARK    6  A    between atoms: N_8  and  S_9
REMARK    7  A    between atoms: S_9  and  C_12
REMARK    8  A    between atoms: S_14  and  N_17
REMARK    9  A    between atoms: N_17  and  C_18
REMARK   10  A    between atoms: C_21  and  N_25
REMARK                            x       y       z     vdW  Elec       q    Type
REMARK                         _______ _______ _______ _____ _____    ______ ____
ROOT
ATOM      1  S   UNL     1       0.414  -4.968   0.155  0.00  0.00    +0.073 S 
ATOM      2  O   UNL     1       0.646  -5.604  -1.094  0.00  0.00    -0.150 OA
ATOM      3  O   UNL     1       1.254  -5.175   1.283  0.00  0.00    -0.150 OA
ENDROOT
BRANCH   1   8
ATOM      4  C   UNL     1       0.386   0.972  -0.928  0.00  0.00    +0.046 C 
ATOM      5  C   UNL     1       0.393  -0.510  -0.656  0.00  0.00    -0.025 A 
ATOM      6  C   UNL     1       0.316  -1.406  -1.704  0.00  0.00    +0.010 A 
ATOM      7  C   UNL     1       0.322  -2.766  -1.455  0.00  0.00    -0.023 A 
ATOM      8  C   UNL     1       0.407  -3.234  -0.156  0.00  0.00    +0.116 A 
ATOM      9  C   UNL     1       0.485  -2.344   0.896  0.00  0.00    +0.001 A 
ATOM     10  C   UNL     1       0.484  -0.977   0.649  0.00  0.00    +0.082 A 
ATOM     11  C   UNL     1       0.577  -2.855   2.311  0.00  0.00    +0.048 C 
ATOM     12  C   UNL     1       0.236  -3.741  -2.601  0.00  0.00    +0.046 C 
BRANCH  10  13
ATOM     13  N   UNL     1       0.569  -0.073   1.711  0.00  0.00    -0.102 NA
BRANCH  13  14
ATOM     14  S   UNL     1       1.895   0.907   1.861  0.00  0.00    +0.059 S 
ATOM     15  O   UNL     1       3.003   0.017   1.890  0.00  0.00    -0.154 OA
ATOM     16  O   UNL     1       1.760   1.861   0.816  0.00  0.00    -0.154 OA
ATOM     17  C   UNL     1       1.699   1.714   3.474  0.00  0.00    +0.220 C 
ENDBRANCH  13  14
ENDBRANCH  10  13
ENDBRANCH   1   8
BRANCH   1  18
ATOM     18  N   UNL     1      -1.118  -5.388   0.623  0.00  0.00    -0.216 N 
ATOM     19  H   UNL     1      -1.277  -5.721   1.520  0.00  0.00    +0.174 HD
BRANCH  18  20
ATOM     20  C   UNL     1      -2.183  -5.263  -0.276  0.00  0.00    +0.051 A 
ATOM     21  C   UNL     1      -2.340  -4.093  -1.008  0.00  0.00    +0.046 A 
ATOM     22  C   UNL     1      -3.391  -3.969  -1.896  0.00  0.00    +0.065 A 
ATOM     23  C   UNL     1      -4.292  -5.014  -2.057  0.00  0.00    +0.062 A 
ATOM     24  C   UNL     1      -4.135  -6.184  -1.325  0.00  0.00    +0.065 A 
ATOM     25  C   UNL     1      -3.080  -6.310  -0.441  0.00  0.00    +0.046 A 
ATOM     26 CL   UNL     1      -5.260  -7.491  -1.525  0.00  0.00    -0.082 Cl
ATOM     27 CL   UNL     1      -3.587  -2.506  -2.811  0.00  0.00    -0.082 Cl
BRANCH  23  28
ATOM     28  N   UNL     1      -5.359  -4.889  -2.957  0.00  0.00    -0.356 N 
ATOM     29  H   UNL     1      -5.468  -4.072  -3.468  0.00  0.00    +0.142 HD
ATOM     30  H   UNL     1      -5.987  -5.619  -3.069  0.00  0.00    +0.142 HD
ENDBRANCH  23  28
ENDBRANCH  18  20
ENDBRANCH   1  18
TORSDOF 6
