REMARK  Name = ZINC64622290
REMARK  3 active torsions:
REMARK  status: ('A' for Active; 'I' for Inactive)
REMARK    1  A    between atoms: C_8  and  C_30
REMARK    2  A    between atoms: C_16  and  C_18
REMARK    3  A    between atoms: C_22  and  N_24
REMARK                            x       y       z     vdW  Elec       q    Type
REMARK                         _______ _______ _______ _____ _____    ______ ____
ROOT
ATOM      1  C   UNL     1      -0.143   0.405  -2.009  0.00  0.00    +0.001 A 
ATOM      2  C   UNL     1       0.927   1.309  -1.986  0.00  0.00    +0.002 A 
ATOM      3  C   UNL     1       2.183   0.942  -1.655  0.00  0.00    +0.026 A 
ATOM      4  C   UNL     1       2.473  -0.406  -1.310  0.00  0.00    +0.043 A 
ATOM      5  N   UNL     1       3.589  -0.992  -0.940  0.00  0.00    -0.376 N 
ATOM      6  C   UNL     1       3.332  -2.421  -0.779  0.00  0.00    +0.127 C 
ATOM      7  C   UNL     1       3.687  -2.911   0.629  0.00  0.00    +0.106 C 
ATOM      8  N   UNL     1       3.036  -4.215   0.832  0.00  0.00    -0.292 N 
ATOM      9  C   UNL     1       1.578  -4.343   0.745  0.00  0.00    +0.113 C 
ATOM     10  C   UNL     1       1.107  -3.871  -0.643  0.00  0.00    +0.052 C 
ATOM     11  C   UNL     1       1.832  -2.583  -0.958  0.00  0.00    -0.035 C 
ATOM     12  C   UNL     1       1.356  -1.383  -1.319  0.00  0.00    -0.001 A 
ATOM     13  C   UNL     1       0.021  -0.900  -1.695  0.00  0.00    +0.010 A 
ATOM     14  C   UNL     1       3.787  -5.301   1.098  0.00  0.00    +0.247 C 
ATOM     15  O   UNL     1       4.988  -5.188   1.252  0.00  0.00    -0.270 OA
ATOM     16  H   UNL     1       4.441  -0.550  -0.797  0.00  0.00    +0.160 HD
ENDROOT
BRANCH  14  17
ATOM     17  C   UNL     1       3.151  -6.632   1.203  0.00  0.00    +0.039 A 
ATOM     18  C   UNL     1       3.740  -7.740   0.592  0.00  0.00    +0.013 A 
ATOM     19  C   UNL     1       3.145  -8.981   0.692  0.00  0.00    +0.003 A 
ATOM     20  C   UNL     1       1.965  -9.132   1.396  0.00  0.00    +0.023 A 
ATOM     21  C   UNL     1       1.370  -8.035   2.008  0.00  0.00    +0.039 A 
ATOM     22  C   UNL     1       1.964  -6.785   1.918  0.00  0.00    +0.036 A 
BRANCH  21  23
ATOM     23  N   UNL     1       0.175  -8.193   2.720  0.00  0.00    -0.254 N 
ATOM     24  C   UNL     1      -0.494  -7.144   3.504  0.00  0.00    +0.134 C 
ATOM     25  C   UNL     1      -1.745  -7.846   4.067  0.00  0.00    +0.125 C 
ATOM     26  N   UNL     1      -1.648  -9.216   3.540  0.00  0.00    -0.297 N 
ATOM     27  C   UNL     1      -0.543  -9.321   2.789  0.00  0.00    +0.307 C 
ATOM     28  O   UNL     1      -0.220 -10.349   2.226  0.00  0.00    -0.252 OA
ATOM     29  H   UNL     1      -2.284  -9.929   3.706  0.00  0.00    +0.150 HD
ENDBRANCH  21  23
ENDBRANCH  14  17
BRANCH   7  30
ATOM     30  C   UNL     1       3.178  -1.910   1.669  0.00  0.00    +0.012 C 
ATOM     31  C   UNL     1       4.077  -0.673   1.669  0.00  0.00    +0.005 C 
ATOM     32  C   UNL     1       3.568   0.328   2.709  0.00  0.00    +0.000 C 
ATOM     33  C   UNL     1       3.592  -0.320   4.095  0.00  0.00    +0.000 C 
ATOM     34  C   UNL     1       2.692  -1.558   4.095  0.00  0.00    +0.000 C 
ATOM     35  C   UNL     1       3.202  -2.558   3.055  0.00  0.00    +0.005 C 
ENDBRANCH   7  30
TORSDOF 3
