REMARK  Name = ZINC12452132
REMARK  9 active torsions:
REMARK  status: ('A' for Active; 'I' for Inactive)
REMARK    1  A    between atoms: C_1  and  C_2
REMARK    2  A    between atoms: C_3  and  C_7
REMARK    3  A    between atoms: C_7  and  C_8
REMARK    4  A    between atoms: C_8  and  C_9
REMARK    5  A    between atoms: C_9  and  N_63
REMARK    6  A    between atoms: C_10  and  N_63
REMARK    7  A    between atoms: N_13  and  C_16
REMARK    8  A    between atoms: C_19  and  N_22
REMARK    9  A    between atoms: C_23  and  C_25
REMARK                            x       y       z     vdW  Elec       q    Type
REMARK                         _______ _______ _______ _____ _____    ______ ____
ROOT
ATOM      1  C   UNL     1      -3.381   3.688  -1.013  0.00  0.00    -0.069 C 
ATOM      2  C   UNL     1      -2.381   4.227   0.014  0.00  0.00    +0.003 C 
ATOM      3  C   UNL     1      -1.045   3.501  -0.152  0.00  0.00    +0.103 C 
ATOM      4  N   UNL     1      -1.243   2.058   0.040  0.00  0.00    -0.330 N 
ATOM      5  C   UNL     1      -2.162   1.510  -0.965  0.00  0.00    +0.103 C 
ATOM      6  C   UNL     1      -3.532   2.177  -0.823  0.00  0.00    +0.003 C 
ENDROOT
BRANCH   4   7
ATOM      7  C   UNL     1      -0.020   1.378   0.025  0.00  0.00    +0.030 A 
ATOM      8  C   UNL     1       1.163   2.081  -0.161  0.00  0.00    +0.025 A 
ATOM      9  C   UNL     1       2.369   1.409  -0.182  0.00  0.00    +0.025 A 
ATOM     10  C   UNL     1       2.399   0.030  -0.015  0.00  0.00    +0.034 A 
ATOM     11  C   UNL     1       1.216  -0.672   0.171  0.00  0.00    +0.025 A 
ATOM     12  C   UNL     1       0.010  -0.000   0.191  0.00  0.00    +0.025 A 
BRANCH  10  13
ATOM     13  N   UNL     1       3.623  -0.652  -0.036  0.00  0.00    -0.285 N 
ATOM     14  C   UNL     1       3.690  -1.901  -0.538  0.00  0.00    +0.220 C 
ATOM     15  O   UNL     1       2.713  -2.399  -1.057  0.00  0.00    -0.275 OA
ATOM     16  H   UNL     1       4.422  -0.225   0.310  0.00  0.00    +0.155 HD
BRANCH  14  17
ATOM     17  C   UNL     1       4.977  -2.679  -0.453  0.00  0.00    +0.075 C 
ATOM     18  C   UNL     1       6.081  -1.964  -1.258  0.00  0.00    +0.013 C 
ATOM     19  C   UNL     1       6.895  -3.118  -1.895  0.00  0.00    +0.001 C 
ATOM     20  C   UNL     1       5.798  -4.148  -2.262  0.00  0.00    +0.001 C 
ATOM     21  C   UNL     1       4.797  -4.068  -1.091  0.00  0.00    +0.013 C 
ENDBRANCH  14  17
ENDBRANCH  10  13
ENDBRANCH   4   7
BRANCH   1  22
ATOM     22  N   UNL     1      -4.686   4.346  -0.812  0.00  0.00    +0.381 N 
ATOM     23  H   UNL     1      -5.209   3.845  -0.084  0.00  0.00    -0.086 HD
ATOM     24  H   UNL     1      -4.534   5.317  -0.516  0.00  0.00    -0.086 HD
BRANCH  22  25
ATOM     25  C   UNL     1      -5.464   4.334  -2.065  0.00  0.00    -0.082 C 
BRANCH  25  26
ATOM     26  C   UNL     1      -6.810   5.021  -1.825  0.00  0.00    -0.014 C 
BRANCH  26  27
ATOM     27  C   UNL     1      -7.624   5.013  -3.121  0.00  0.00    +0.042 C 
BRANCH  27  30
ATOM     28  C   UNL     1      -8.278   8.019  -3.464  0.00  0.00    +0.066 C 
ATOM     29  C   UNL     1      -9.292   6.997  -3.019  0.00  0.00    +0.049 A 
ATOM     30  C   UNL     1      -8.950   5.690  -2.885  0.00  0.00    +0.012 A 
ATOM     31  S   UNL     1     -10.509   4.994  -2.359  0.00  0.00    -0.080 S 
ATOM     32  C   UNL     1     -11.426   6.469  -2.361  0.00  0.00    +0.156 A 
ATOM     33  N   UNL     1     -10.532   7.349  -2.750  0.00  0.00    -0.252 NA
ENDBRANCH  27  30
ENDBRANCH  26  27
ENDBRANCH  25  26
ENDBRANCH  22  25
ENDBRANCH   1  22
TORSDOF 8
