REMARK  Name = ZINC27551245
REMARK  7 active torsions:
REMARK  status: ('A' for Active; 'I' for Inactive)
REMARK    1  A    between atoms: C_1  and  C_2
REMARK    2  A    between atoms: N_4  and  C_24
REMARK    3  A    between atoms: C_8  and  C_9
REMARK    4  A    between atoms: C_12  and  C_14
REMARK    5  A    between atoms: C_17  and  S_20
REMARK    6  A    between atoms: S_20  and  N_23
REMARK    7  A    between atoms: C_27  and  C_30
REMARK                            x       y       z     vdW  Elec       q    Type
REMARK                         _______ _______ _______ _____ _____    ______ ____
ROOT
ATOM      1  C   UNL     1      -1.246   2.337   0.021  0.00  0.00    +0.068 C 
ATOM      2  C   UNL     1      -0.018   1.464   0.010  0.00  0.00    +0.069 C 
ATOM      3  N   UNL     1       1.215   1.873   0.001  0.00  0.00    -0.177 NA
ATOM      4  N   UNL     1       2.105   0.800  -0.014  0.00  0.00    -0.156 N 
ATOM      5  C   UNL     1       1.425  -0.365  -0.013  0.00  0.00    +0.272 C 
ATOM      6  O   UNL     1       1.897  -1.489  -0.024  0.00  0.00    -0.268 OA
ATOM      7  C   UNL     1       0.002  -0.004   0.002  0.00  0.00    +0.065 C 
ATOM      8  C   UNL     1      -1.092  -0.868   0.007  0.00  0.00    +0.061 C 
ENDROOT
BRANCH   4   9
ATOM      9  C   UNL     1       3.496   0.914  -0.027  0.00  0.00    +0.060 A 
ATOM     10  C   UNL     1       4.286  -0.232  -0.035  0.00  0.00    +0.026 A 
ATOM     11  C   UNL     1       5.659  -0.123  -0.053  0.00  0.00    +0.017 A 
ATOM     12  C   UNL     1       6.258   1.140  -0.051  0.00  0.00    +0.063 A 
ATOM     13  C   UNL     1       5.461   2.289  -0.038  0.00  0.00    +0.017 A 
ATOM     14  C   UNL     1       4.089   2.172  -0.026  0.00  0.00    +0.026 A 
BRANCH  12  15
ATOM     15  C   UNL     1       7.728   1.261  -0.065  0.00  0.00    +0.387 C 
ATOM     16  O   UNL     1       8.247   2.359  -0.064  0.00  0.00    -0.241 OA
ATOM     17  O   UNL     1       8.495   0.153  -0.078  0.00  0.00    -0.241 OA
ENDBRANCH  12  15
ENDBRANCH   4   9
BRANCH   8  18
ATOM     18  C   UNL     1      -0.891  -2.254  -0.002  0.00  0.00    +0.129 A 
ATOM     19  C   UNL     1      -1.887  -3.223   0.002  0.00  0.00    +0.050 A 
ATOM     20  C   UNL     1      -1.245  -4.459  -0.011  0.00  0.00    +0.050 A 
ATOM     21  C   UNL     1       0.112  -4.211  -0.022  0.00  0.00    +0.136 A 
ATOM     22  O   UNL     1       0.306  -2.881  -0.022  0.00  0.00    -0.455 OA
BRANCH  21  23
ATOM     23  C   UNL     1       1.174  -5.235  -0.036  0.00  0.00    +0.017 A 
ATOM     24  C   UNL     1       0.841  -6.592  -0.034  0.00  0.00    +0.013 A 
ATOM     25  C   UNL     1       1.839  -7.543  -0.054  0.00  0.00    +0.029 A 
ATOM     26  C   UNL     1       3.168  -7.157  -0.064  0.00  0.00    +0.105 A 
ATOM     27  C   UNL     1       3.506  -5.815  -0.060  0.00  0.00    +0.029 A 
ATOM     28  C   UNL     1       2.518  -4.852  -0.046  0.00  0.00    +0.013 A 
BRANCH  26  29
ATOM     29  S   UNL     1       4.437  -8.380  -0.082  0.00  0.00    +0.056 S 
ATOM     30  O   UNL     1       3.860  -9.555  -0.634  0.00  0.00    -0.153 OA
ATOM     31  O   UNL     1       5.588  -7.762  -0.640  0.00  0.00    -0.153 OA
BRANCH  29  32
ATOM     32  N   UNL     1       4.803  -8.728   1.495  0.00  0.00    -0.204 NA
ATOM     33  H   UNL     1       5.595  -9.491   1.527  0.00  0.00    +0.144 HD
ATOM     34  H   UNL     1       3.906  -9.109   2.004  0.00  0.00    +0.144 HD
ENDBRANCH  29  32
ENDBRANCH  26  29
ENDBRANCH  21  23
ENDBRANCH   8  18
TORSDOF 6
