REMARK  Name = ZINC64042723
REMARK  4 active torsions:
REMARK  status: ('A' for Active; 'I' for Inactive)
REMARK    1  A    between atoms: C_1  and  C_2
REMARK    2  A    between atoms: C_6  and  C_8
REMARK    3  A    between atoms: C_21  and  C_25
REMARK    4  A    between atoms: C_21  and  C_26
REMARK                            x       y       z     vdW  Elec       q    Type
REMARK                         _______ _______ _______ _____ _____    ______ ____
ROOT
ATOM      1  C   UNL     1      -0.018   1.503   0.010  0.00  0.00    +0.042 C 
ATOM      2  C   UNL     1       0.002  -0.004   0.002  0.00  0.00    -0.028 C 
ATOM      3  C   UNL     1      -1.052  -0.828   0.002  0.00  0.00    +0.040 C 
ATOM      4  C   UNL     1      -0.581  -2.237   0.012  0.00  0.00    +0.048 C 
ATOM      5  N   UNL     1       0.702  -2.279  -0.003  0.00  0.00    -0.270 NA
ATOM      6  C   UNL     1       1.221  -0.904  -0.015  0.00  0.00    +0.218 C 
ATOM      7  C   UNL     1      -1.549  -3.394   0.061  0.00  0.00    +0.062 C 
ATOM      8  C   UNL     1      -2.932  -2.965  -0.389  0.00  0.00    -0.022 C 
ATOM      9  C   UNL     1      -3.436  -1.677   0.224  0.00  0.00    +0.086 C 
ATOM     10  C   UNL     1      -2.496  -0.521  -0.015  0.00  0.00    +0.165 C 
ATOM     11  O   UNL     1      -2.906   0.604  -0.210  0.00  0.00    -0.292 OA
ATOM     12  C   UNL     1      -2.915  -2.800  -1.910  0.00  0.00    +0.011 C 
ATOM     13  C   UNL     1      -3.920  -4.081  -0.043  0.00  0.00    +0.011 C 
ENDROOT
BRANCH   6  14
ATOM     14  C   UNL     1       2.030  -0.662  -1.263  0.00  0.00    +0.247 C 
ATOM     15  O   UNL     1       1.931  -1.418  -2.206  0.00  0.00    -0.273 OA
ATOM     16  N   UNL     1       2.863   0.396  -1.331  0.00  0.00    -0.263 N 
ATOM     17  C   UNL     1       3.609   0.620  -2.483  0.00  0.00    +0.165 A 
ATOM     18  N   UNL     1       3.627  -0.083  -3.594  0.00  0.00    -0.229 NA
ATOM     19  C   UNL     1       4.397   0.252  -4.625  0.00  0.00    +0.054 A 
ATOM     20  C   UNL     1       5.153   1.365  -4.436  0.00  0.00    +0.014 A 
ATOM     21  S   UNL     1       4.704   1.862  -2.796  0.00  0.00    -0.057 S 
ATOM     22  C   UNL     1       6.111   1.990  -5.392  0.00  0.00    +0.044 C 
ATOM     23  C   UNL     1       6.399   0.977  -6.513  0.00  0.00    +0.006 C 
ATOM     24  C   UNL     1       5.072   0.396  -7.008  0.00  0.00    +0.006 C 
ATOM     25  C   UNL     1       4.465  -0.515  -5.938  0.00  0.00    +0.056 C 
ATOM     26  H   UNL     1       2.942   1.000  -0.577  0.00  0.00    +0.157 HD
ENDBRANCH   6  14
TORSDOF 1
