REMARK  Name = ZINC41599290
REMARK  9 active torsions:
REMARK  status: ('A' for Active; 'I' for Inactive)
REMARK    1  A    between atoms: C_1  and  C_2
REMARK    2  A    between atoms: C_5  and  N_23
REMARK    3  A    between atoms: C_7  and  N_8
REMARK    4  A    between atoms: C_9  and  C_11
REMARK    5  A    between atoms: N_13  and  C_14
REMARK    6  A    between atoms: C_14  and  C_15
REMARK    7  A    between atoms: C_15  and  C_17
REMARK    8  A    between atoms: C_15  and  N_18
REMARK    9  A    between atoms: C_24  and  C_26
REMARK                            x       y       z     vdW  Elec       q    Type
REMARK                         _______ _______ _______ _____ _____    ______ ____
ROOT
ATOM      1  N   UNL     1       0.640  -0.222   1.705  0.00  0.00    -0.277 N 
ATOM      2  C   UNL     1       1.052  -1.111   2.631  0.00  0.00    +0.303 C 
ATOM      3  O   UNL     1       1.392  -2.226   2.293  0.00  0.00    -0.265 OA
ATOM      4  H   UNL     1       0.439   0.690   1.965  0.00  0.00    +0.155 HD
ENDROOT
BRANCH   1  11
ATOM      5  C   UNL     1      -1.247   1.161   0.089  0.00  0.00    +0.045 C 
ATOM      6  C   UNL     1      -0.409   0.033  -0.454  0.00  0.00    -0.029 A 
ATOM      7  C   UNL     1      -0.542  -0.353  -1.774  0.00  0.00    +0.007 A 
ATOM      8  C   UNL     1       0.224  -1.387  -2.276  0.00  0.00    +0.024 A 
ATOM      9  C   UNL     1       1.133  -2.042  -1.454  0.00  0.00    +0.035 A 
ATOM     10  C   UNL     1       1.269  -1.659  -0.128  0.00  0.00    +0.047 A 
ATOM     11  C   UNL     1       0.501  -0.616   0.372  0.00  0.00    +0.038 A 
BRANCH   9  12
ATOM     12  N   UNL     1       1.908  -3.090  -1.964  0.00  0.00    -0.285 N 
ATOM     13  C   UNL     1       2.259  -3.098  -3.265  0.00  0.00    +0.220 C 
ATOM     14  O   UNL     1       1.981  -2.154  -3.974  0.00  0.00    -0.275 OA
ATOM     15  H   UNL     1       2.194  -3.810  -1.380  0.00  0.00    +0.155 HD
BRANCH  13  16
ATOM     16  C   UNL     1       2.996  -4.280  -3.840  0.00  0.00    +0.075 C 
ATOM     17  C   UNL     1       4.452  -4.069  -4.258  0.00  0.00    +0.013 C 
ATOM     18  C   UNL     1       3.365  -4.229  -5.324  0.00  0.00    +0.013 C 
ENDBRANCH  13  16
ENDBRANCH   9  12
ENDBRANCH   1  11
BRANCH   2  19
ATOM     19  C   UNL     1       1.091  -0.724   4.073  0.00  0.00    +0.299 C 
ATOM     20  O   UNL     1       0.752   0.391   4.411  0.00  0.00    -0.265 OA
ATOM     21  N   UNL     1       1.504  -1.613   4.998  0.00  0.00    -0.309 N 
ATOM     22  H   UNL     1       1.775  -2.504   4.728  0.00  0.00    +0.149 HD
BRANCH  21  23
ATOM     23  C   UNL     1       1.542  -1.233   6.413  0.00  0.00    +0.089 C 
BRANCH  23  24
ATOM     24  C   UNL     1       1.926  -2.449   7.257  0.00  0.00    -0.054 C 
ATOM     25  C   UNL     1       3.349  -2.886   6.904  0.00  0.00    -0.012 C 
BRANCH  24  26
ATOM     26  N   UNL     1       1.861  -2.096   8.682  0.00  0.00    +0.382 N 
ATOM     27  C   UNL     1       0.454  -1.845   9.084  0.00  0.00    -0.078 C 
ATOM     28  C   UNL     1       0.480  -2.053  10.619  0.00  0.00    -0.020 C 
ATOM     29  C   UNL     1       1.464  -3.233  10.790  0.00  0.00    -0.020 C 
ATOM     30  C   UNL     1       2.320  -3.233   9.510  0.00  0.00    -0.078 C 
ATOM     31  H   UNL     1       2.428  -1.282   8.865  0.00  0.00    -0.081 HD
ENDBRANCH  24  26
ENDBRANCH  23  24
ENDBRANCH  21  23
ENDBRANCH   2  19
TORSDOF 7
