REMARK  Name = ZINC39753276
REMARK  7 active torsions:
REMARK  status: ('A' for Active; 'I' for Inactive)
REMARK    1  A    between atoms: C_1  and  C_2
REMARK    2  A    between atoms: C_2  and  O_3
REMARK    3  A    between atoms: O_3  and  C_4
REMARK    4  A    between atoms: C_4  and  C_6
REMARK    5  A    between atoms: C_7  and  N_33
REMARK    6  A    between atoms: C_21  and  C_23
REMARK    7  A    between atoms: C_25  and  N_30
REMARK                            x       y       z     vdW  Elec       q    Type
REMARK                         _______ _______ _______ _____ _____    ______ ____
ROOT
ATOM      1  C   UNL     1       1.464  -2.349   2.423  0.00  0.00    +0.102 C 
ATOM      2  C   UNL     1       1.476  -3.693   2.588  0.00  0.00    +0.194 C 
ATOM      3  O   UNL     1       2.118  -4.279   3.625  0.00  0.00    -0.445 OA
ATOM      4  C   UNL     1       2.577  -3.468   4.581  0.00  0.00    +0.129 C 
ATOM      5  C   UNL     1       2.501  -3.762   5.933  0.00  0.00    +0.035 A 
ATOM      6  C   UNL     1       1.946  -4.976   6.389  0.00  0.00    +0.013 A 
ATOM      7  C   UNL     1       1.899  -5.234   7.724  0.00  0.00    +0.001 A 
ATOM      8  C   UNL     1       2.385  -4.321   8.656  0.00  0.00    +0.002 A 
ATOM      9  C   UNL     1       2.926  -3.130   8.277  0.00  0.00    +0.024 A 
ATOM     10  C   UNL     1       3.008  -2.796   6.915  0.00  0.00    +0.044 A 
ATOM     11  N   UNL     1       3.533  -1.621   6.545  0.00  0.00    -0.284 N 
ATOM     12  C   UNL     1       3.665  -1.238   5.290  0.00  0.00    +0.229 C 
ATOM     13  O   UNL     1       4.149  -0.151   5.032  0.00  0.00    -0.275 OA
ATOM     14  C   UNL     1       3.216  -2.151   4.171  0.00  0.00    +0.154 C 
ATOM     15  C   UNL     1       2.143  -1.405   3.376  0.00  0.00    +0.082 C 
ATOM     16  H   UNL     1       3.833  -1.016   7.240  0.00  0.00    +0.155 HD
ENDROOT
BRANCH  15  17
ATOM     17  C   UNL     1       2.783  -0.283   2.598  0.00  0.00    -0.018 A 
ATOM     18  C   UNL     1       3.749  -0.562   1.650  0.00  0.00    +0.038 A 
ATOM     19  C   UNL     1       4.336   0.467   0.938  0.00  0.00    +0.127 A 
ATOM     20  C   UNL     1       3.957   1.776   1.173  0.00  0.00    +0.034 A 
ATOM     21  C   UNL     1       2.990   2.056   2.120  0.00  0.00    +0.022 A 
ATOM     22  C   UNL     1       2.398   1.026   2.830  0.00  0.00    +0.045 A 
ATOM     23 CL   UNL     1       1.179   1.376   4.015  0.00  0.00    -0.083 Cl
BRANCH  19  24
ATOM     24  N   UNL     1       5.371   0.168  -0.077  0.00  0.00    +0.056 N 
ATOM     25  O   UNL     1       5.703  -0.977  -0.282  0.00  0.00    -0.126 OA
ATOM     26  O   UNL     1       5.885   1.067  -0.700  0.00  0.00    -0.126 OA
ENDBRANCH  19  24
ENDBRANCH  15  17
BRANCH   2  27
ATOM     27  N   UNL     1       0.820  -4.481   1.680  0.00  0.00    -0.329 N 
ATOM     28  H   UNL     1       0.421  -4.083   0.891  0.00  0.00    +0.145 HD
ATOM     29  H   UNL     1       0.755  -5.438   1.826  0.00  0.00    +0.145 HD
ENDBRANCH   2  27
BRANCH   1  30
ATOM     30  C   UNL     1       0.792  -1.815   1.311  0.00  0.00    +0.341 C 
ATOM     31  O   UNL     1      -0.307  -1.308   1.449  0.00  0.00    -0.245 OA
BRANCH  30  32
ATOM     32  O   UNL     1       1.365  -1.863   0.089  0.00  0.00    -0.462 OA
BRANCH  32  34
ATOM     33  C   UNL     1       1.428  -1.446  -2.291  0.00  0.00    +0.048 C 
ATOM     34  C   UNL     1       0.625  -1.300  -0.997  0.00  0.00    +0.229 C 
ENDBRANCH  32  34
ENDBRANCH  30  32
ENDBRANCH   1  30
TORSDOF 6
