REMARK  Name = ZINC63138875
REMARK  2 active torsions:
REMARK  status: ('A' for Active; 'I' for Inactive)
REMARK    1  A    between atoms: C_4  and  C_7
REMARK    2  A    between atoms: N_26  and  C_29
REMARK                            x       y       z     vdW  Elec       q    Type
REMARK                         _______ _______ _______ _____ _____    ______ ____
ROOT
ATOM      1  C   UNL     1       3.711  -0.707  -0.038  0.00  0.00    +0.133 C 
ATOM      2  C   UNL     1       4.022  -1.136  -1.471  0.00  0.00    +0.131 C 
ATOM      3  C   UNL     1       5.147  -2.163  -1.365  0.00  0.00    -0.034 C 
ATOM      4  C   UNL     1       6.181  -1.667  -2.031  0.00  0.00    -0.001 A 
ATOM      5  C   UNL     1       7.524  -2.208  -2.300  0.00  0.00    +0.010 A 
ATOM      6  C   UNL     1       8.354  -1.417  -3.029  0.00  0.00    +0.001 A 
ATOM      7  C   UNL     1       7.988  -0.156  -3.511  0.00  0.00    +0.002 A 
ATOM      8  C   UNL     1       6.775   0.418  -3.313  0.00  0.00    +0.026 A 
ATOM      9  C   UNL     1       5.814  -0.319  -2.561  0.00  0.00    +0.043 A 
ATOM     10  N   UNL     1       4.575  -0.011  -2.236  0.00  0.00    -0.375 N 
ATOM     11  C   UNL     1       4.968  -3.437  -0.586  0.00  0.00    +0.065 C 
ATOM     12  C   UNL     1       4.222  -3.155   0.692  0.00  0.00    +0.167 C 
ATOM     13  N   UNL     1       3.628  -1.847   0.864  0.00  0.00    -0.279 N 
ATOM     14  C   UNL     1       2.952  -1.660   2.045  0.00  0.00    +0.234 C 
ATOM     15  O   UNL     1       2.356  -0.630   2.279  0.00  0.00    -0.274 OA
ATOM     16  C   UNL     1       2.985  -2.800   3.041  0.00  0.00    +0.204 C 
ATOM     17  N   UNL     1       4.364  -3.317   3.113  0.00  0.00    -0.288 N 
ATOM     18  C   UNL     1       5.005  -3.523   1.926  0.00  0.00    +0.237 C 
ATOM     19  O   UNL     1       6.128  -3.977   1.867  0.00  0.00    -0.274 OA
ATOM     20  H   UNL     1       4.105   0.809  -2.455  0.00  0.00    +0.160 HD
ENDROOT
BRANCH   1  24
ATOM     21  C   UNL     1      -0.017   1.378   0.010  0.00  0.00    +0.000 A 
ATOM     22  C   UNL     1       1.171   2.086   0.002  0.00  0.00    +0.000 A 
ATOM     23  C   UNL     1       2.377   1.411  -0.013  0.00  0.00    +0.005 A 
ATOM     24  C   UNL     1       2.396   0.029  -0.020  0.00  0.00    -0.025 A 
ATOM     25  C   UNL     1       1.208  -0.679  -0.012  0.00  0.00    +0.005 A 
ATOM     26  C   UNL     1       0.002  -0.004   0.002  0.00  0.00    +0.000 A 
ENDBRANCH   1  24
BRANCH  17  27
ATOM     27  C   UNL     1       5.016  -3.593   4.395  0.00  0.00    +0.077 C 
ATOM     28  C   UNL     1       4.211  -4.646   5.160  0.00  0.00    +0.022 C 
ATOM     29  C   UNL     1       4.892  -4.934   6.500  0.00  0.00    +0.002 C 
ATOM     30  C   UNL     1       4.962  -3.647   7.324  0.00  0.00    +0.000 C 
ATOM     31  C   UNL     1       5.767  -2.594   6.559  0.00  0.00    +0.002 C 
ATOM     32  C   UNL     1       5.086  -2.306   5.220  0.00  0.00    +0.022 C 
ENDBRANCH  17  27
TORSDOF 2
