REMARK  Name = ZINC10557071
REMARK  2 active torsions:
REMARK  status: ('A' for Active; 'I' for Inactive)
REMARK    1  A    between atoms: C_1  and  C_2
REMARK    2  A    between atoms: C_8  and  C_10
REMARK                            x       y       z     vdW  Elec       q    Type
REMARK                         _______ _______ _______ _____ _____    ______ ____
ROOT
ATOM      1  C   UNL     1      -6.917   2.669   1.510  0.00  0.00    +0.038 A 
ATOM      2  C   UNL     1      -6.628   2.326   0.188  0.00  0.00    +0.015 A 
ATOM      3  C   UNL     1      -5.351   2.051  -0.251  0.00  0.00    +0.025 A 
ATOM      4  C   UNL     1      -4.300   2.124   0.688  0.00  0.00    +0.050 A 
ATOM      5  C   UNL     1      -4.622   2.474   2.014  0.00  0.00    +0.037 A 
ATOM      6  C   UNL     1      -5.886   2.750   2.465  0.00  0.00    +0.030 A 
ATOM      7  S   UNL     1      -3.059   2.451   2.836  0.00  0.00    -0.051 S 
ATOM      8  C   UNL     1      -2.060   1.996   1.433  0.00  0.00    +0.186 C 
ATOM      9  N   UNL     1      -0.772   1.831   1.432  0.00  0.00    -0.110 NA
ATOM     10  S   UNL     1      -0.017   1.417   0.010  0.00  0.00    +0.073 S 
ATOM     11  O   UNL     1       0.002  -0.004   0.002  0.00  0.00    -0.151 OA
ATOM     12  O   UNL     1       1.192   2.163   0.002  0.00  0.00    -0.151 OA
ATOM     13  C   UNL     1      -1.156   2.042  -1.263  0.00  0.00    +0.212 C 
ATOM     14  C   UNL     1      -2.555   1.493  -0.977  0.00  0.00    +0.137 C 
ATOM     15  N   UNL     1      -2.966   1.875   0.398  0.00  0.00    -0.276 N 
ENDROOT
BRANCH   1  23
ATOM     16  C   UNL     1     -14.700   3.750   1.608  0.00  0.00    +0.053 C 
ATOM     17  C   UNL     1     -13.206   3.563   1.681  0.00  0.00    +0.008 A 
ATOM     18  C   UNL     1     -12.369   3.693   2.740  0.00  0.00    +0.124 A 
ATOM     19  N   UNL     1     -11.083   3.471   2.555  0.00  0.00    -0.233 NA
ATOM     20  C   UNL     1     -10.610   3.139   1.369  0.00  0.00    +0.165 A 
ATOM     21  S   UNL     1     -12.049   3.111   0.397  0.00  0.00    -0.057 S 
ATOM     22  N   UNL     1      -9.299   2.875   0.995  0.00  0.00    -0.261 N 
ATOM     23  C   UNL     1      -8.310   2.950   1.907  0.00  0.00    +0.250 C 
ATOM     24  O   UNL     1      -8.565   3.250   3.058  0.00  0.00    -0.270 OA
ATOM     25  H   UNL     1      -9.095   2.636   0.077  0.00  0.00    +0.157 HD
ENDBRANCH   1  23
TORSDOF 1
