REMARK  Name = ZINC03285815
REMARK  6 active torsions:
REMARK  status: ('A' for Active; 'I' for Inactive)
REMARK    1  A    between atoms: C_3  and  N_19
REMARK    2  A    between atoms: C_6  and  C_7
REMARK    3  A    between atoms: N_9  and  N_10
REMARK    4  A    between atoms: N_10  and  C_11
REMARK    5  A    between atoms: N_19  and  S_20
REMARK    6  A    between atoms: S_20  and  C_23
REMARK                            x       y       z     vdW  Elec       q    Type
REMARK                         _______ _______ _______ _____ _____    ______ ____
ROOT
ATOM      1  C   UNL     1      -0.017   1.394   0.010  0.00  0.00    +0.015 A 
ATOM      2  C   UNL     1       1.166   2.096   0.002  0.00  0.00    +0.027 A 
ATOM      3  C   UNL     1       2.381   1.417  -0.013  0.00  0.00    +0.074 A 
ATOM      4  C   UNL     1       2.403   0.025  -0.021  0.00  0.00    +0.027 A 
ATOM      5  C   UNL     1       1.224  -0.684  -0.013  0.00  0.00    +0.015 A 
ATOM      6  C   UNL     1       0.002  -0.004   0.002  0.00  0.00    +0.038 A 
ENDROOT
BRANCH   6   7
ATOM      7  C   UNL     1      -1.264  -0.760   0.011  0.00  0.00    +0.260 C 
ATOM      8  O   UNL     1      -2.326  -0.168   0.024  0.00  0.00    -0.269 OA
ATOM      9  N   UNL     1      -1.244  -2.108   0.003  0.00  0.00    -0.233 N 
ATOM     10  H   UNL     1      -0.398  -2.581  -0.008  0.00  0.00    +0.173 HD
BRANCH   9  11
ATOM     11  N   UNL     1      -2.447  -2.826   0.011  0.00  0.00    -0.271 N 
ATOM     12  H   UNL     1      -3.294  -2.354   0.022  0.00  0.00    +0.169 HD
BRANCH  11  13
ATOM     13  C   UNL     1      -2.428  -4.167   0.004  0.00  0.00    +0.095 C 
ATOM     14  C   UNL     1      -3.629  -4.885   0.012  0.00  0.00    -0.010 C 
ATOM     15  C   UNL     1      -4.863  -4.198   0.022  0.00  0.00    +0.013 C 
ATOM     16  C   UNL     1      -6.027  -4.896   0.030  0.00  0.00    +0.051 C 
ATOM     17  C   UNL     1      -6.005  -6.304   0.028  0.00  0.00    +0.179 C 
ATOM     18  O   UNL     1      -7.056  -6.931   0.035  0.00  0.00    -0.288 OA
ATOM     19  C   UNL     1      -4.776  -6.991   0.018  0.00  0.00    +0.051 C 
ATOM     20  C   UNL     1      -3.610  -6.297   0.004  0.00  0.00    +0.013 C 
ENDBRANCH  11  13
ENDBRANCH   9  11
ENDBRANCH   6   7
BRANCH   3  21
ATOM     21  N   UNL     1       3.575   2.130  -0.022  0.00  0.00    -0.098 NA
BRANCH  21  22
ATOM     22  S   UNL     1       5.021   1.323  -0.041  0.00  0.00    +0.092 S 
ATOM     23  O   UNL     1       5.120   0.638   1.200  0.00  0.00    -0.148 OA
ATOM     24  O   UNL     1       5.095   0.651  -1.290  0.00  0.00    -0.148 OA
BRANCH  22  25
ATOM     25  C   UNL     1       6.296   2.539  -0.048  0.00  0.00    +0.110 A 
ATOM     26  C   UNL     1       6.780   3.027  -1.247  0.00  0.00    +0.030 A 
ATOM     27  C   UNL     1       7.779   3.981  -1.253  0.00  0.00    +0.017 A 
ATOM     28  C   UNL     1       8.296   4.449  -0.058  0.00  0.00    +0.018 A 
ATOM     29  C   UNL     1       7.811   3.961   1.142  0.00  0.00    +0.017 A 
ATOM     30  C   UNL     1       6.808   3.010   1.147  0.00  0.00    +0.030 A 
ATOM     31 BR   UNL     1       9.664   5.754  -0.065  0.00  0.00    -0.050 Br
ENDBRANCH  22  25
ENDBRANCH  21  22
ENDBRANCH   3  21
TORSDOF 6
