REMARK  Name = ZINC11284965
REMARK  3 active torsions:
REMARK  status: ('A' for Active; 'I' for Inactive)
REMARK    1  A    between atoms: C_1  and  C_2
REMARK    2  A    between atoms: N_16  and  C_17
REMARK    3  A    between atoms: C_17  and  C_18
REMARK                            x       y       z     vdW  Elec       q    Type
REMARK                         _______ _______ _______ _____ _____    ______ ____
ROOT
ATOM      1  C   UNL     1      -0.124   1.427  -0.046  0.00  0.00    -0.008 C 
ATOM      2  C   UNL     1      -0.044  -0.100   0.002  0.00  0.00    -0.040 C 
ATOM      3  C   UNL     1       0.532  -0.608  -1.293  0.00  0.00    -0.054 A 
ATOM      4  C   UNL     1       0.128  -0.011  -2.478  0.00  0.00    +0.051 A 
ATOM      5  C   UNL     1       0.631  -0.450  -3.692  0.00  0.00    +0.162 A 
ATOM      6  C   UNL     1       1.548  -1.494  -3.720  0.00  0.00    +0.162 A 
ATOM      7  C   UNL     1       1.949  -2.087  -2.535  0.00  0.00    +0.053 A 
ATOM      8  C   UNL     1       1.443  -1.644  -1.323  0.00  0.00    -0.038 A 
ATOM      9  C   UNL     1       1.907  -2.310  -0.055  0.00  0.00    -0.019 C 
ATOM     10  C   UNL     1       3.341  -1.854   0.276  0.00  0.00    +0.010 C 
ATOM     11  C   UNL     1       4.019  -3.126   0.845  0.00  0.00    +0.001 C 
ATOM     12  C   UNL     1       3.426  -4.254  -0.034  0.00  0.00    +0.001 C 
ATOM     13  C   UNL     1       1.958  -3.833  -0.252  0.00  0.00    +0.010 C 
ATOM     14  C   UNL     1       0.975  -1.963   1.103  0.00  0.00    -0.066 C 
ATOM     15  N   UNL     1       0.792  -0.504   1.136  0.00  0.00    +0.389 N 
ATOM     16  O   UNL     1       2.061  -1.938  -4.900  0.00  0.00    -0.485 OA
ATOM     17  C   UNL     1       1.353  -1.569  -6.088  0.00  0.00    +0.270 C 
ATOM     18  C   UNL     1       1.024  -0.072  -6.006  0.00  0.00    +0.270 C 
ATOM     19  O   UNL     1       0.218   0.146  -4.843  0.00  0.00    -0.485 OA
ATOM     20  H   UNL     1       1.691  -0.049   1.071  0.00  0.00    -0.080 HD
ENDROOT
BRANCH  15  21
ATOM     21  C   UNL     1       0.135  -0.120   2.392  0.00  0.00    -0.002 C 
BRANCH  21  22
ATOM     22  C   UNL     1       1.065  -0.389   3.547  0.00  0.00    +0.094 A 
ATOM     23  N   UNL     1       0.614  -0.227   4.818  0.00  0.00    -0.312 N 
ATOM     24  H   UNL     1      -0.302   0.059   4.964  0.00  0.00    +0.170 HD
ATOM     25  C   UNL     1       1.411  -0.456   5.879  0.00  0.00    +0.260 A 
ATOM     26  O   UNL     1       0.992  -0.306   7.014  0.00  0.00    -0.267 OA
ATOM     27  C   UNL     1       2.760  -0.879   5.649  0.00  0.00    +0.075 A 
ATOM     28  C   UNL     1       3.797  -1.184   6.646  0.00  0.00    -0.023 A 
ATOM     29  C   UNL     1       4.998  -1.564   6.176  0.00  0.00    -0.004 A 
ATOM     30  S   UNL     1       4.827  -1.543   4.406  0.00  0.00    -0.073 S 
ATOM     31  C   UNL     1       3.136  -1.019   4.306  0.00  0.00    +0.116 A 
ATOM     32  N   UNL     1       2.289  -0.779   3.308  0.00  0.00    -0.229 NA
ATOM     33  C   UNL     1       5.978  -1.844   7.283  0.00  0.00    +0.043 C 
ATOM     34  C   UNL     1       5.359  -1.172   8.528  0.00  0.00    +0.010 C 
ATOM     35  C   UNL     1       3.858  -1.181   8.176  0.00  0.00    +0.037 C 
ENDBRANCH  21  22
ENDBRANCH  15  21
TORSDOF 2
