REMARK  Name = ZINC35919116
REMARK  9 active torsions:
REMARK  status: ('A' for Active; 'I' for Inactive)
REMARK    1  A    between atoms: C_1  and  C_2
REMARK    2  A    between atoms: C_6  and  C_8
REMARK    3  A    between atoms: C_8  and  N_9
REMARK    4  A    between atoms: C_14  and  N_30
REMARK    5  A    between atoms: N_21  and  C_24
REMARK    6  A    between atoms: N_30  and  C_31
REMARK    7  A    between atoms: N_30  and  C_32
REMARK    8  A    between atoms: C_32  and  C_33
REMARK    9  A    between atoms: C_32  and  C_34
REMARK                            x       y       z     vdW  Elec       q    Type
REMARK                         _______ _______ _______ _____ _____    ______ ____
ROOT
ATOM      1  N   UNL     1      -1.142  -3.527   2.794  0.00  0.00    +0.385 N 
ATOM      2  C   UNL     1      -2.071  -2.403   2.985  0.00  0.00    -0.072 C 
ATOM      3  C   UNL     1      -3.505  -2.930   2.890  0.00  0.00    +0.037 C 
ATOM      4  C   UNL     1      -3.669  -4.117   3.803  0.00  0.00    +0.048 A 
ATOM      5  C   UNL     1      -2.581  -4.790   4.307  0.00  0.00    -0.003 A 
ATOM      6  C   UNL     1      -2.804  -5.887   5.146  0.00  0.00    +0.128 A 
ATOM      7  N   UNL     1      -4.053  -6.240   5.429  0.00  0.00    -0.199 NA
ATOM      8  C   UNL     1      -5.074  -5.563   4.926  0.00  0.00    +0.220 A 
ATOM      9  N   UNL     1      -4.891  -4.522   4.128  0.00  0.00    -0.219 NA
ATOM     10  N   UNL     1      -6.364  -5.954   5.241  0.00  0.00    -0.297 N 
ATOM     11  C   UNL     1      -6.602  -7.101   6.128  0.00  0.00    +0.127 C 
ATOM     12  C   UNL     1      -7.489  -6.643   7.293  0.00  0.00    +0.124 C 
ATOM     13  N   UNL     1      -8.645  -5.918   6.747  0.00  0.00    -0.327 N 
ATOM     14  C   UNL     1      -8.406  -4.771   5.859  0.00  0.00    +0.124 C 
ATOM     15  C   UNL     1      -7.519  -5.225   4.699  0.00  0.00    +0.127 C 
ATOM     16  C   UNL     1      -1.171  -4.380   3.986  0.00  0.00    -0.037 C 
ATOM     17  H   UNL     1      -1.423  -4.065   1.987  0.00  0.00    -0.081 HD
ENDROOT
BRANCH  13  18
ATOM     18  C   UNL     1      -9.946  -6.312   7.065  0.00  0.00    +0.030 A 
ATOM     19  C   UNL     1     -10.161  -7.314   8.002  0.00  0.00    +0.023 A 
ATOM     20  C   UNL     1     -11.449  -7.701   8.315  0.00  0.00    +0.002 A 
ATOM     21  C   UNL     1     -12.525  -7.093   7.695  0.00  0.00    +0.000 A 
ATOM     22  C   UNL     1     -12.315  -6.095   6.762  0.00  0.00    +0.002 A 
ATOM     23  C   UNL     1     -11.030  -5.699   6.449  0.00  0.00    +0.023 A 
ENDBRANCH  13  18
BRANCH   6  24
ATOM     24  N   UNL     1      -1.736  -6.596   5.673  0.00  0.00    -0.315 N 
ATOM     25  C   UNL     1      -1.250  -7.800   4.996  0.00  0.00    +0.131 C 
BRANCH  24  26
ATOM     26  C   UNL     1      -1.094  -6.141   6.909  0.00  0.00    +0.068 C 
ATOM     27  C   UNL     1      -1.205  -7.234   7.974  0.00  0.00    +0.028 C 
ATOM     28  C   UNL     1       0.381  -5.841   6.636  0.00  0.00    +0.028 C 
ENDBRANCH  24  26
ENDBRANCH   6  24
BRANCH   1  29
ATOM     29  C   UNL     1       0.218  -3.011   2.591  0.00  0.00    -0.040 C 
BRANCH  29  35
ATOM     30  C   UNL     1       0.417   1.362   0.168  0.00  0.00    +0.044 C 
ATOM     31  C   UNL     1       0.369  -0.144   0.140  0.00  0.00    -0.050 A 
ATOM     32  C   UNL     1       0.377  -0.813  -1.070  0.00  0.00    +0.006 A 
ATOM     33  C   UNL     1       0.333  -2.194  -1.096  0.00  0.00    +0.039 A 
ATOM     34  C   UNL     1       0.282  -2.907   0.089  0.00  0.00    +0.125 A 
ATOM     35  C   UNL     1       0.274  -2.236   1.300  0.00  0.00    -0.028 A 
ATOM     36  C   UNL     1       0.323  -0.855   1.324  0.00  0.00    +0.008 A 
ATOM     37  F   UNL     1       0.239  -4.257   0.064  0.00  0.00    -0.205 F 
ENDBRANCH  29  35
ENDBRANCH   1  29
TORSDOF 5
