REMARK  Name = ZINC36575231
REMARK  18 active torsions:
REMARK  status: ('A' for Active; 'I' for Inactive)
REMARK    1  A    between atoms: C_1  and  C_2
REMARK    2  A    between atoms: C_2  and  C_3
REMARK    3  A    between atoms: C_3  and  C_4
REMARK    4  A    between atoms: C_4  and  C_5
REMARK    5  A    between atoms: C_5  and  C_6
REMARK    6  A    between atoms: N_8  and  C_9
REMARK    7  A    between atoms: N_8  and  C_12
REMARK    8  A    between atoms: C_9  and  C_10
REMARK    9  A    between atoms: C_10  and  C_11
REMARK   10  A    between atoms: C_12  and  C_14
REMARK   11  A    between atoms: C_12  and  C_23
REMARK   12  A    between atoms: C_17  and  N_20
REMARK   13  A    between atoms: N_20  and  C_21
REMARK   14  A    between atoms: N_20  and  C_22
REMARK   15  A    between atoms: N_25  and  C_26
REMARK   16  A    between atoms: C_26  and  C_27
REMARK   17  A    between atoms: C_27  and  C_28
REMARK   18  A    between atoms: C_28  and  C_29
REMARK                            x       y       z     vdW  Elec       q    Type
REMARK                         _______ _______ _______ _____ _____    ______ ____
ROOT
ATOM      1  C   UNL     1       2.179  -6.514  -4.290  0.00  0.00    +0.192 C 
ENDROOT
BRANCH   1   2
ATOM      2  C   UNL     1       0.950  -5.877  -4.884  0.00  0.00    -0.018 A 
ATOM      3  C   UNL     1       0.771  -4.508  -4.795  0.00  0.00    +0.008 A 
ATOM      4  C   UNL     1      -0.354  -3.921  -5.339  0.00  0.00    +0.023 A 
ATOM      5  C   UNL     1      -1.307  -4.706  -5.975  0.00  0.00    +0.029 A 
ATOM      6  C   UNL     1      -1.124  -6.080  -6.063  0.00  0.00    +0.023 A 
ATOM      7  C   UNL     1       0.006  -6.661  -5.522  0.00  0.00    +0.008 A 
BRANCH   5   8
ATOM      8  N   UNL     1      -2.446  -4.115  -6.526  0.00  0.00    -0.336 N 
ATOM      9  C   UNL     1      -2.638  -2.666  -6.432  0.00  0.00    +0.129 C 
ATOM     10  C   UNL     1      -3.450  -4.944  -7.197  0.00  0.00    +0.129 C 
ENDBRANCH   5   8
ENDBRANCH   1   2
BRANCH   1  11
ATOM     11  C   UNL     1       2.986  -5.469  -3.562  0.00  0.00    +0.238 C 
ATOM     12  O   UNL     1       2.614  -5.060  -2.482  0.00  0.00    -0.273 OA
ATOM     13  N   UNL     1       4.119  -4.989  -4.111  0.00  0.00    -0.313 N 
ATOM     14  H   UNL     1       4.416  -5.317  -4.974  0.00  0.00    +0.149 HD
BRANCH  13  15
ATOM     15  C   UNL     1       4.902  -3.974  -3.403  0.00  0.00    +0.104 C 
BRANCH  15  16
ATOM     16  C   UNL     1       6.131  -3.604  -4.238  0.00  0.00    +0.018 C 
BRANCH  16  17
ATOM     17  C   UNL     1       6.949  -2.544  -3.499  0.00  0.00    -0.002 C 
ATOM     18  C   UNL     1       8.177  -2.174  -4.333  0.00  0.00    +0.004 C 
ENDBRANCH  16  17
ENDBRANCH  15  16
ENDBRANCH  13  15
ENDBRANCH   1  11
BRANCH   1  21
ATOM     19  C   UNL     1       2.152  -8.841  -3.567  0.00  0.00    +0.216 C 
ATOM     20  O   UNL     1       2.818  -9.121  -4.541  0.00  0.00    -0.276 OA
ATOM     21  N   UNL     1       1.779  -7.564  -3.350  0.00  0.00    -0.286 N 
BRANCH  19  22
ATOM     22  C   UNL     1       1.740  -9.921  -2.600  0.00  0.00    +0.096 C 
BRANCH  22  23
ATOM     23  C   UNL     1       2.288 -11.268  -3.076  0.00  0.00    +0.009 C 
BRANCH  23  24
ATOM     24  C   UNL     1       1.870 -12.365  -2.095  0.00  0.00    +0.000 C 
BRANCH  24  26
ATOM     25  C   UNL     1       2.001 -14.808  -1.589  0.00  0.00    +0.004 C 
ATOM     26  C   UNL     1       2.419 -13.711  -2.571  0.00  0.00    -0.003 C 
ENDBRANCH  24  26
ENDBRANCH  23  24
ENDBRANCH  22  23
ENDBRANCH  19  22
BRANCH  21  27
ATOM     27  C   UNL     1       0.974  -7.226  -2.174  0.00  0.00    +0.108 C 
BRANCH  27  28
ATOM     28  C   UNL     1       1.845  -7.307  -0.919  0.00  0.00    +0.016 C 
ATOM     29  C   UNL     1       1.068  -6.755   0.278  0.00  0.00    +0.005 C 
ENDBRANCH  27  28
ENDBRANCH  21  27
ENDBRANCH   1  21
TORSDOF 13
