REMARK  Name = ZINC09029129
REMARK  3 active torsions:
REMARK  status: ('A' for Active; 'I' for Inactive)
REMARK    1  A    between atoms: C_1  and  C_2
REMARK    2  A    between atoms: C_7  and  C_8
REMARK    3  A    between atoms: N_10  and  C_11
REMARK                            x       y       z     vdW  Elec       q    Type
REMARK                         _______ _______ _______ _____ _____    ______ ____
ROOT
ATOM      1  C   UNL     1       2.191   1.132  -0.193  0.00  0.00    +0.118 A 
ATOM      2  C   UNL     1       2.056  -0.243  -0.225  0.00  0.00    +0.142 A 
ATOM      3  N   UNL     1       3.155  -0.994  -0.278  0.00  0.00    -0.229 NA
ATOM      4  C   UNL     1       4.345  -0.449  -0.288  0.00  0.00    +0.181 A 
ATOM      5  N   UNL     1       4.573   0.899  -0.254  0.00  0.00    -0.257 N 
ATOM      6  C   UNL     1       3.469   1.704  -0.204  0.00  0.00    +0.280 A 
ATOM      7  O   UNL     1       3.598   2.918  -0.170  0.00  0.00    -0.265 OA
ATOM      8  C   UNL     1       5.891   1.337  -0.272  0.00  0.00    +0.039 A 
ATOM      9  C   UNL     1       6.865   0.419  -0.321  0.00  0.00    +0.013 A 
ATOM     10  S   UNL     1       5.992  -1.125  -0.345  0.00  0.00    -0.054 S 
ATOM     11  C   UNL     1       8.342   0.646  -0.348  0.00  0.00    +0.044 C 
ATOM     12  C   UNL     1       8.599   2.124  -0.681  0.00  0.00    +0.006 C 
ATOM     13  C   UNL     1       7.690   2.987   0.200  0.00  0.00    +0.006 C 
ATOM     14  C   UNL     1       6.234   2.825  -0.237  0.00  0.00    +0.055 C 
ENDROOT
BRANCH   1  17
ATOM     15  C   UNL     1       0.835   2.866  -1.109  0.00  0.00    +0.249 C 
ATOM     16  O   UNL     1       1.674   3.050  -1.970  0.00  0.00    -0.270 OA
ATOM     17  N   UNL     1       1.051   1.953  -0.142  0.00  0.00    -0.276 N 
ATOM     18  H   UNL     1       0.419   1.861   0.588  0.00  0.00    +0.155 HD
BRANCH  15  25
ATOM     19  C   UNL     1       0.346   4.755  -3.246  0.00  0.00    +0.044 C 
ATOM     20  C   UNL     1      -0.666   4.563  -2.145  0.00  0.00    -0.038 A 
ATOM     21  C   UNL     1      -1.838   5.291  -2.149  0.00  0.00    +0.004 A 
ATOM     22  C   UNL     1      -2.768   5.116  -1.140  0.00  0.00    +0.000 A 
ATOM     23  C   UNL     1      -2.529   4.211  -0.120  0.00  0.00    +0.001 A 
ATOM     24  C   UNL     1      -1.363   3.474  -0.107  0.00  0.00    +0.013 A 
ATOM     25  C   UNL     1      -0.419   3.649  -1.120  0.00  0.00    +0.040 A 
ENDBRANCH  15  25
ENDBRANCH   1  17
TORSDOF 2
