REMARK  Name = ZINC39007346
REMARK  9 active torsions:
REMARK  status: ('A' for Active; 'I' for Inactive)
REMARK    1  A    between atoms: C_1  and  C_2
REMARK    2  A    between atoms: C_4  and  C_34
REMARK    3  A    between atoms: C_6  and  N_8
REMARK    4  A    between atoms: C_9  and  C_11
REMARK    5  A    between atoms: C_11  and  S_12
REMARK    6  A    between atoms: S_12  and  C_13
REMARK    7  A    between atoms: C_17  and  C_21
REMARK    8  A    between atoms: N_19  and  N_20
REMARK    9  A    between atoms: C_24  and  C_27
REMARK                            x       y       z     vdW  Elec       q    Type
REMARK                         _______ _______ _______ _____ _____    ______ ____
ROOT
ATOM      1  C   UNL     1      -0.421  -3.133   7.461  0.00  0.00    +0.214 C 
ATOM      2  N   UNL     1      -1.686  -3.904   7.335  0.00  0.00    -0.228 NA
ATOM      3  N   UNL     1      -1.400  -5.137   8.084  0.00  0.00    -0.234 NA
ATOM      4  C   UNL     1       0.015  -5.440   7.772  0.00  0.00    +0.185 C 
ATOM      5  N   UNL     1       0.644  -4.160   7.377  0.00  0.00    -0.197 NA
ATOM      6  H   UNL     1      -1.890  -4.108   6.368  0.00  0.00    +0.143 HD
ATOM      7  H   UNL     1      -2.004  -5.889   7.788  0.00  0.00    +0.143 HD
ENDROOT
BRANCH   4   8
ATOM      8  C   UNL     1       0.716  -6.006   9.009  0.00  0.00    +0.187 C 
ATOM      9  C   UNL     1       0.102  -7.336   9.411  0.00  0.00    +0.034 C 
ATOM     10  C   UNL     1      -0.379  -7.109  10.648  0.00  0.00    +0.091 C 
ATOM     11  N   UNL     1      -0.131  -5.828  11.026  0.00  0.00    -0.154 NA
ATOM     12  N   UNL     1       0.470  -5.152  10.182  0.00  0.00    -0.176 NA
BRANCH  10  13
ATOM     13  C   UNL     1      -1.081  -8.116  11.481  0.00  0.00    +0.002 A 
ATOM     14  C   UNL     1      -1.279  -9.408  10.998  0.00  0.00    +0.011 A 
ATOM     15  C   UNL     1      -1.933 -10.341  11.776  0.00  0.00    +0.020 A 
ATOM     16  C   UNL     1      -2.392  -9.996  13.036  0.00  0.00    +0.041 A 
ATOM     17  C   UNL     1      -2.198  -8.713  13.521  0.00  0.00    +0.020 A 
ATOM     18  C   UNL     1      -1.540  -7.775  12.752  0.00  0.00    +0.011 A 
ATOM     19 CL   UNL     1      -3.215 -11.174  14.010  0.00  0.00    -0.084 Cl
ENDBRANCH  10  13
ENDBRANCH   4   8
BRANCH   5  20
ATOM     20  N   UNL     1       1.186  -4.240   6.031  0.00  0.00    -0.264 NA
ATOM     21  H   UNL     1       1.678  -3.393   5.788  0.00  0.00    +0.137 HD
ATOM     22  H   UNL     1       1.783  -5.047   5.929  0.00  0.00    +0.137 HD
ENDBRANCH   5  20
BRANCH   1  23
ATOM     23  S   UNL     1      -0.264  -1.944   6.100  0.00  0.00    -0.115 S 
BRANCH  23  24
ATOM     24  C   UNL     1      -1.307  -0.551   6.613  0.00  0.00    +0.168 C 
BRANCH  24  26
ATOM     25  N   UNL     1      -2.085   1.596   5.662  0.00  0.00    -0.285 N 
ATOM     26  C   UNL     1      -1.363   0.469   5.505  0.00  0.00    +0.227 C 
ATOM     27  O   UNL     1      -0.759   0.275   4.471  0.00  0.00    -0.275 OA
ATOM     28  H   UNL     1      -2.506   1.787   6.515  0.00  0.00    +0.155 HD
BRANCH  25  34
ATOM     29  C   UNL     1      -2.557   6.217   4.050  0.00  0.00    +0.044 C 
ATOM     30  C   UNL     1      -2.458   4.736   3.786  0.00  0.00    -0.048 A 
ATOM     31  C   UNL     1      -2.506   4.261   2.488  0.00  0.00    +0.006 A 
ATOM     32  C   UNL     1      -2.414   2.904   2.241  0.00  0.00    -0.048 A 
ATOM     33  C   UNL     1      -2.274   2.018   3.292  0.00  0.00    +0.026 A 
ATOM     34  C   UNL     1      -2.226   2.491   4.596  0.00  0.00    +0.034 A 
ATOM     35  C   UNL     1      -2.313   3.856   4.840  0.00  0.00    +0.026 A 
ATOM     36  C   UNL     1      -2.468   2.390   0.826  0.00  0.00    +0.044 C 
ENDBRANCH  25  34
ENDBRANCH  24  26
ENDBRANCH  23  24
ENDBRANCH   1  23
TORSDOF 7
