REMARK  Name = ZINC34795338
REMARK  8 active torsions:
REMARK  status: ('A' for Active; 'I' for Inactive)
REMARK    1  A    between atoms: C_1  and  C_2
REMARK    2  A    between atoms: C_2  and  C_3
REMARK    3  A    between atoms: C_4  and  N_17
REMARK    4  A    between atoms: C_5  and  C_9
REMARK    5  A    between atoms: C_9  and  C_10
REMARK    6  A    between atoms: C_10  and  C_11
REMARK    7  A    between atoms: C_18  and  C_20
REMARK    8  A    between atoms: C_23  and  C_26
REMARK                            x       y       z     vdW  Elec       q    Type
REMARK                         _______ _______ _______ _____ _____    ______ ____
ROOT
ATOM      1  C   UNL     1       0.749  -1.031  -1.279  0.00  0.00    +0.057 A 
ATOM      2  C   UNL     1       1.969  -0.603  -1.695  0.00  0.00    +0.078 A 
ATOM      3  C   UNL     1       2.124  -0.988  -3.035  0.00  0.00    +0.085 A 
ATOM      4  N   UNL     1       1.043  -1.622  -3.409  0.00  0.00    -0.177 NA
ATOM      5  N   UNL     1       0.161  -1.670  -2.323  0.00  0.00    -0.279 N 
ATOM      6  H   UNL     1      -0.716  -2.084  -2.317  0.00  0.00    +0.189 HD
ENDROOT
BRANCH   2   7
ATOM      7  N   UNL     1       2.909   0.102  -0.921  0.00  0.00    -0.279 N 
ATOM      8  C   UNL     1       4.206  -0.263  -0.940  0.00  0.00    +0.248 C 
ATOM      9  O   UNL     1       4.564  -1.200  -1.627  0.00  0.00    -0.270 OA
ATOM     10  H   UNL     1       2.623   0.850  -0.374  0.00  0.00    +0.155 HD
BRANCH   8  11
ATOM     11  C   UNL     1       5.193   0.475  -0.124  0.00  0.00    +0.037 A 
ATOM     12  C   UNL     1       4.784   1.548   0.671  0.00  0.00    +0.013 A 
ATOM     13  C   UNL     1       5.711   2.232   1.430  0.00  0.00    +0.013 A 
ATOM     14  C   UNL     1       7.043   1.859   1.404  0.00  0.00    +0.055 A 
ATOM     15  C   UNL     1       7.455   0.797   0.618  0.00  0.00    +0.013 A 
ATOM     16  C   UNL     1       6.538   0.100  -0.141  0.00  0.00    +0.013 A 
BRANCH  14  17
ATOM     17  C   UNL     1       8.049   2.611   2.236  0.00  0.00    +0.417 C 
ATOM     18  F   UNL     1       8.148   2.018   3.499  0.00  0.00    -0.166 F 
ATOM     19  F   UNL     1       9.297   2.575   1.604  0.00  0.00    -0.166 F 
ATOM     20  F   UNL     1       7.636   3.941   2.377  0.00  0.00    -0.166 F 
ENDBRANCH  14  17
ENDBRANCH   8  11
ENDBRANCH   2   7
BRANCH   1  22
ATOM     21  C   UNL     1      -0.525   0.529   0.168  0.00  0.00    +0.010 C 
ATOM     22  C   UNL     1       0.159  -0.837   0.094  0.00  0.00    +0.053 C 
ENDBRANCH   1  22
BRANCH   3  23
ATOM     23  C   UNL     1       3.331  -0.717  -3.896  0.00  0.00    +0.064 C 
BRANCH  23  24
ATOM     24  C   UNL     1       4.047  -2.035  -4.199  0.00  0.00    +0.041 C 
BRANCH  24  25
ATOM     25  C   UNL     1       5.280  -1.759  -5.021  0.00  0.00    -0.047 A 
ATOM     26  C   UNL     1       5.203  -1.745  -6.401  0.00  0.00    +0.003 A 
ATOM     27  C   UNL     1       6.334  -1.492  -7.154  0.00  0.00    +0.000 A 
ATOM     28  C   UNL     1       7.542  -1.253  -6.528  0.00  0.00    +0.000 A 
ATOM     29  C   UNL     1       7.620  -1.266  -5.147  0.00  0.00    +0.000 A 
ATOM     30  C   UNL     1       6.488  -1.515  -4.394  0.00  0.00    +0.003 A 
ENDBRANCH  24  25
ENDBRANCH  23  24
ENDBRANCH   3  23
TORSDOF 7
