REMARK  Name = ZINC20649667
REMARK  4 active torsions:
REMARK  status: ('A' for Active; 'I' for Inactive)
REMARK    1  A    between atoms: C_1  and  C_2
REMARK    2  A    between atoms: C_8  and  C_10
REMARK    3  A    between atoms: C_19  and  C_33
REMARK    4  A    between atoms: C_22  and  C_24
REMARK                            x       y       z     vdW  Elec       q    Type
REMARK                         _______ _______ _______ _____ _____    ______ ____
ROOT
ATOM      1  C   UNL     1      -7.408   1.798   2.273  0.00  0.00    +0.302 C 
ATOM      2  O   UNL     1      -7.108   2.787   2.909  0.00  0.00    -0.265 OA
ATOM      3  N   UNL     1      -6.557   0.756   2.205  0.00  0.00    -0.291 N 
ATOM      4  C   UNL     1      -5.329   0.731   3.014  0.00  0.00    +0.127 C 
ATOM      5  C   UNL     1      -4.144   0.424   2.091  0.00  0.00    +0.125 C 
ATOM      6  N   UNL     1      -4.419  -0.808   1.339  0.00  0.00    -0.311 N 
ATOM      7  C   UNL     1      -5.588  -0.649   0.464  0.00  0.00    +0.125 C 
ATOM      8  C   UNL     1      -6.831  -0.387   1.320  0.00  0.00    +0.127 C 
ATOM      9  C   UNL     1      -3.308  -1.206   0.616  0.00  0.00    +0.140 A 
ATOM     10  C   UNL     1      -2.664  -2.415   0.932  0.00  0.00    +0.095 A 
ATOM     11  C   UNL     1      -1.537  -2.808   0.189  0.00  0.00    -0.021 A 
ATOM     12  C   UNL     1      -1.106  -1.994  -0.828  0.00  0.00    -0.014 A 
ATOM     13  C   UNL     1      -1.796  -0.799  -1.085  0.00  0.00    +0.112 A 
ATOM     14  N   UNL     1      -2.854  -0.446  -0.364  0.00  0.00    -0.227 NA
ATOM     15  C   UNL     1       0.080  -2.335  -1.690  0.00  0.00    +0.038 C 
ATOM     16  C   UNL     1       0.945  -3.398  -1.016  0.00  0.00    +0.005 C 
ATOM     17  C   UNL     1       0.043  -4.566  -0.599  0.00  0.00    +0.005 C 
ATOM     18  C   UNL     1      -0.853  -4.098   0.548  0.00  0.00    +0.037 C 
ENDROOT
BRANCH   1  26
ATOM     19  C   UNL     1     -12.827   4.955   3.150  0.00  0.00    +0.007 C 
ATOM     20  C   UNL     1     -11.629   4.548   2.290  0.00  0.00    -0.011 C 
ATOM     21  C   UNL     1     -10.392   4.396   3.178  0.00  0.00    +0.022 C 
ATOM     22  C   UNL     1      -9.187   4.022   2.309  0.00  0.00    +0.108 C 
ATOM     23  N   UNL     1      -9.521   2.822   1.529  0.00  0.00    -0.294 N 
ATOM     24  C   UNL     1     -10.738   2.830   0.706  0.00  0.00    +0.108 C 
ATOM     25  C   UNL     1     -11.928   3.216   1.597  0.00  0.00    +0.022 C 
ATOM     26  C   UNL     1      -8.723   1.737   1.564  0.00  0.00    +0.302 C 
ATOM     27  O   UNL     1      -9.072   0.709   1.021  0.00  0.00    -0.265 OA
ENDBRANCH   1  26
BRANCH  13  28
ATOM     28  C   UNL     1      -1.335   0.083  -2.173  0.00  0.00    +0.153 A 
ATOM     29  C   UNL     1      -2.129   0.834  -2.984  0.00  0.00    +0.051 A 
ATOM     30  C   UNL     1      -1.274   1.514  -3.872  0.00  0.00    +0.042 A 
ATOM     31  C   UNL     1      -0.013   1.149  -3.563  0.00  0.00    +0.196 A 
ATOM     32  O   UNL     1      -0.053   0.285  -2.537  0.00  0.00    -0.461 OA
ENDBRANCH  13  28
BRANCH  10  33
ATOM     33  C   UNL     1      -3.150  -3.237   1.999  0.00  0.00    +0.103 C 
ATOM     34  N   UNL     1      -3.535  -3.890   2.846  0.00  0.00    -0.191 NA
ENDBRANCH  10  33
TORSDOF 3
