REMARK  Name = ZINC43765117
REMARK  6 active torsions:
REMARK  status: ('A' for Active; 'I' for Inactive)
REMARK    1  A    between atoms: C_1  and  C_2
REMARK    2  A    between atoms: C_3  and  C_10
REMARK    3  A    between atoms: C_4  and  C_7
REMARK    4  A    between atoms: C_7  and  C_8
REMARK    5  A    between atoms: C_7  and  C_9
REMARK    6  A    between atoms: N_12  and  C_13
REMARK                            x       y       z     vdW  Elec       q    Type
REMARK                         _______ _______ _______ _____ _____    ______ ____
ROOT
ATOM      1  C   UNL     1      -0.005  -0.429  -2.588  0.00  0.00    +0.250 C 
ATOM      2  O   UNL     1       1.043  -0.234  -3.174  0.00  0.00    -0.270 OA
ATOM      3  N   UNL     1      -1.178  -0.245  -3.225  0.00  0.00    -0.306 N 
ATOM      4  H   UNL     1      -2.014  -0.401  -2.758  0.00  0.00    +0.150 HD
ENDROOT
BRANCH   3   5
ATOM      5  C   UNL     1      -1.191   0.190  -4.624  0.00  0.00    +0.036 C 
ATOM      6  C   UNL     1      -0.460  -0.841  -5.486  0.00  0.00    +0.029 C 
ATOM      7  C   UNL     1      -0.474  -0.387  -6.947  0.00  0.00    -0.008 C 
ATOM      8  C   UNL     1      -1.921  -0.255  -7.426  0.00  0.00    +0.007 C 
ATOM      9  C   UNL     1      -2.652   0.776  -6.564  0.00  0.00    -0.008 C 
ATOM     10  C   UNL     1      -2.638   0.321  -5.104  0.00  0.00    +0.029 C 
ATOM     11  C   UNL     1      -1.950   2.130  -6.684  0.00  0.00    +0.007 C 
ATOM     12  C   UNL     1      -0.503   1.999  -6.204  0.00  0.00    -0.008 C 
ATOM     13  C   UNL     1       0.228   0.968  -7.066  0.00  0.00    +0.007 C 
ATOM     14  C   UNL     1      -0.490   1.544  -4.744  0.00  0.00    +0.029 C 
ENDBRANCH   3   5
BRANCH   1  17
ATOM     15  C   UNL     1      -0.018   1.503   0.010  0.00  0.00    +0.070 C 
ATOM     16  C   UNL     1       0.002  -0.004   0.002  0.00  0.00    +0.093 A 
ATOM     17  C   UNL     1       0.009  -0.867  -1.180  0.00  0.00    +0.102 A 
ATOM     18  C   UNL     1       0.029  -2.155  -0.729  0.00  0.00    +0.152 A 
ATOM     19  O   UNL     1       0.035  -2.126   0.606  0.00  0.00    -0.358 OA
ATOM     20  N   UNL     1       0.023  -0.782   1.044  0.00  0.00    -0.083 NA
BRANCH  18  21
ATOM     21  C   UNL     1       0.042  -3.394  -1.587  0.00  0.00    +0.052 C 
ATOM     22  C   UNL     1       1.304  -4.206  -1.291  0.00  0.00    +0.015 C 
ATOM     23  C   UNL     1      -1.194  -4.242  -1.279  0.00  0.00    +0.015 C 
ENDBRANCH  18  21
ENDBRANCH   1  17
TORSDOF 3
