REMARK  Name = ZINC64502400
REMARK  6 active torsions:
REMARK  status: ('A' for Active; 'I' for Inactive)
REMARK    1  A    between atoms: C_1  and  C_2
REMARK    2  A    between atoms: C_8  and  C_11
REMARK    3  A    between atoms: C_11  and  C_12
REMARK    4  A    between atoms: C_12  and  N_13
REMARK    5  A    between atoms: C_14  and  C_16
REMARK    6  A    between atoms: N_21  and  C_23
REMARK                            x       y       z     vdW  Elec       q    Type
REMARK                         _______ _______ _______ _____ _____    ______ ____
ROOT
ATOM      1  C   UNL     1      -2.534  -2.338   7.783  0.00  0.00    +0.089 C 
ATOM      2  C   UNL     1      -1.691  -3.404   8.488  0.00  0.00    +0.015 C 
ATOM      3  C   UNL     1      -1.743  -3.167  10.000  0.00  0.00    +0.016 C 
ATOM      4  C   UNL     1      -3.200  -3.201  10.467  0.00  0.00    +0.086 C 
ATOM      5  N   UNL     1      -3.965  -2.162   9.764  0.00  0.00    -0.279 NA
ATOM      6  C   UNL     1      -3.969  -2.394   8.315  0.00  0.00    +0.099 C 
ENDROOT
BRANCH   5   7
ATOM      7  C   UNL     1      -5.335  -2.072  10.287  0.00  0.00    +0.191 C 
ATOM      8  C   UNL     1      -5.300  -1.724  11.755  0.00  0.00    +0.059 A 
ATOM      9  C   UNL     1      -5.212  -0.529  12.348  0.00  0.00    +0.026 A 
ATOM     10  C   UNL     1      -5.212  -0.749  13.743  0.00  0.00    +0.020 A 
ATOM     11  C   UNL     1      -5.302  -2.083  13.946  0.00  0.00    +0.092 A 
ATOM     12  N   UNL     1      -5.360  -2.691  12.737  0.00  0.00    -0.314 N 
ATOM     13  C   UNL     1      -5.469  -4.049  12.408  0.00  0.00    +0.086 A 
ATOM     14  C   UNL     1      -5.277  -5.048  13.342  0.00  0.00    +0.031 A 
ATOM     15  C   UNL     1      -5.394  -6.369  12.923  0.00  0.00    +0.022 A 
ATOM     16  C   UNL     1      -5.695  -6.631  11.601  0.00  0.00    +0.113 A 
ATOM     17  N   UNL     1      -5.877  -5.655  10.732  0.00  0.00    -0.238 NA
ATOM     18  C   UNL     1      -5.781  -4.383  11.084  0.00  0.00    +0.144 A 
ATOM     19  N   UNL     1      -6.008  -3.374  10.148  0.00  0.00    -0.307 N 
ATOM     20  H   UNL     1      -6.610  -3.529   9.404  0.00  0.00    +0.149 HD
ENDBRANCH   5   7
BRANCH   1  22
ATOM     21  N   UNL     1      -1.377  -2.600   5.613  0.00  0.00    -0.315 N 
ATOM     22  C   UNL     1      -2.537  -2.599   6.299  0.00  0.00    +0.217 C 
ATOM     23  O   UNL     1      -3.583  -2.808   5.722  0.00  0.00    -0.275 OA
ATOM     24  H   UNL     1      -0.540  -2.433   6.075  0.00  0.00    +0.149 HD
BRANCH  21  25
ATOM     25  C   UNL     1      -1.379  -2.854   4.170  0.00  0.00    +0.108 C 
BRANCH  25  26
ATOM     26  C   UNL     1       0.055  -2.799   3.641  0.00  0.00    +0.052 C 
BRANCH  26  34
ATOM     27  C   UNL     1      -0.018   1.503   0.010  0.00  0.00    +0.044 C 
ATOM     28  C   UNL     1       0.002  -0.004   0.002  0.00  0.00    -0.050 A 
ATOM     29  C   UNL     1       0.005  -0.680  -1.226  0.00  0.00    +0.005 A 
ATOM     30  C   UNL     1       0.023  -2.026  -1.317  0.00  0.00    +0.026 A 
ATOM     31  C   UNL     1       0.039  -2.826  -0.141  0.00  0.00    +0.043 A 
ATOM     32  N   UNL     1       0.057  -4.126   0.030  0.00  0.00    -0.380 N 
ATOM     33  C   UNL     1       0.067  -4.408   1.470  0.00  0.00    +0.144 C 
ATOM     34  C   UNL     1       0.052  -3.060   2.156  0.00  0.00    -0.040 C 
ATOM     35  C   UNL     1       0.036  -2.137   1.168  0.00  0.00    -0.001 A 
ATOM     36  C   UNL     1       0.022  -0.669   1.180  0.00  0.00    +0.013 A 
ATOM     37  H   UNL     1       0.062  -4.790  -0.677  0.00  0.00    +0.160 HD
ENDBRANCH  26  34
ENDBRANCH  25  26
ENDBRANCH  21  25
ENDBRANCH   1  22
TORSDOF 5
