REMARK  Name = ZINC08837590
REMARK  5 active torsions:
REMARK  status: ('A' for Active; 'I' for Inactive)
REMARK    1  A    between atoms: C_6  and  C_7
REMARK    2  A    between atoms: C_7  and  C_9
REMARK    3  A    between atoms: C_7  and  C_20
REMARK    4  A    between atoms: C_10  and  O_19
REMARK    5  A    between atoms: C_26  and  O_27
REMARK                            x       y       z     vdW  Elec       q    Type
REMARK                         _______ _______ _______ _____ _____    ______ ____
ROOT
ATOM      1  C   UNL     1       1.318  -2.166  -0.022  0.00  0.00    +0.100 C 
ENDROOT
BRANCH   1   2
ATOM      2  C   UNL     1       0.415  -2.497  -1.182  0.00  0.00    +0.090 A 
ATOM      3  C   UNL     1      -0.910  -2.833  -0.963  0.00  0.00    +0.224 A 
ATOM      4  N   UNL     1      -1.681  -3.115  -2.016  0.00  0.00    -0.189 NA
ATOM      5  C   UNL     1      -1.209  -3.090  -3.243  0.00  0.00    +0.175 A 
ATOM      6  N   UNL     1       0.083  -2.774  -3.539  0.00  0.00    -0.287 N 
ATOM      7  C   UNL     1       0.905  -2.473  -2.484  0.00  0.00    +0.262 A 
ATOM      8  O   UNL     1       2.073  -2.182  -2.688  0.00  0.00    -0.267 OA
ATOM      9  C   UNL     1       0.496  -2.777  -4.941  0.00  0.00    +0.138 C 
ATOM     10  C   UNL     1      -0.618  -3.149  -5.931  0.00  0.00    +0.099 C 
ATOM     11  S   UNL     1      -2.023  -3.427  -4.790  0.00  0.00    -0.086 S 
BRANCH   3  12
ATOM     12  O   UNL     1      -1.415  -2.870   0.292  0.00  0.00    -0.492 OA
ATOM     13  H   UNL     1      -2.349  -3.116   0.333  0.00  0.00    +0.294 HD
ENDBRANCH   3  12
ENDBRANCH   1   2
BRANCH   1  14
ATOM     14  C   UNL     1       1.498  -0.672   0.065  0.00  0.00    +0.090 A 
ATOM     15  C   UNL     1       0.374   0.181   0.064  0.00  0.00    +0.282 A 
ATOM     16  O   UNL     1      -0.757  -0.276  -0.007  0.00  0.00    -0.265 OA
ATOM     17  N   UNL     1       0.576   1.505   0.143  0.00  0.00    -0.185 NA
ATOM     18  C   UNL     1       1.788   2.007   0.221  0.00  0.00    +0.175 A 
ATOM     19  N   UNL     1       2.913   1.239   0.227  0.00  0.00    -0.290 N 
ATOM     20  C   UNL     1       2.739  -0.138   0.145  0.00  0.00    +0.204 A 
ATOM     21  C   UNL     1       4.210   1.909   0.318  0.00  0.00    +0.138 C 
ATOM     22  C   UNL     1       4.131   3.441   0.397  0.00  0.00    +0.099 C 
ATOM     23  S   UNL     1       2.319   3.702   0.335  0.00  0.00    -0.086 S 
BRANCH  20  24
ATOM     24  O   UNL     1       3.819  -0.951   0.147  0.00  0.00    -0.493 OA
ATOM     25  H   UNL     1       4.170  -1.140  -0.734  0.00  0.00    +0.294 HD
ENDBRANCH  20  24
ENDBRANCH   1  14
BRANCH   1  31
ATOM     26  C   UNL     1       0.141  -1.783   2.154  0.00  0.00    +0.005 A 
ATOM     27  C   UNL     1      -0.429  -2.248   3.324  0.00  0.00    +0.015 A 
ATOM     28  C   UNL     1      -0.431  -3.603   3.601  0.00  0.00    +0.018 A 
ATOM     29  C   UNL     1       0.134  -4.492   2.705  0.00  0.00    +0.015 A 
ATOM     30  C   UNL     1       0.699  -4.027   1.533  0.00  0.00    +0.005 A 
ATOM     31  C   UNL     1       0.701  -2.673   1.256  0.00  0.00    -0.035 A 
ATOM     32 BR   UNL     1      -1.206  -4.238   5.205  0.00  0.00    -0.050 Br
ENDBRANCH   1  31
TORSDOF 5
