REMARK  Name = ZINC35508926
REMARK  3 active torsions:
REMARK  status: ('A' for Active; 'I' for Inactive)
REMARK    1  A    between atoms: N_10  and  C_13
REMARK    2  A    between atoms: C_20  and  C_22
REMARK    3  A    between atoms: C_22  and  C_23
REMARK                            x       y       z     vdW  Elec       q    Type
REMARK                         _______ _______ _______ _____ _____    ______ ____
ROOT
ATOM      1  C   UNL     1       1.311  -5.897   1.242  0.00  0.00    +0.132 A 
ATOM      2  C   UNL     1       0.133  -6.628   1.238  0.00  0.00    +0.014 A 
ATOM      3  C   UNL     1       0.201  -8.013   1.229  0.00  0.00    +0.052 A 
ATOM      4  N   UNL     1       1.379  -8.616   1.231  0.00  0.00    -0.215 NA
ATOM      5  C   UNL     1       2.522  -7.926   1.234  0.00  0.00    +0.255 A 
ATOM      6  N   UNL     1       2.502  -6.559   1.233  0.00  0.00    -0.182 N 
ATOM      7  N   UNL     1       3.839  -6.142   1.226  0.00  0.00    -0.147 NA
ATOM      8  C   UNL     1       4.579  -7.224   1.220  0.00  0.00    +0.158 A 
ATOM      9  N   UNL     1       3.798  -8.298   1.233  0.00  0.00    -0.194 NA
ATOM     10  C   UNL     1      -1.032  -8.878   1.208  0.00  0.00    +0.056 C 
ATOM     11  C   UNL     1      -2.257  -8.075   1.640  0.00  0.00    +0.006 C 
ATOM     12  C   UNL     1      -2.315  -6.789   0.808  0.00  0.00    +0.005 C 
ATOM     13  C   UNL     1      -1.171  -5.878   1.248  0.00  0.00    +0.040 C 
ENDROOT
BRANCH   1  23
ATOM     14  C   UNL     1       1.597   1.401   2.815  0.00  0.00    +0.005 A 
ATOM     15  C   UNL     1       2.216   2.072   1.769  0.00  0.00    +0.018 A 
ATOM     16  C   UNL     1       2.835   1.346   0.771  0.00  0.00    +0.084 A 
ATOM     17  N   UNL     1       2.844   0.027   0.802  0.00  0.00    -0.350 N 
ATOM     18  C   UNL     1       2.265  -0.649   1.782  0.00  0.00    +0.099 A 
ATOM     19  C   UNL     1       1.623   0.018   2.820  0.00  0.00    +0.042 A 
ATOM     20  N   UNL     1       2.299  -2.039   1.773  0.00  0.00    -0.314 N 
ATOM     21  C   UNL     1       1.778  -2.807   2.914  0.00  0.00    +0.125 C 
ATOM     22  C   UNL     1       0.722  -3.792   2.400  0.00  0.00    +0.125 C 
ATOM     23  N   UNL     1       1.277  -4.520   1.250  0.00  0.00    -0.312 N 
ATOM     24  C   UNL     1       1.798  -3.752   0.110  0.00  0.00    +0.125 C 
ATOM     25  C   UNL     1       2.849  -2.767   0.622  0.00  0.00    +0.125 C 
ATOM     26  H   UNL     1       3.286  -0.460   0.088  0.00  0.00    +0.166 HD
ENDBRANCH   1  23
BRANCH   8  27
ATOM     27  C   UNL     1       6.085  -7.246   1.212  0.00  0.00    +0.113 C 
BRANCH  27  28
ATOM     28  C   UNL     1       6.596  -7.256   2.630  0.00  0.00    -0.040 A 
ATOM     29  C   UNL     1       6.841  -6.063   3.284  0.00  0.00    +0.005 A 
ATOM     30  C   UNL     1       7.309  -6.071   4.584  0.00  0.00    +0.020 A 
ATOM     31  C   UNL     1       7.532  -7.273   5.232  0.00  0.00    +0.041 A 
ATOM     32  C   UNL     1       7.285  -8.467   4.577  0.00  0.00    +0.020 A 
ATOM     33  C   UNL     1       6.812  -8.457   3.278  0.00  0.00    +0.005 A 
ATOM     34 CL   UNL     1       8.120  -7.284   6.865  0.00  0.00    -0.084 Cl
ENDBRANCH  27  28
ENDBRANCH   8  27
TORSDOF 3
