REMARK  Name = ZINC13641342
REMARK  6 active torsions:
REMARK  status: ('A' for Active; 'I' for Inactive)
REMARK    1  A    between atoms: C_1  and  C_2
REMARK    2  A    between atoms: C_4  and  C_20
REMARK    3  A    between atoms: C_6  and  C_11
REMARK    4  A    between atoms: C_25  and  C_37
REMARK    5  A    between atoms: C_28  and  C_34
REMARK    6  A    between atoms: C_31  and  C_33
REMARK                            x       y       z     vdW  Elec       q    Type
REMARK                         _______ _______ _______ _____ _____    ______ ____
ROOT
ATOM      1  C   UNL     1       1.216   2.373   3.135  0.00  0.00    +0.066 C 
ATOM      2  C   UNL     1       0.449   2.519   1.846  0.00  0.00    +0.043 A 
ATOM      3  C   UNL     1      -0.844   2.027   1.770  0.00  0.00    +0.037 A 
ATOM      4  C   UNL     1      -1.551   2.157   0.574  0.00  0.00    +0.053 A 
ATOM      5  C   UNL     1      -0.910   2.798  -0.502  0.00  0.00    +0.081 A 
ATOM      6  C   UNL     1      -1.306   3.124  -1.878  0.00  0.00    +0.124 A 
ATOM      7  N   UNL     1      -0.291   3.728  -2.437  0.00  0.00    -0.075 NA
ATOM      8  O   UNL     1       0.770   3.828  -1.510  0.00  0.00    -0.334 OA
ATOM      9  C   UNL     1       0.402   3.268  -0.339  0.00  0.00    +0.260 A 
ATOM     10  N   UNL     1       1.024   3.110   0.821  0.00  0.00    -0.215 NA
ENDROOT
BRANCH   4  11
ATOM     11  C   UNL     1      -2.932   1.641   0.443  0.00  0.00    +0.253 C 
ATOM     12  O   UNL     1      -3.837   2.396   0.144  0.00  0.00    -0.270 OA
ATOM     13  N   UNL     1      -3.187   0.335   0.656  0.00  0.00    -0.249 N 
ATOM     14  C   UNL     1      -2.164  -0.593   0.875  0.00  0.00    +0.127 A 
ATOM     15  C   UNL     1      -0.831  -0.462   0.712  0.00  0.00    +0.068 A 
ATOM     16  C   UNL     1      -0.237  -1.678   1.074  0.00  0.00    +0.062 A 
ATOM     17  N   UNL     1      -1.181  -2.507   1.449  0.00  0.00    -0.174 NA
ATOM     18  N   UNL     1      -2.408  -1.853   1.341  0.00  0.00    -0.241 N 
ATOM     19  C   UNL     1      -3.746  -2.363   1.647  0.00  0.00    +0.177 C 
ATOM     20  C   UNL     1      -4.697  -1.177   1.841  0.00  0.00    +0.055 C 
ATOM     21  C   UNL     1      -4.562  -0.202   0.665  0.00  0.00    +0.082 C 
ATOM     22  C   UNL     1      -5.561   0.945   0.831  0.00  0.00    +0.028 C 
ATOM     23  C   UNL     1       1.239  -1.982   1.040  0.00  0.00    +0.067 C 
BRANCH  19  24
ATOM     24  C   UNL     1      -3.697  -3.195   2.931  0.00  0.00    +0.365 C 
ATOM     25  F   UNL     1      -2.828  -4.277   2.752  0.00  0.00    -0.207 F 
ATOM     26  F   UNL     1      -3.237  -2.398   3.985  0.00  0.00    -0.207 F 
ENDBRANCH  19  24
ENDBRANCH   4  11
BRANCH   6  27
ATOM     27  C   UNL     1      -2.611   2.824  -2.514  0.00  0.00    +0.008 A 
ATOM     28  C   UNL     1      -3.214   1.581  -2.319  0.00  0.00    +0.014 A 
ATOM     29  C   UNL     1      -4.431   1.306  -2.905  0.00  0.00    +0.050 A 
ATOM     30  C   UNL     1      -5.054   2.257  -3.700  0.00  0.00    +0.166 A 
ATOM     31  C   UNL     1      -4.453   3.498  -3.904  0.00  0.00    +0.167 A 
ATOM     32  C   UNL     1      -3.236   3.781  -3.312  0.00  0.00    +0.059 A 
ATOM     33  O   UNL     1      -5.259   4.245  -4.715  0.00  0.00    -0.453 OA
ATOM     34  C   UNL     1      -6.155   3.305  -5.336  0.00  0.00    +0.466 C 
ATOM     35  O   UNL     1      -6.235   2.228  -4.384  0.00  0.00    -0.453 OA
ENDBRANCH   6  27
TORSDOF 3
