REMARK  Name = ZINC67295110
REMARK  2 active torsions:
REMARK  status: ('A' for Active; 'I' for Inactive)
REMARK    1  A    between atoms: C_8  and  C_10
REMARK    2  A    between atoms: N_20  and  C_21
REMARK                            x       y       z     vdW  Elec       q    Type
REMARK                         _______ _______ _______ _____ _____    ______ ____
ROOT
ATOM      1  C   UNL     1       0.124  -4.362  -0.006  0.00  0.00    +0.098 A 
ATOM      2  C   UNL     1      -1.006  -5.104  -0.322  0.00  0.00    +0.030 A 
ATOM      3  C   UNL     1      -0.819  -6.530  -0.598  0.00  0.00    +0.019 A 
ATOM      4  C   UNL     1      -1.844  -7.288  -1.179  0.00  0.00    +0.026 A 
ATOM      5  C   UNL     1      -1.641  -8.627  -1.430  0.00  0.00    +0.019 A 
ATOM      6  C   UNL     1      -0.430  -9.226  -1.111  0.00  0.00    +0.019 A 
ATOM      7  C   UNL     1       0.588  -8.492  -0.537  0.00  0.00    +0.048 A 
ATOM      8  C   UNL     1       0.406  -7.142  -0.273  0.00  0.00    +0.137 A 
ATOM      9  O   UNL     1       1.395  -6.411   0.297  0.00  0.00    -0.439 OA
ATOM     10  C   UNL     1       1.414  -5.080   0.019  0.00  0.00    +0.212 A 
ATOM     11  N   UNL     1       2.545  -4.450  -0.215  0.00  0.00    -0.323 N 
ATOM     12 BR   UNL     1      -3.021  -9.655  -2.214  0.00  0.00    -0.050 Br
ATOM     13  H   UNL     1       2.533  -3.530  -0.522  0.00  0.00    +0.169 HD
ENDROOT
BRANCH   1  21
ATOM     14  C   UNL     1      -0.085   1.199   0.844  0.00  0.00    +0.005 A 
ATOM     15  C   UNL     1       0.899   1.742   1.659  0.00  0.00    +0.020 A 
ATOM     16  C   UNL     1       1.917   0.932   2.123  0.00  0.00    +0.113 A 
ATOM     17  N   UNL     1       1.963  -0.346   1.801  0.00  0.00    -0.240 NA
ATOM     18  C   UNL     1       1.044  -0.901   1.026  0.00  0.00    +0.125 A 
ATOM     19  C   UNL     1      -0.009  -0.145   0.524  0.00  0.00    +0.044 A 
ATOM     20  N   UNL     1       1.133  -2.256   0.712  0.00  0.00    -0.266 N 
ATOM     21  C   UNL     1       0.041  -2.921   0.286  0.00  0.00    +0.254 C 
ATOM     22  O   UNL     1      -1.014  -2.332   0.144  0.00  0.00    -0.270 OA
ATOM     23  H   UNL     1       1.980  -2.719   0.799  0.00  0.00    +0.157 HD
ENDBRANCH   1  21
BRANCH  11  24
ATOM     24  C   UNL     1       3.738  -5.093  -0.025  0.00  0.00    +0.079 A 
ATOM     25  C   UNL     1       3.988  -5.769   1.171  0.00  0.00    +0.029 A 
ATOM     26  C   UNL     1       5.193  -6.415   1.357  0.00  0.00    +0.004 A 
ATOM     27  C   UNL     1       6.154  -6.394   0.362  0.00  0.00    +0.023 A 
ATOM     28  C   UNL     1       5.915  -5.726  -0.827  0.00  0.00    +0.078 A 
ATOM     29  C   UNL     1       4.710  -5.080  -1.030  0.00  0.00    +0.165 A 
ATOM     30  F   UNL     1       4.475  -4.433  -2.192  0.00  0.00    -0.202 F 
ATOM     31 CL   UNL     1       7.128  -5.706  -2.069  0.00  0.00    -0.081 Cl
ENDBRANCH  11  24
TORSDOF 2
