REMARK  Name = ZINC10336764
REMARK  2 active torsions:
REMARK  status: ('A' for Active; 'I' for Inactive)
REMARK    1  A    between atoms: C_5  and  C_7
REMARK    2  A    between atoms: C_18  and  C_20
REMARK                            x       y       z     vdW  Elec       q    Type
REMARK                         _______ _______ _______ _____ _____    ______ ____
ROOT
ATOM      1  C   UNL     1       1.327  -2.124  -0.093  0.00  0.00    +0.163 C 
ATOM      2  C   UNL     1       1.594  -2.621   1.311  0.00  0.00    +0.027 C 
ATOM      3  C   UNL     1       0.668  -3.412   1.892  0.00  0.00    +0.083 C 
ATOM      4  C   UNL     1       0.948  -3.900   3.266  0.00  0.00    +0.044 A 
ATOM      5  C   UNL     1      -0.053  -4.440   4.061  0.00  0.00    +0.033 A 
ATOM      6  C   UNL     1       0.251  -4.881   5.336  0.00  0.00    +0.042 A 
ATOM      7  C   UNL     1       1.546  -4.783   5.816  0.00  0.00    +0.023 A 
ATOM      8  C   UNL     1       2.549  -4.247   5.029  0.00  0.00    +0.048 A 
ATOM      9  C   UNL     1       2.258  -3.803   3.751  0.00  0.00    +0.131 A 
ATOM     10  O   UNL     1       3.225  -3.280   2.954  0.00  0.00    -0.479 OA
ATOM     11  C   UNL     1       2.845  -2.242   2.047  0.00  0.00    +0.234 C 
ATOM     12 CL   UNL     1      -0.994  -5.559   6.338  0.00  0.00    -0.084 Cl
ATOM     13  N   UNL     1      -0.477  -3.753   1.250  0.00  0.00    -0.213 NA
ATOM     14  C   UNL     1      -0.784  -3.366   0.039  0.00  0.00    +0.232 C 
ATOM     15  N   UNL     1       0.060  -2.556  -0.691  0.00  0.00    -0.193 N 
ATOM     16  N   UNL     1      -0.579  -2.349  -1.914  0.00  0.00    -0.165 N 
ATOM     17  N   UNL     1      -1.700  -2.986  -1.879  0.00  0.00    -0.086 NA
ATOM     18  N   UNL     1      -1.857  -3.592  -0.767  0.00  0.00    -0.231 N 
ATOM     19  H   UNL     1      -0.242  -1.821  -2.655  0.00  0.00    +0.195 HD
ATOM     20  H   UNL     1      -2.629  -4.130  -0.530  0.00  0.00    +0.193 HD
ENDROOT
BRANCH   1  25
ATOM     21  C   UNL     1       0.208   1.468   0.217  0.00  0.00    +0.001 A 
ATOM     22  C   UNL     1       1.386   2.148  -0.032  0.00  0.00    +0.003 A 
ATOM     23  C   UNL     1       2.546   1.447  -0.300  0.00  0.00    +0.039 A 
ATOM     24  C   UNL     1       2.528   0.062  -0.320  0.00  0.00    +0.129 A 
ATOM     25  C   UNL     1       1.348  -0.618  -0.071  0.00  0.00    +0.014 A 
ATOM     26  C   UNL     1       0.189   0.086   0.197  0.00  0.00    +0.008 A 
ATOM     27  F   UNL     1       3.662  -0.625  -0.583  0.00  0.00    -0.205 F 
ENDBRANCH   1  25
BRANCH  11  28
ATOM     28  C   UNL     1       2.604  -0.970   2.818  0.00  0.00    -0.000 A 
ATOM     29  C   UNL     1       1.744  -0.951   3.906  0.00  0.00    +0.027 A 
ATOM     30  C   UNL     1       1.548   0.234   4.589  0.00  0.00    +0.111 A 
ATOM     31  N   UNL     1       2.166   1.337   4.216  0.00  0.00    -0.263 NA
ATOM     32  C   UNL     1       2.991   1.357   3.188  0.00  0.00    +0.111 A 
ATOM     33  C   UNL     1       3.241   0.208   2.461  0.00  0.00    +0.027 A 
ENDBRANCH  11  28
TORSDOF 2
