REMARK  Name = ZINC03422267
REMARK  3 active torsions:
REMARK  status: ('A' for Active; 'I' for Inactive)
REMARK    1  A    between atoms: C_1  and  C_2
REMARK    2  A    between atoms: C_3  and  C_25
REMARK    3  A    between atoms: C_8  and  C_10
REMARK                            x       y       z     vdW  Elec       q    Type
REMARK                         _______ _______ _______ _____ _____    ______ ____
ROOT
ATOM      1  C   UNL     1     -14.184   4.073   3.317  0.00  0.00    +0.054 C 
ATOM      2  C   UNL     1     -12.976   3.718   2.489  0.00  0.00    +0.016 A 
ATOM      3  C   UNL     1     -12.890   3.400   1.162  0.00  0.00    +0.083 A 
ATOM      4  N   UNL     1     -11.708   3.118   0.636  0.00  0.00    -0.224 NA
ATOM      5  C   UNL     1     -10.610   3.138   1.369  0.00  0.00    +0.165 A 
ATOM      6  S   UNL     1     -11.260   3.588   2.972  0.00  0.00    -0.057 S 
ATOM      7  N   UNL     1      -9.299   2.874   0.995  0.00  0.00    -0.261 N 
ATOM      8  C   UNL     1      -8.310   2.950   1.907  0.00  0.00    +0.250 C 
ATOM      9  O   UNL     1      -8.565   3.250   3.058  0.00  0.00    -0.270 OA
ATOM     10  H   UNL     1      -9.095   2.635   0.077  0.00  0.00    +0.157 HD
ENDROOT
BRANCH   8  11
ATOM     11  C   UNL     1      -6.917   2.669   1.510  0.00  0.00    +0.038 A 
ATOM     12  C   UNL     1      -6.628   2.325   0.188  0.00  0.00    +0.015 A 
ATOM     13  C   UNL     1      -5.351   2.050  -0.251  0.00  0.00    +0.025 A 
ATOM     14  C   UNL     1      -4.300   2.124   0.688  0.00  0.00    +0.050 A 
ATOM     15  C   UNL     1      -4.622   2.474   2.014  0.00  0.00    +0.037 A 
ATOM     16  C   UNL     1      -5.886   2.749   2.465  0.00  0.00    +0.030 A 
ATOM     17  S   UNL     1      -3.059   2.451   2.836  0.00  0.00    -0.051 S 
ATOM     18  C   UNL     1      -2.060   1.996   1.433  0.00  0.00    +0.186 C 
ATOM     19  N   UNL     1      -0.772   1.831   1.432  0.00  0.00    -0.110 NA
ATOM     20  S   UNL     1      -0.017   1.417   0.010  0.00  0.00    +0.073 S 
ATOM     21  O   UNL     1       0.002  -0.004   0.002  0.00  0.00    -0.151 OA
ATOM     22  O   UNL     1       1.192   2.163   0.002  0.00  0.00    -0.151 OA
ATOM     23  C   UNL     1      -1.156   2.042  -1.263  0.00  0.00    +0.212 C 
ATOM     24  C   UNL     1      -2.555   1.493  -0.977  0.00  0.00    +0.137 C 
ATOM     25  N   UNL     1      -2.966   1.875   0.398  0.00  0.00    -0.276 N 
ENDBRANCH   8  11
BRANCH   3  26
ATOM     26  C   UNL     1     -14.111   3.371   0.319  0.00  0.00    +0.004 A 
ATOM     27  C   UNL     1     -14.048   3.771  -1.015  0.00  0.00    +0.013 A 
ATOM     28  C   UNL     1     -15.185   3.743  -1.796  0.00  0.00    +0.042 A 
ATOM     29  C   UNL     1     -16.388   3.318  -1.258  0.00  0.00    +0.158 A 
ATOM     30  C   UNL     1     -16.456   2.919   0.069  0.00  0.00    +0.159 A 
ATOM     31  C   UNL     1     -15.321   2.938   0.857  0.00  0.00    +0.051 A 
ATOM     32  F   UNL     1     -17.632   2.505   0.590  0.00  0.00    -0.202 F 
ATOM     33  F   UNL     1     -17.498   3.292  -2.027  0.00  0.00    -0.202 F 
ENDBRANCH   3  26
TORSDOF 2
