REMARK  Name = ZINC44855626
REMARK  8 active torsions:
REMARK  status: ('A' for Active; 'I' for Inactive)
REMARK    1  A    between atoms: C_1  and  C_2
REMARK    2  A    between atoms: C_2  and  C_34
REMARK    3  A    between atoms: C_4  and  N_15
REMARK    4  A    between atoms: C_9  and  O_13
REMARK    5  A    between atoms: O_13  and  C_14
REMARK    6  A    between atoms: C_16  and  C_18
REMARK    7  A    between atoms: N_23  and  C_25
REMARK    8  A    between atoms: C_25  and  C_26
REMARK                            x       y       z     vdW  Elec       q    Type
REMARK                         _______ _______ _______ _____ _____    ______ ____
ROOT
ATOM      1  N   UNL     1       1.571  -2.553  -2.291  0.00  0.00    -0.308 N 
ATOM      2  C   UNL     1       1.336  -3.750  -2.864  0.00  0.00    +0.215 C 
ATOM      3  O   UNL     1       0.360  -4.395  -2.543  0.00  0.00    -0.276 OA
ATOM      4  H   UNL     1       2.352  -2.038  -2.548  0.00  0.00    +0.149 HD
ENDROOT
BRANCH   1   8
ATOM      5  C   UNL     1      -0.019   1.526   0.010  0.00  0.00    +0.055 C 
ATOM      6  C   UNL     1       0.002  -0.004   0.002  0.00  0.00    +0.107 C 
ATOM      7  C   UNL     1       0.743  -0.504  -1.245  0.00  0.00    +0.074 C 
ATOM      8  C   UNL     1       0.649  -2.031  -1.280  0.00  0.00    +0.110 C 
ATOM      9  C   UNL     1       1.015  -2.593   0.070  0.00  0.00    +0.015 A 
ATOM     10  C   UNL     1       1.360  -3.932   0.163  0.00  0.00    +0.012 A 
ATOM     11  C   UNL     1       1.698  -4.484   1.381  0.00  0.00    +0.046 A 
ATOM     12  C   UNL     1       1.692  -3.695   2.524  0.00  0.00    +0.124 A 
ATOM     13  C   UNL     1       1.349  -2.357   2.435  0.00  0.00    +0.091 A 
ATOM     14  C   UNL     1       1.012  -1.802   1.206  0.00  0.00    +0.130 A 
ATOM     15  O   UNL     1       0.692  -0.482   1.157  0.00  0.00    -0.486 OA
ATOM     16  C   UNL     1      -1.431  -0.539  -0.000  0.00  0.00    +0.055 C 
BRANCH  12  17
ATOM     17  O   UNL     1       2.022  -4.236   3.726  0.00  0.00    -0.495 OA
ATOM     18  C   UNL     1       2.365  -5.623   3.742  0.00  0.00    +0.277 C 
ENDBRANCH  12  17
ENDBRANCH   1   8
BRANCH   2  19
ATOM     19  C   UNL     1       2.285  -4.287  -3.904  0.00  0.00    +0.058 C 
ATOM     20  C   UNL     1       2.347  -3.318  -5.089  0.00  0.00    +0.009 C 
ATOM     21  C   UNL     1       3.253  -3.910  -6.173  0.00  0.00    -0.018 C 
ATOM     22  C   UNL     1       2.721  -5.287  -6.577  0.00  0.00    -0.078 C 
ATOM     23  N   UNL     1       2.711  -6.175  -5.408  0.00  0.00    +0.383 N 
ATOM     24  C   UNL     1       1.790  -5.651  -4.392  0.00  0.00    -0.066 C 
ATOM     25  H   UNL     1       3.641  -6.229  -5.020  0.00  0.00    -0.081 HD
BRANCH  23  26
ATOM     26  C   UNL     1       2.274  -7.516  -5.817  0.00  0.00    -0.042 C 
BRANCH  26  27
ATOM     27  C   UNL     1       3.290  -8.109  -6.760  0.00  0.00    -0.046 A 
ATOM     28  C   UNL     1       3.066  -8.082  -8.123  0.00  0.00    +0.004 A 
ATOM     29  C   UNL     1       3.996  -8.625  -8.988  0.00  0.00    +0.020 A 
ATOM     30  C   UNL     1       5.153  -9.197  -8.490  0.00  0.00    +0.042 A 
ATOM     31  C   UNL     1       5.378  -9.225  -7.125  0.00  0.00    +0.040 A 
ATOM     32  C   UNL     1       4.448  -8.676  -6.260  0.00  0.00    +0.044 A 
ATOM     33 CL   UNL     1       4.733  -8.705  -4.548  0.00  0.00    -0.083 Cl
ATOM     34 CL   UNL     1       6.322  -9.881  -9.576  0.00  0.00    -0.083 Cl
ENDBRANCH  26  27
ENDBRANCH  23  26
ENDBRANCH   2  19
TORSDOF 5
