REMARK  Name = ZINC62239275
REMARK  5 active torsions:
REMARK  status: ('A' for Active; 'I' for Inactive)
REMARK    1  A    between atoms: C_1  and  C_2
REMARK    2  A    between atoms: C_2  and  C_3
REMARK    3  A    between atoms: C_2  and  C_4
REMARK    4  A    between atoms: C_5  and  C_16
REMARK    5  A    between atoms: N_8  and  C_9
REMARK                            x       y       z     vdW  Elec       q    Type
REMARK                         _______ _______ _______ _____ _____    ______ ____
ROOT
ATOM      1  C   UNL     1      -1.412  -0.526   0.013  0.00  0.00    +0.085 A 
ATOM      2  C   UNL     1      -2.359  -0.294   0.970  0.00  0.00    +0.185 A 
ATOM      3  N   UNL     1      -3.487  -0.931   0.616  0.00  0.00    -0.118 NA
ATOM      4  N   UNL     1      -3.304  -1.546  -0.501  0.00  0.00    -0.059 NA
ATOM      5  N   UNL     1      -1.990  -1.309  -0.926  0.00  0.00    -0.215 N 
ENDROOT
BRANCH   5   6
ATOM      6  C   UNL     1      -1.389  -1.793  -2.097  0.00  0.00    +0.068 A 
ATOM      7  C   UNL     1      -0.459  -1.015  -2.774  0.00  0.00    +0.028 A 
ATOM      8  C   UNL     1       0.131  -1.493  -3.928  0.00  0.00    +0.003 A 
ATOM      9  C   UNL     1      -0.203  -2.746  -4.409  0.00  0.00    +0.015 A 
ATOM     10  C   UNL     1      -1.129  -3.524  -3.736  0.00  0.00    +0.020 A 
ATOM     11  C   UNL     1      -1.719  -3.052  -2.579  0.00  0.00    +0.043 A 
ATOM     12 BR   UNL     1      -1.583  -5.236  -4.398  0.00  0.00    -0.050 Br
ENDBRANCH   5   6
BRANCH   1  14
ATOM     13  C   UNL     1      -0.019   1.526   0.010  0.00  0.00    +0.014 C 
ATOM     14  C   UNL     1       0.002  -0.004   0.002  0.00  0.00    +0.035 C 
ATOM     15  C   UNL     1       0.742  -0.511   1.242  0.00  0.00    +0.014 C 
ENDBRANCH   1  14
BRANCH   2  16
ATOM     16  C   UNL     1      -2.179   0.495   2.151  0.00  0.00    +0.123 C 
ATOM     17  N   UNL     1      -2.036   1.121   3.088  0.00  0.00    -0.189 NA
ENDBRANCH   2  16
TORSDOF 3
