REMARK  Name = ZINC43042498
REMARK  4 active torsions:
REMARK  status: ('A' for Active; 'I' for Inactive)
REMARK    1  A    between atoms: C_1  and  C_2
REMARK    2  A    between atoms: C_7  and  N_12
REMARK    3  A    between atoms: C_9  and  C_11
REMARK    4  A    between atoms: C_18  and  C_21
REMARK                            x       y       z     vdW  Elec       q    Type
REMARK                         _______ _______ _______ _____ _____    ______ ____
ROOT
ATOM      1  N   UNL     1       1.471  -2.526   2.421  0.00  0.00    -0.296 N 
ATOM      2  C   UNL     1       2.056  -3.740   2.407  0.00  0.00    +0.302 C 
ATOM      3  O   UNL     1       1.919  -4.469   1.444  0.00  0.00    -0.253 OA
ATOM      4  N   UNL     1       2.793  -4.145   3.460  0.00  0.00    -0.286 N 
ATOM      5  C   UNL     1       2.873  -3.327   4.677  0.00  0.00    +0.110 C 
ATOM      6  C   UNL     1       4.348  -3.080   5.010  0.00  0.00    +0.032 C 
ATOM      7  C   UNL     1       5.076  -4.423   5.106  0.00  0.00    +0.078 C 
ATOM      8  C   UNL     1       4.998  -5.145   3.759  0.00  0.00    +0.032 C 
ATOM      9  C   UNL     1       3.526  -5.418   3.415  0.00  0.00    +0.110 C 
ATOM     10  H   UNL     1       1.519  -1.974   3.217  0.00  0.00    +0.151 HD
ENDROOT
BRANCH   1  16
ATOM     11  C   UNL     1      -0.015   1.528   0.013  0.00  0.00    +0.008 C 
ATOM     12  C   UNL     1       0.005  -0.001   0.004  0.00  0.00    -0.009 C 
ATOM     13  C   UNL     1      -1.431  -0.530   0.013  0.00  0.00    +0.003 C 
ATOM     14  C   UNL     1      -1.411  -2.060   0.004  0.00  0.00    +0.002 C 
ATOM     15  C   UNL     1      -0.672  -2.568   1.243  0.00  0.00    +0.022 C 
ATOM     16  C   UNL     1       0.764  -2.039   1.234  0.00  0.00    +0.078 C 
ATOM     17  C   UNL     1       0.744  -0.509   1.244  0.00  0.00    +0.009 C 
ATOM     18  C   UNL     1       0.027  -0.017   2.502  0.00  0.00    +0.009 C 
ENDBRANCH   1  16
BRANCH   7  19
ATOM     19  C   UNL     1       6.520  -4.187   5.467  0.00  0.00    +0.219 C 
ATOM     20  O   UNL     1       7.330  -3.943   4.597  0.00  0.00    -0.275 OA
ATOM     21  N   UNL     1       6.912  -4.246   6.755  0.00  0.00    -0.301 N 
ATOM     22  C   UNL     1       6.024  -4.434   7.912  0.00  0.00    +0.108 C 
ATOM     23  C   UNL     1       6.910  -4.412   9.176  0.00  0.00    +0.020 C 
ATOM     24  C   UNL     1       8.173  -3.647   8.702  0.00  0.00    +0.020 C 
ATOM     25  C   UNL     1       8.301  -4.140   7.236  0.00  0.00    +0.108 C 
ENDBRANCH   7  19
TORSDOF 2
