REMARK  Name = ZINC29433757
REMARK  8 active torsions:
REMARK  status: ('A' for Active; 'I' for Inactive)
REMARK    1  A    between atoms: C_3  and  S_9
REMARK    2  A    between atoms: S_9  and  N_12
REMARK    3  A    between atoms: N_12  and  C_13
REMARK    4  A    between atoms: C_15  and  N_23
REMARK    5  A    between atoms: C_18  and  N_19
REMARK    6  A    between atoms: N_19  and  C_20
REMARK    7  A    between atoms: C_20  and  C_21
REMARK    8  A    between atoms: C_21  and  O_22
REMARK                            x       y       z     vdW  Elec       q    Type
REMARK                         _______ _______ _______ _____ _____    ______ ____
ROOT
ATOM      1  C   UNL     1      -1.849   1.359   1.928  0.00  0.00    +0.097 A 
ATOM      2  C   UNL     1      -2.019  -0.015   1.847  0.00  0.00    +0.061 A 
ATOM      3  C   UNL     1      -3.171  -0.600   2.338  0.00  0.00    +0.128 A 
ATOM      4  C   UNL     1      -4.157   0.182   2.913  0.00  0.00    +0.034 A 
ATOM      5  C   UNL     1      -3.996   1.552   2.998  0.00  0.00    +0.027 A 
ATOM      6  C   UNL     1      -2.841   2.147   2.512  0.00  0.00    +0.052 A 
ENDROOT
BRANCH   3   7
ATOM      7  N   UNL     1      -3.350  -2.066   2.250  0.00  0.00    +0.056 N 
ATOM      8  O   UNL     1      -2.483  -2.756   1.745  0.00  0.00    -0.126 OA
ATOM      9  O   UNL     1      -4.365  -2.583   2.683  0.00  0.00    -0.126 OA
ENDBRANCH   3   7
BRANCH   6  10
ATOM     10  N   UNL     1      -2.674   3.534   2.602  0.00  0.00    -0.340 N 
ATOM     11  H   UNL     1      -1.759   4.004   2.212  0.00  0.00    +0.146 HD
BRANCH  10  12
ATOM     12  C   UNL     1      -3.717   4.359   3.215  0.00  0.00    +0.129 C 
BRANCH  12  13
ATOM     13  C   UNL     1      -3.288   5.827   3.187  0.00  0.00    +0.174 C 
BRANCH  13  14
ATOM     14  O   UNL     1      -3.202   6.273   1.832  0.00  0.00    -0.393 OA
ATOM     15  H   UNL     1      -2.905   7.309   1.611  0.00  0.00    +0.209 HD
ENDBRANCH  13  14
ENDBRANCH  12  13
ENDBRANCH  10  12
ENDBRANCH   6  10
BRANCH   1  16
ATOM     16  N   UNL     1      -0.683   1.953   1.431  0.00  0.00    -0.096 NA
BRANCH  16  17
ATOM     17  S   UNL     1       0.044   1.342   0.074  0.00  0.00    +0.093 S 
ATOM     18  O   UNL     1       1.166   2.172  -0.194  0.00  0.00    -0.148 OA
ATOM     19  O   UNL     1      -0.989   1.126  -0.877  0.00  0.00    -0.148 OA
BRANCH  17  22
ATOM     20  C   UNL     1       0.691  -2.622   0.197  0.00  0.00    +0.003 A 
ATOM     21  C   UNL     1       0.191  -1.375  -0.132  0.00  0.00    +0.030 A 
ATOM     22  C   UNL     1       0.682  -0.246   0.494  0.00  0.00    +0.130 A 
ATOM     23  C   UNL     1       1.678  -0.361   1.447  0.00  0.00    +0.086 A 
ATOM     24  C   UNL     1       2.175  -1.609   1.780  0.00  0.00    +0.061 A 
ATOM     25  C   UNL     1       1.683  -2.739   1.152  0.00  0.00    +0.021 A 
ATOM     26 CL   UNL     1       3.421  -1.756   2.981  0.00  0.00    -0.082 Cl
ATOM     27 CL   UNL     1       2.300   1.059   2.229  0.00  0.00    -0.080 Cl
ENDBRANCH  17  22
ENDBRANCH  16  17
ENDBRANCH   1  16
TORSDOF 8
