REMARK  Name = ZINC39217250
REMARK  6 active torsions:
REMARK  status: ('A' for Active; 'I' for Inactive)
REMARK    1  A    between atoms: C_1  and  O_2
REMARK    2  A    between atoms: O_2  and  C_3
REMARK    3  A    between atoms: C_3  and  C_5
REMARK    4  A    between atoms: C_7  and  N_17
REMARK    5  A    between atoms: N_17  and  S_18
REMARK    6  A    between atoms: S_18  and  C_21
REMARK                            x       y       z     vdW  Elec       q    Type
REMARK                         _______ _______ _______ _____ _____    ______ ____
ROOT
ATOM      1  C   UNL     1      -1.244  -2.135   0.003  0.00  0.00    +0.203 C 
ATOM      2  C   UNL     1      -1.035  -2.684   1.423  0.00  0.00    +0.139 C 
ATOM      3  C   UNL     1      -2.312  -3.433   1.734  0.00  0.00    -0.003 A 
ATOM      4  C   UNL     1      -2.700  -4.133   2.860  0.00  0.00    +0.045 A 
ATOM      5  C   UNL     1      -3.942  -4.744   2.905  0.00  0.00    +0.124 A 
ATOM      6  C   UNL     1      -4.793  -4.651   1.816  0.00  0.00    +0.040 A 
ATOM      7  C   UNL     1      -4.407  -3.955   0.691  0.00  0.00    +0.026 A 
ATOM      8  C   UNL     1      -3.157  -3.336   0.640  0.00  0.00    +0.033 A 
ATOM      9  N   UNL     1      -2.579  -2.591  -0.394  0.00  0.00    -0.330 N 
ATOM     10  F   UNL     1      -4.321  -5.428   4.006  0.00  0.00    -0.205 F 
ATOM     11  H   UNL     1      -3.000  -2.402  -1.248  0.00  0.00    +0.147 HD
ENDROOT
BRANCH   1  12
ATOM     12  C   UNL     1      -1.185  -0.630   0.010  0.00  0.00    +0.329 C 
ATOM     13  O   UNL     1      -2.208   0.015   0.023  0.00  0.00    -0.249 OA
BRANCH  12  15
ATOM     14  C   UNL     1      -0.017   1.425   0.010  0.00  0.00    +0.280 C 
ATOM     15  O   UNL     1       0.002  -0.004   0.002  0.00  0.00    -0.467 OA
ENDBRANCH  12  15
ENDBRANCH   1  12
BRANCH   2  16
ATOM     16  N   UNL     1       0.114  -3.593   1.456  0.00  0.00    -0.180 NA
ATOM     17  H   UNL     1       0.305  -4.162   0.693  0.00  0.00    +0.149 HD
BRANCH  16  18
ATOM     18  S   UNL     1       1.087  -3.650   2.795  0.00  0.00    +0.059 S 
ATOM     19  O   UNL     1       2.081  -4.631   2.533  0.00  0.00    -0.153 OA
ATOM     20  O   UNL     1       1.411  -2.304   3.118  0.00  0.00    -0.153 OA
BRANCH  18  21
ATOM     21  C   UNL     1       0.109  -4.266   4.124  0.00  0.00    +0.106 A 
ATOM     22  C   UNL     1      -0.607  -3.393   4.931  0.00  0.00    +0.030 A 
ATOM     23  C   UNL     1      -1.376  -3.846   5.971  0.00  0.00    +0.031 A 
ATOM     24  C   UNL     1      -1.464  -5.228   6.256  0.00  0.00    +0.082 A 
ATOM     25  C   UNL     1      -0.722  -6.087   5.414  0.00  0.00    +0.045 A 
ATOM     26  C   UNL     1       0.042  -5.625   4.371  0.00  0.00    +0.045 A 
ATOM     27  S   UNL     1      -1.093  -7.689   6.087  0.00  0.00    -0.025 S 
ATOM     28  C   UNL     1      -2.172  -7.136   7.400  0.00  0.00    +0.311 A 
ATOM     29  O   UNL     1      -2.825  -7.872   8.328  0.00  0.00    -0.258 OA
ATOM     30  N   UNL     1      -2.170  -5.835   7.235  0.00  0.00    -0.202 NA
ENDBRANCH  18  21
ENDBRANCH  16  18
ENDBRANCH   2  16
TORSDOF 5
