REMARK  Name = ZINC37624836
REMARK  16 active torsions:
REMARK  status: ('A' for Active; 'I' for Inactive)
REMARK    1  A    between atoms: C_1  and  C_2
REMARK    2  A    between atoms: C_4  and  C_40
REMARK    3  A    between atoms: C_7  and  C_8
REMARK    4  A    between atoms: C_8  and  C_32
REMARK    5  A    between atoms: N_9  and  N_10
REMARK    6  A    between atoms: N_10  and  C_11
REMARK    7  A    between atoms: C_11  and  N_13
REMARK    8  A    between atoms: N_13  and  N_14
REMARK    9  A    between atoms: C_15  and  C_16
REMARK   10  A    between atoms: C_15  and  C_24
REMARK   11  A    between atoms: C_17  and  C_23
REMARK   12  A    between atoms: C_19  and  C_22
REMARK   13  A    between atoms: C_25  and  C_31
REMARK   14  A    between atoms: C_27  and  C_30
REMARK   15  A    between atoms: C_33  and  C_39
REMARK   16  A    between atoms: C_35  and  C_38
REMARK                            x       y       z     vdW  Elec       q    Type
REMARK                         _______ _______ _______ _____ _____    ______ ____
ROOT
ATOM      1  C   UNL     1       4.284   4.524   1.607  0.00  0.00    +0.170 C 
ATOM      2  S   UNL     1       5.055   5.952   1.062  0.00  0.00    -0.016 S 
ENDROOT
BRANCH   1   3
ATOM      3  N   UNL     1       3.969   3.551   0.729  0.00  0.00    -0.216 N 
ATOM      4  H   UNL     1       4.259   3.618  -0.195  0.00  0.00    +0.176 HD
BRANCH   3   6
ATOM      5  C   UNL     1       3.031   1.433   0.334  0.00  0.00    +0.129 C 
ATOM      6  N   UNL     1       3.222   2.442   1.149  0.00  0.00    -0.177 NA
BRANCH   5  13
ATOM      7  C   UNL     1       6.131   1.034   0.399  0.00  0.00    +0.046 C 
ATOM      8  C   UNL     1       5.254   1.087  -0.826  0.00  0.00    -0.023 A 
ATOM      9  C   UNL     1       5.677   0.960  -2.158  0.00  0.00    +0.026 A 
ATOM     10  C   UNL     1       4.586   1.065  -2.948  0.00  0.00    +0.014 A 
ATOM     11  N   UNL     1       3.494   1.254  -2.155  0.00  0.00    -0.357 N 
ATOM     12  H   UNL     1       2.581   1.360  -2.465  0.00  0.00    +0.166 HD
ATOM     13  C   UNL     1       3.901   1.262  -0.845  0.00  0.00    +0.072 A 
ATOM     14  C   UNL     1       4.579   0.987  -4.453  0.00  0.00    +0.063 C 
ENDBRANCH   5  13
BRANCH   5  15
ATOM     15  C   UNL     1       1.945   0.470   0.596  0.00  0.00    +0.072 A 
ATOM     16  C   UNL     1       0.986   0.582   1.560  0.00  0.00    -0.023 A 
ATOM     17  C   UNL     1       0.158  -0.546   1.459  0.00  0.00    +0.026 A 
ATOM     18  C   UNL     1       0.626  -1.311   0.448  0.00  0.00    +0.014 A 
ATOM     19  N   UNL     1       1.716  -0.696  -0.091  0.00  0.00    -0.357 N 
ATOM     20  H   UNL     1       2.243  -1.028  -0.835  0.00  0.00    +0.166 HD
ATOM     21  C   UNL     1       0.038  -2.621  -0.009  0.00  0.00    +0.063 C 
ATOM     22  C   UNL     1       0.843   1.709   2.550  0.00  0.00    +0.046 C 
ENDBRANCH   5  15
ENDBRANCH   3   6
ENDBRANCH   1   3
BRANCH   1  23
ATOM     23  N   UNL     1       3.991   4.372   2.913  0.00  0.00    -0.216 N 
ATOM     24  H   UNL     1       4.137   5.106   3.531  0.00  0.00    +0.176 HD
BRANCH  23  25
ATOM     25  N   UNL     1       3.477   3.155   3.380  0.00  0.00    -0.177 NA
ATOM     26  C   UNL     1       3.052   3.054   4.616  0.00  0.00    +0.129 C 
BRANCH  26  27
ATOM     27  C   UNL     1       2.801   4.271   5.412  0.00  0.00    +0.072 A 
ATOM     28  C   UNL     1       1.865   5.227   5.144  0.00  0.00    -0.023 A 
ATOM     29  C   UNL     1       1.966   6.203   6.147  0.00  0.00    +0.026 A 
ATOM     30  C   UNL     1       2.949   5.823   6.993  0.00  0.00    +0.014 A 
ATOM     31  N   UNL     1       3.463   4.639   6.556  0.00  0.00    -0.357 N 
ATOM     32  H   UNL     1       4.179   4.141   6.981  0.00  0.00    +0.166 HD
ATOM     33  C   UNL     1       3.397   6.579   8.218  0.00  0.00    +0.063 C 
ATOM     34  C   UNL     1       0.902   5.235   3.985  0.00  0.00    +0.046 C 
ENDBRANCH  26  27
BRANCH  26  35
ATOM     35  C   UNL     1       2.825   1.724   5.211  0.00  0.00    +0.072 A 
ATOM     36  C   UNL     1       3.137   0.524   4.641  0.00  0.00    -0.023 A 
ATOM     37  C   UNL     1       2.754  -0.480   5.543  0.00  0.00    +0.026 A 
ATOM     38  C   UNL     1       2.223   0.124   6.629  0.00  0.00    +0.014 A 
ATOM     39  N   UNL     1       2.267   1.473   6.440  0.00  0.00    -0.357 N 
ATOM     40  H   UNL     1       1.954   2.143   7.067  0.00  0.00    +0.166 HD
ATOM     41  C   UNL     1       1.680  -0.577   7.848  0.00  0.00    +0.063 C 
ATOM     42  C   UNL     1       3.775   0.316   3.292  0.00  0.00    +0.046 C 
ENDBRANCH  26  35
ENDBRANCH  23  25
ENDBRANCH   1  23
TORSDOF 8
