REMARK  Name = ZINC01080946
REMARK  8 active torsions:
REMARK  status: ('A' for Active; 'I' for Inactive)
REMARK    1  A    between atoms: C_1  and  C_2
REMARK    2  A    between atoms: C_5  and  N_8
REMARK    3  A    between atoms: C_11  and  C_18
REMARK    4  A    between atoms: C_12  and  O_17
REMARK    5  A    between atoms: C_20  and  C_33
REMARK    6  A    between atoms: N_22  and  C_25
REMARK    7  A    between atoms: C_28  and  C_32
REMARK    8  A    between atoms: C_29  and  C_31
REMARK                            x       y       z     vdW  Elec       q    Type
REMARK                         _______ _______ _______ _____ _____    ______ ____
ROOT
ATOM      1  N   UNL     1       2.625  -2.316  -1.248  0.00  0.00    -0.228 N 
ATOM      2  C   UNL     1       1.565  -1.486  -1.343  0.00  0.00    +0.272 A 
ATOM      3  O   UNL     1       0.801  -1.558  -2.288  0.00  0.00    -0.266 OA
ATOM      4  C   UNL     1       1.355  -0.489  -0.280  0.00  0.00    +0.100 A 
ATOM      5  C   UNL     1       2.272  -0.464   0.786  0.00  0.00    +0.207 A 
ATOM      6  N   UNL     1       3.306  -1.351   0.787  0.00  0.00    -0.278 N 
ATOM      7  H   UNL     1       3.941  -1.338   1.520  0.00  0.00    +0.173 HD
ATOM      8  C   UNL     1       3.466  -2.241  -0.204  0.00  0.00    +0.337 A 
ATOM      9  O   UNL     1       4.405  -3.010  -0.153  0.00  0.00    -0.246 OA
ENDROOT
BRANCH   4  10
ATOM     10  C   UNL     1       0.272   0.404  -0.327  0.00  0.00    +0.033 C 
ATOM     11  C   UNL     1       0.498   1.777  -0.272  0.00  0.00    +0.062 C 
ATOM     12  C   UNL     1      -0.511   2.839  -0.183  0.00  0.00    +0.069 C 
ATOM     13  N   UNL     1       0.122   3.975  -0.152  0.00  0.00    -0.177 NA
ATOM     14  N   UNL     1       1.500   3.763  -0.223  0.00  0.00    -0.156 N 
ATOM     15  C   UNL     1       1.755   2.442  -0.296  0.00  0.00    +0.272 C 
ATOM     16  O   UNL     1       2.854   1.917  -0.369  0.00  0.00    -0.268 OA
ATOM     17  C   UNL     1      -2.005   2.649  -0.133  0.00  0.00    +0.068 C 
BRANCH  14  18
ATOM     18  C   UNL     1       2.471   4.772  -0.219  0.00  0.00    +0.061 A 
ATOM     19  C   UNL     1       3.818   4.441  -0.289  0.00  0.00    +0.026 A 
ATOM     20  C   UNL     1       4.773   5.439  -0.290  0.00  0.00    +0.005 A 
ATOM     21  C   UNL     1       4.390   6.765  -0.211  0.00  0.00    -0.047 A 
ATOM     22  C   UNL     1       3.050   7.098  -0.136  0.00  0.00    -0.046 A 
ATOM     23  C   UNL     1       2.090   6.105  -0.140  0.00  0.00    +0.029 A 
ATOM     24  C   UNL     1       2.636   8.544  -0.050  0.00  0.00    +0.044 C 
ATOM     25  C   UNL     1       5.435   7.851  -0.206  0.00  0.00    +0.044 C 
ENDBRANCH  14  18
ENDBRANCH   4  10
BRANCH   1  30
ATOM     26  C   UNL     1       3.530  -6.179  -5.306  0.00  0.00    +0.044 C 
ATOM     27  C   UNL     1       3.290  -5.154  -4.228  0.00  0.00    -0.050 A 
ATOM     28  C   UNL     1       4.153  -4.082  -4.091  0.00  0.00    +0.005 A 
ATOM     29  C   UNL     1       3.935  -3.140  -3.105  0.00  0.00    +0.026 A 
ATOM     30  C   UNL     1       2.849  -3.270  -2.250  0.00  0.00    +0.054 A 
ATOM     31  C   UNL     1       1.987  -4.350  -2.387  0.00  0.00    +0.026 A 
ATOM     32  C   UNL     1       2.207  -5.286  -3.379  0.00  0.00    +0.005 A 
ENDBRANCH   1  30
BRANCH   5  33
ATOM     33  O   UNL     1       2.130   0.421   1.788  0.00  0.00    -0.493 OA
ATOM     34  H   UNL     1       2.789   0.393   2.495  0.00  0.00    +0.294 HD
ENDBRANCH   5  33
TORSDOF 4
