REMARK  Name = ZINC11173308
REMARK  5 active torsions:
REMARK  status: ('A' for Active; 'I' for Inactive)
REMARK    1  A    between atoms: C_3  and  N_19
REMARK    2  A    between atoms: C_4  and  N_16
REMARK    3  A    between atoms: C_6  and  S_7
REMARK    4  A    between atoms: S_7  and  N_10
REMARK    5  A    between atoms: C_22  and  C_25
REMARK                            x       y       z     vdW  Elec       q    Type
REMARK                         _______ _______ _______ _____ _____    ______ ____
ROOT
ATOM      1  C   UNL     1       0.373   5.350  -0.730  0.00  0.00    +0.030 A 
ATOM      2  C   UNL     1       0.143   6.612  -0.218  0.00  0.00    +0.027 A 
ATOM      3  C   UNL     1       1.131   7.250   0.521  0.00  0.00    +0.060 A 
ATOM      4  C   UNL     1       2.345   6.614   0.747  0.00  0.00    +0.149 A 
ATOM      5  C   UNL     1       2.566   5.350   0.237  0.00  0.00    +0.063 A 
ATOM      6  C   UNL     1       1.581   4.717  -0.498  0.00  0.00    +0.108 A 
ENDROOT
BRANCH   3   7
ATOM      7  N   UNL     1       0.904   8.529   1.035  0.00  0.00    -0.331 N 
ATOM      8  C   UNL     1       0.719   9.507  -0.046  0.00  0.00    +0.086 C 
ATOM      9  C   UNL     1       0.553  10.904   0.556  0.00  0.00    -0.062 C 
ATOM     10  C   UNL     1      -0.415   9.930   2.549  0.00  0.00    +0.033 C 
ATOM     11  C   UNL     1      -0.249   8.533   1.947  0.00  0.00    +0.098 C 
ATOM     12  N   UNL     1      -0.607  10.913   1.467  0.00  0.00    +0.389 N 
ATOM     13  H   UNL     1      -1.455  10.675   0.939  0.00  0.00    -0.085 HD
ATOM     14  H   UNL     1      -0.711  11.850   1.874  0.00  0.00    -0.085 HD
BRANCH  10  15
ATOM     15  C   UNL     1      -1.620   9.947   3.454  0.00  0.00    +0.198 C 
ATOM     16  O   UNL     1      -2.671  10.402   3.055  0.00  0.00    -0.278 OA
ATOM     17  N   UNL     1      -1.530   9.457   4.706  0.00  0.00    -0.331 N 
ATOM     18  H   UNL     1      -0.689   9.094   5.025  0.00  0.00    +0.145 HD
ATOM     19  H   UNL     1      -2.305   9.469   5.288  0.00  0.00    +0.145 HD
ENDBRANCH  10  15
ENDBRANCH   3   7
BRANCH   6  20
ATOM     20  S   UNL     1       1.867   3.104  -1.147  0.00  0.00    +0.061 S 
ATOM     21  O   UNL     1       3.276   2.955  -1.258  0.00  0.00    -0.153 OA
ATOM     22  O   UNL     1       0.995   2.953  -2.258  0.00  0.00    -0.153 OA
BRANCH  20  23
ATOM     23  N   UNL     1       1.366   2.019  -0.000  0.00  0.00    -0.177 NA
ATOM     24  C   UNL     1      -0.019   1.528   0.010  0.00  0.00    +0.109 C 
ATOM     25  C   UNL     1       0.002  -0.004   0.002  0.00  0.00    +0.017 C 
ATOM     26  C   UNL     1       0.856  -0.505   1.169  0.00  0.00    +0.003 C 
ATOM     27  C   UNL     1       2.292  -0.002   1.006  0.00  0.00    +0.017 C 
ATOM     28  C   UNL     1       2.297   1.530   1.025  0.00  0.00    +0.109 C 
ENDBRANCH  20  23
ENDBRANCH   6  20
BRANCH   4  29
ATOM     29  N   UNL     1       3.401   7.291   1.534  0.00  0.00    +0.058 N 
ATOM     30  O   UNL     1       4.465   6.732   1.733  0.00  0.00    -0.126 OA
ATOM     31  O   UNL     1       3.205   8.406   1.984  0.00  0.00    -0.126 OA
ENDBRANCH   4  29
TORSDOF 5
