REMARK  Name = ZINC65314529
REMARK  2 active torsions:
REMARK  status: ('A' for Active; 'I' for Inactive)
REMARK    1  A    between atoms: N_10  and  C_11
REMARK    2  A    between atoms: N_13  and  C_14
REMARK                            x       y       z     vdW  Elec       q    Type
REMARK                         _______ _______ _______ _____ _____    ______ ____
ROOT
ATOM      1  C   UNL     1      -0.016   1.352  -0.012  0.00  0.00    +0.005 A 
ATOM      2  C   UNL     1       1.197   2.070  -0.025  0.00  0.00    +0.018 A 
ATOM      3  C   UNL     1       2.375   1.421  -0.035  0.00  0.00    +0.096 A 
ATOM      4  N   UNL     1       2.419   0.049  -0.032  0.00  0.00    -0.271 N 
ATOM      5  C   UNL     1       1.247  -0.681  -0.020  0.00  0.00    +0.160 A 
ATOM      6  C   UNL     1       0.002  -0.003  -0.009  0.00  0.00    +0.048 A 
ATOM      7  N   UNL     1       1.552  -1.958  -0.020  0.00  0.00    -0.153 NA
ATOM      8  N   UNL     1       2.948  -2.075  -0.033  0.00  0.00    -0.246 N 
ATOM      9  C   UNL     1       3.464  -0.829  -0.040  0.00  0.00    +0.224 A 
ATOM     10  N   UNL     1       4.759  -0.513  -0.053  0.00  0.00    -0.127 NA
ATOM     11  H   UNL     1       3.453  -2.903  -0.035  0.00  0.00    +0.192 HD
ENDROOT
BRANCH  10  12
ATOM     12  C   UNL     1       5.681  -1.477  -0.060  0.00  0.00    +0.330 C 
ATOM     13  O   UNL     1       5.340  -2.648  -0.054  0.00  0.00    -0.250 OA
ATOM     14  N   UNL     1       6.990  -1.158  -0.073  0.00  0.00    -0.268 N 
ATOM     15  H   UNL     1       7.262  -0.229  -0.145  0.00  0.00    +0.156 HD
BRANCH  14  16
ATOM     16  C   UNL     1       7.958  -2.165   0.018  0.00  0.00    +0.035 A 
ATOM     17  C   UNL     1       9.140  -1.934   0.709  0.00  0.00    +0.024 A 
ATOM     18  C   UNL     1      10.093  -2.929   0.796  0.00  0.00    +0.017 A 
ATOM     19  C   UNL     1       9.871  -4.156   0.196  0.00  0.00    +0.018 A 
ATOM     20  C   UNL     1       8.694  -4.389  -0.493  0.00  0.00    +0.017 A 
ATOM     21  C   UNL     1       7.735  -3.399  -0.579  0.00  0.00    +0.024 A 
ATOM     22 BR   UNL     1      11.178  -5.517   0.317  0.00  0.00    -0.050 Br
ENDBRANCH  14  16
ENDBRANCH  10  12
TORSDOF 2
