REMARK  Name = ZINC45896401
REMARK  7 active torsions:
REMARK  status: ('A' for Active; 'I' for Inactive)
REMARK    1  A    between atoms: C_1  and  S_2
REMARK    2  A    between atoms: S_2  and  C_3
REMARK    3  A    between atoms: C_7  and  N_9
REMARK    4  A    between atoms: N_12  and  C_13
REMARK    5  A    between atoms: C_22  and  O_23
REMARK    6  A    between atoms: N_24  and  C_25
REMARK    7  A    between atoms: C_25  and  C_26
REMARK                            x       y       z     vdW  Elec       q    Type
REMARK                         _______ _______ _______ _____ _____    ______ ____
ROOT
ATOM      1  C   UNL     1       3.553  -5.140  -6.009  0.00  0.00    +0.140 A 
ATOM      2  C   UNL     1       3.733  -6.500  -6.393  0.00  0.00    +0.075 A 
ATOM      3  C   UNL     1       4.396  -6.755  -7.693  0.00  0.00    +0.042 A 
ATOM      4  C   UNL     1       4.614  -8.050  -8.152  0.00  0.00    +0.013 A 
ATOM      5  C   UNL     1       5.234  -8.246  -9.368  0.00  0.00    +0.001 A 
ATOM      6  C   UNL     1       5.636  -7.160 -10.129  0.00  0.00    +0.004 A 
ATOM      7  C   UNL     1       5.424  -5.872  -9.683  0.00  0.00    +0.047 A 
ATOM      8  C   UNL     1       4.802  -5.655  -8.461  0.00  0.00    +0.141 A 
ATOM      9  O   UNL     1       4.585  -4.402  -8.007  0.00  0.00    -0.424 OA
ATOM     10  C   UNL     1       3.981  -4.154  -6.834  0.00  0.00    +0.309 A 
ATOM     11  N   UNL     1       3.329  -7.489  -5.624  0.00  0.00    -0.378 N 
ATOM     12  H   UNL     1       3.557  -8.405  -5.851  0.00  0.00    +0.160 HD
ENDROOT
BRANCH   1  16
ATOM     13  N   UNL     1       2.946  -4.825  -2.451  0.00  0.00    -0.269 N 
ATOM     14  C   UNL     1       3.574  -5.047  -3.623  0.00  0.00    +0.308 C 
ATOM     15  O   UNL     1       4.721  -5.449  -3.631  0.00  0.00    -0.252 OA
ATOM     16  N   UNL     1       2.930  -4.823  -4.785  0.00  0.00    -0.262 N 
ATOM     17  H   UNL     1       2.009  -4.578  -2.442  0.00  0.00    +0.156 HD
ATOM     18  H   UNL     1       2.037  -4.443  -4.779  0.00  0.00    +0.157 HD
BRANCH  13  23
ATOM     19  C   UNL     1       5.691  -4.770   0.002  0.00  0.00    +0.009 A 
ATOM     20  C   UNL     1       5.029  -5.208   1.143  0.00  0.00    +0.015 A 
ATOM     21  C   UNL     1       3.684  -5.517   1.087  0.00  0.00    +0.003 A 
ATOM     22  C   UNL     1       2.992  -5.390  -0.103  0.00  0.00    +0.023 A 
ATOM     23  C   UNL     1       3.648  -4.952  -1.247  0.00  0.00    +0.036 A 
ATOM     24  C   UNL     1       4.997  -4.636  -1.193  0.00  0.00    +0.038 A 
BRANCH  19  26
ATOM     25  C   UNL     1       7.860  -4.703   1.801  0.00  0.00    +0.090 C 
ATOM     26  S   UNL     1       7.408  -4.378   0.075  0.00  0.00    -0.129 S 
ENDBRANCH  19  26
ENDBRANCH  13  23
ENDBRANCH   1  16
BRANCH  10  27
ATOM     27  O   UNL     1       3.798  -2.867  -6.457  0.00  0.00    -0.479 OA
ATOM     28  H   UNL     1       4.128  -2.220  -7.095  0.00  0.00    +0.295 HD
ENDBRANCH  10  27
BRANCH  11  29
ATOM     29  C   UNL     1       2.533  -7.208  -4.427  0.00  0.00    +0.148 C 
BRANCH  29  30
ATOM     30  C   UNL     1       1.682  -8.406  -4.096  0.00  0.00    -0.028 A 
ATOM     31  C   UNL     1       0.414  -8.523  -4.635  0.00  0.00    +0.005 A 
ATOM     32  C   UNL     1      -0.367  -9.623  -4.331  0.00  0.00    +0.000 A 
ATOM     33  C   UNL     1       0.119 -10.605  -3.489  0.00  0.00    +0.000 A 
ATOM     34  C   UNL     1       1.387 -10.489  -2.951  0.00  0.00    +0.000 A 
ATOM     35  C   UNL     1       2.170  -9.391  -3.258  0.00  0.00    +0.005 A 
ENDBRANCH  29  30
ENDBRANCH  11  29
TORSDOF 6
