REMARK  Name = ZINC02911888
REMARK  5 active torsions:
REMARK  status: ('A' for Active; 'I' for Inactive)
REMARK    1  A    between atoms: C_1  and  C_2
REMARK    2  A    between atoms: C_6  and  C_22
REMARK    3  A    between atoms: C_10  and  C_11
REMARK    4  A    between atoms: N_13  and  C_14
REMARK    5  A    between atoms: C_14  and  C_15
REMARK                            x       y       z     vdW  Elec       q    Type
REMARK                         _______ _______ _______ _____ _____    ______ ____
ROOT
ATOM      1  C   UNL     1      -0.662   7.939  -3.464  0.00  0.00    +0.046 C 
ATOM      2  C   UNL     1      -0.495   9.419  -3.234  0.00  0.00    -0.019 A 
ATOM      3  C   UNL     1       0.070   9.884  -2.039  0.00  0.00    +0.051 A 
ATOM      4  C   UNL     1       0.551   9.143  -0.918  0.00  0.00    +0.133 A 
ATOM      5  N   UNL     1       1.047   9.793   0.120  0.00  0.00    -0.217 NA
ATOM      6  C   UNL     1       1.125  11.112   0.156  0.00  0.00    +0.129 A 
ATOM      7  N   UNL     1       0.698  11.854  -0.848  0.00  0.00    -0.225 NA
ATOM      8  C   UNL     1       0.184  11.291  -1.922  0.00  0.00    +0.114 A 
ATOM      9  S   UNL     1      -0.490  11.884  -3.453  0.00  0.00    -0.064 S 
ATOM     10  C   UNL     1      -0.892  10.307  -4.186  0.00  0.00    +0.079 A 
ATOM     11  C   UNL     1       1.709  11.783   1.372  0.00  0.00    +0.088 C 
ATOM     12  N   UNL     1       0.493   7.764  -0.917  0.00  0.00    -0.312 N 
ATOM     13  C   UNL     1       1.835   7.181  -0.778  0.00  0.00    +0.125 C 
ATOM     14  C   UNL     1       1.736   5.655  -0.860  0.00  0.00    +0.125 C 
ATOM     15  N   UNL     1       0.842   5.167   0.198  0.00  0.00    -0.314 N 
ATOM     16  C   UNL     1      -0.500   5.750   0.060  0.00  0.00    +0.125 C 
ATOM     17  C   UNL     1      -0.402   7.276   0.142  0.00  0.00    +0.125 C 
ATOM     18  C   UNL     1       0.783   3.779   0.200  0.00  0.00    +0.099 A 
ATOM     19  C   UNL     1      -0.014   3.123   1.133  0.00  0.00    +0.042 A 
ATOM     20  C   UNL     1      -0.066   1.741   1.121  0.00  0.00    +0.005 A 
ATOM     21  C   UNL     1       0.692   1.058   0.179  0.00  0.00    +0.018 A 
ATOM     22  C   UNL     1       1.461   1.772  -0.717  0.00  0.00    +0.084 A 
ATOM     23  N   UNL     1       1.488   3.091  -0.685  0.00  0.00    -0.350 N 
ATOM     24  H   UNL     1       2.115   3.619  -1.419  0.00  0.00    +0.166 HD
ENDROOT
BRANCH  10  25
ATOM     25  C   UNL     1      -1.500  10.035  -5.495  0.00  0.00    +0.251 C 
ATOM     26  O   UNL     1      -1.707   8.887  -5.842  0.00  0.00    -0.270 OA
ATOM     27  N   UNL     1      -1.829  11.056  -6.310  0.00  0.00    -0.307 N 
ATOM     28  H   UNL     1      -1.642  12.093  -5.996  0.00  0.00    +0.149 HD
BRANCH  27  29
ATOM     29  C   UNL     1      -2.436  10.784  -7.616  0.00  0.00    +0.139 C 
BRANCH  29  30
ATOM     30  C   UNL     1      -2.705  12.086  -8.325  0.00  0.00    -0.030 A 
ATOM     31  C   UNL     1      -3.919  12.726  -8.159  0.00  0.00    +0.008 A 
ATOM     32  C   UNL     1      -4.165  13.923  -8.805  0.00  0.00    +0.038 A 
ATOM     33  C   UNL     1      -3.198  14.475  -9.629  0.00  0.00    +0.123 A 
ATOM     34  C   UNL     1      -1.985  13.831  -9.799  0.00  0.00    +0.038 A 
ATOM     35  C   UNL     1      -1.739  12.637  -9.147  0.00  0.00    +0.008 A 
ATOM     36  F   UNL     1      -3.439  15.642 -10.265  0.00  0.00    -0.205 F 
ENDBRANCH  29  30
ENDBRANCH  27  29
ENDBRANCH  10  25
TORSDOF 3
