REMARK  Name = ZINC58336830
REMARK  3 active torsions:
REMARK  status: ('A' for Active; 'I' for Inactive)
REMARK    1  A    between atoms: C_1  and  S_2
REMARK    2  A    between atoms: S_2  and  N_5
REMARK    3  A    between atoms: C_11  and  C_13
REMARK                            x       y       z     vdW  Elec       q    Type
REMARK                         _______ _______ _______ _____ _____    ______ ____
ROOT
ATOM      1  N   UNL     1       2.105  -2.519  -1.688  0.00  0.00    -0.178 NA
ATOM      2  C   UNL     1       1.304  -2.727  -2.903  0.00  0.00    +0.128 C 
ATOM      3  C   UNL     1       1.048  -1.365  -3.560  0.00  0.00    +0.125 C 
ATOM      4  N   UNL     1       2.326  -0.648  -3.668  0.00  0.00    -0.295 N 
ATOM      5  C   UNL     1       3.127  -0.440  -2.453  0.00  0.00    +0.125 C 
ATOM      6  C   UNL     1       3.381  -1.797  -1.796  0.00  0.00    +0.128 C 
ATOM      7  C   UNL     1       2.757  -0.189  -4.860  0.00  0.00    +0.255 C 
ATOM      8  O   UNL     1       3.778   0.468  -4.926  0.00  0.00    -0.269 OA
ENDROOT
BRANCH   7   9
ATOM      9  C   UNL     1       1.993  -0.483  -6.079  0.00  0.00    +0.094 A 
ATOM     10  C   UNL     1       2.452  -0.926  -7.281  0.00  0.00    +0.069 A 
ATOM     11  C   UNL     1       1.549  -1.150  -8.337  0.00  0.00    +0.027 A 
ATOM     12  C   UNL     1       0.191  -0.884  -8.040  0.00  0.00    +0.024 A 
ATOM     13  S   UNL     1       0.234  -0.355  -6.346  0.00  0.00    -0.082 S 
ATOM     14  C   UNL     1      -0.811  -1.055  -8.970  0.00  0.00    +0.035 A 
ATOM     15  C   UNL     1      -0.494  -1.501 -10.239  0.00  0.00    +0.043 A 
ATOM     16  C   UNL     1       0.832  -1.771 -10.558  0.00  0.00    +0.040 A 
ATOM     17  C   UNL     1       1.830  -1.607  -9.651  0.00  0.00    +0.052 A 
ATOM     18 CL   UNL     1       3.468  -1.960 -10.105  0.00  0.00    -0.083 Cl
ATOM     19 CL   UNL     1      -1.742  -1.724 -11.425  0.00  0.00    -0.083 Cl
ATOM     20 CL   UNL     1       4.149  -1.214  -7.512  0.00  0.00    -0.082 Cl
ENDBRANCH   7   9
BRANCH   1  22
ATOM     21  C   UNL     1       0.593  -1.725   0.470  0.00  0.00    +0.215 C 
ATOM     22  S   UNL     1       1.576  -3.082  -0.224  0.00  0.00    +0.029 S 
ATOM     23  O   UNL     1       2.759  -3.271   0.541  0.00  0.00    -0.158 OA
ATOM     24  O   UNL     1       0.736  -4.184  -0.541  0.00  0.00    -0.158 OA
ENDBRANCH   1  22
TORSDOF 2
