REMARK  Name = ZINC22325115
REMARK  10 active torsions:
REMARK  status: ('A' for Active; 'I' for Inactive)
REMARK    1  A    between atoms: C_1  and  C_2
REMARK    2  A    between atoms: C_5  and  S_8
REMARK    3  A    between atoms: S_8  and  N_11
REMARK    4  A    between atoms: N_11  and  C_12
REMARK    5  A    between atoms: N_11  and  C_29
REMARK    6  A    between atoms: C_12  and  C_13
REMARK    7  A    between atoms: N_15  and  C_16
REMARK    8  A    between atoms: C_19  and  N_23
REMARK    9  A    between atoms: C_20  and  C_22
REMARK   10  A    between atoms: C_34  and  C_35
REMARK                            x       y       z     vdW  Elec       q    Type
REMARK                         _______ _______ _______ _____ _____    ______ ____
ROOT
ATOM      1  N   UNL     1       5.948   3.035   0.260  0.00  0.00    -0.194 N 
ENDROOT
BRANCH   1   2
ATOM      2  C   UNL     1       6.253   2.544   1.533  0.00  0.00    +0.055 A 
ATOM      3  C   UNL     1       5.489   1.525   2.087  0.00  0.00    +0.026 A 
ATOM      4  C   UNL     1       5.793   1.042   3.345  0.00  0.00    +0.022 A 
ATOM      5  C   UNL     1       6.856   1.573   4.053  0.00  0.00    +0.041 A 
ATOM      6  C   UNL     1       7.619   2.589   3.504  0.00  0.00    +0.025 A 
ATOM      7  C   UNL     1       7.323   3.071   2.243  0.00  0.00    -0.026 A 
ATOM      8  C   UNL     1       8.158   4.173   1.643  0.00  0.00    +0.046 C 
ATOM      9 CL   UNL     1       7.235   0.964   5.634  0.00  0.00    -0.084 Cl
ENDBRANCH   1   2
BRANCH   1  10
ATOM     10  S   UNL     1       6.685   2.389  -1.075  0.00  0.00    +0.075 S 
ATOM     11  O   UNL     1       7.041   1.056  -0.737  0.00  0.00    -0.150 OA
ATOM     12  O   UNL     1       5.856   2.698  -2.186  0.00  0.00    -0.150 OA
BRANCH  10  17
ATOM     13  C   UNL     1      11.851   5.399  -1.891  0.00  0.00    +0.044 C 
ATOM     14  C   UNL     1      10.561   4.647  -1.687  0.00  0.00    -0.050 A 
ATOM     15  C   UNL     1      10.562   3.444  -1.006  0.00  0.00    +0.005 A 
ATOM     16  C   UNL     1       9.378   2.755  -0.819  0.00  0.00    +0.029 A 
ATOM     17  C   UNL     1       8.194   3.268  -1.313  0.00  0.00    +0.109 A 
ATOM     18  C   UNL     1       8.193   4.468  -1.999  0.00  0.00    +0.029 A 
ATOM     19  C   UNL     1       9.376   5.160  -2.182  0.00  0.00    +0.005 A 
ENDBRANCH  10  17
ENDBRANCH   1  10
BRANCH   1  20
ATOM     20  C   UNL     1       4.976   4.120   0.107  0.00  0.00    +0.227 C 
BRANCH  20  21
ATOM     21  C   UNL     1       3.584   3.545   0.061  0.00  0.00    +0.236 C 
ATOM     22  O   UNL     1       3.420   2.347   0.147  0.00  0.00    -0.274 OA
ATOM     23  N   UNL     1       2.521   4.363  -0.077  0.00  0.00    -0.284 N 
ATOM     24  H   UNL     1       2.673   5.443  -0.222  0.00  0.00    +0.155 HD
BRANCH  23  25
ATOM     25  C   UNL     1       1.223   3.838  -0.035  0.00  0.00    +0.034 A 
ATOM     26  C   UNL     1       0.196   4.572   0.543  0.00  0.00    +0.025 A 
ATOM     27  C   UNL     1      -1.083   4.054   0.584  0.00  0.00    +0.025 A 
ATOM     28  C   UNL     1      -1.341   2.797   0.052  0.00  0.00    +0.039 A 
ATOM     29  C   UNL     1      -0.315   2.066  -0.531  0.00  0.00    -0.027 A 
ATOM     30  C   UNL     1       0.965   2.583  -0.572  0.00  0.00    +0.028 A 
ATOM     31  C   UNL     1      -0.596   0.705  -1.113  0.00  0.00    +0.046 C 
BRANCH  28  32
ATOM     32  N   UNL     1      -2.638   2.270   0.099  0.00  0.00    -0.271 N 
ATOM     33  C   UNL     1      -3.159   1.449   1.198  0.00  0.00    +0.114 C 
ATOM     34  C   UNL     1      -4.697   1.477   1.038  0.00  0.00    +0.029 C 
ATOM     35  C   UNL     1      -4.849   1.747  -0.477  0.00  0.00    +0.098 C 
ATOM     36  C   UNL     1      -3.563   2.446  -0.861  0.00  0.00    +0.220 C 
ATOM     37  O   UNL     1      -3.392   3.074  -1.884  0.00  0.00    -0.275 OA
ENDBRANCH  28  32
ENDBRANCH  23  25
ENDBRANCH  20  21
ENDBRANCH   1  20
TORSDOF 7
