REMARK  Name = ZINC29586794
REMARK  7 active torsions:
REMARK  status: ('A' for Active; 'I' for Inactive)
REMARK    1  A    between atoms: C_1  and  C_2
REMARK    2  A    between atoms: C_5  and  C_8
REMARK    3  A    between atoms: N_10  and  C_21
REMARK    4  A    between atoms: N_13  and  C_14
REMARK    5  A    between atoms: C_21  and  N_22
REMARK    6  A    between atoms: C_25  and  N_28
REMARK    7  A    between atoms: C_29  and  C_31
REMARK                            x       y       z     vdW  Elec       q    Type
REMARK                         _______ _______ _______ _____ _____    ______ ____
ROOT
ATOM      1  C   UNL     1      -6.149   3.317   4.378  0.00  0.00    +0.167 A 
ATOM      2  N   UNL     1      -5.594   3.568   3.225  0.00  0.00    -0.152 NA
ATOM      3  N   UNL     1      -5.673   2.407   2.443  0.00  0.00    -0.257 N 
ATOM      4  C   UNL     1      -6.300   1.465   3.177  0.00  0.00    +0.181 A 
ATOM      5  S   UNL     1      -6.653  -0.135   2.679  0.00  0.00    -0.011 S 
ATOM      6  N   UNL     1      -6.595   2.009   4.375  0.00  0.00    -0.271 N 
ENDROOT
BRANCH   1  11
ATOM      7  C   UNL     1      -6.656   7.033   8.743  0.00  0.00    +0.044 C 
ATOM      8  C   UNL     1      -6.524   6.060   7.600  0.00  0.00    -0.050 A 
ATOM      9  C   UNL     1      -5.604   6.301   6.595  0.00  0.00    +0.004 A 
ATOM     10  C   UNL     1      -5.478   5.414   5.545  0.00  0.00    +0.012 A 
ATOM     11  C   UNL     1      -6.279   4.272   5.500  0.00  0.00    +0.020 A 
ATOM     12  C   UNL     1      -7.208   4.039   6.514  0.00  0.00    +0.012 A 
ATOM     13  C   UNL     1      -7.322   4.931   7.561  0.00  0.00    +0.004 A 
ENDBRANCH   1  11
BRANCH   6  14
ATOM     14  C   UNL     1      -7.247   1.361   5.432  0.00  0.00    +0.051 A 
ATOM     15  C   UNL     1      -6.556   1.068   6.601  0.00  0.00    +0.028 A 
ATOM     16  C   UNL     1      -7.203   0.435   7.644  0.00  0.00    +0.022 A 
ATOM     17  C   UNL     1      -8.535   0.082   7.521  0.00  0.00    +0.041 A 
ATOM     18  C   UNL     1      -9.225   0.368   6.356  0.00  0.00    +0.022 A 
ATOM     19  C   UNL     1      -8.584   1.006   5.312  0.00  0.00    +0.028 A 
ATOM     20 CL   UNL     1      -9.343  -0.721   8.832  0.00  0.00    -0.084 Cl
ENDBRANCH   6  14
BRANCH   3  21
ATOM     21  C   UNL     1      -5.172   2.248   1.076  0.00  0.00    +0.072 C 
BRANCH  21  22
ATOM     22  N   UNL     1      -3.781   1.776   1.116  0.00  0.00    +0.393 N 
ATOM     23  C   UNL     1      -3.321   1.380  -0.221  0.00  0.00    -0.074 C 
ATOM     24  C   UNL     1      -1.926   0.760  -0.119  0.00  0.00    +0.004 C 
ATOM     25  C   UNL     1      -0.962   1.782   0.490  0.00  0.00    +0.069 C 
ATOM     26  C   UNL     1      -1.489   2.215   1.861  0.00  0.00    +0.004 C 
ATOM     27  C   UNL     1      -2.898   2.792   1.702  0.00  0.00    -0.074 C 
ATOM     28  H   UNL     1      -3.743   0.886   1.762  0.00  0.00    -0.079 HD
BRANCH  25  29
ATOM     29  N   UNL     1       0.362   1.175   0.645  0.00  0.00    -0.312 N 
ATOM     30  C   UNL     1       1.462   1.954   0.665  0.00  0.00    +0.216 C 
ATOM     31  O   UNL     1       1.355   3.157   0.560  0.00  0.00    -0.276 OA
ATOM     32  H   UNL     1       0.459   0.084   0.744  0.00  0.00    +0.149 HD
BRANCH  30  33
ATOM     33  C   UNL     1       2.825   1.329   0.817  0.00  0.00    +0.075 C 
ATOM     34  C   UNL     1       3.576   1.583   2.126  0.00  0.00    +0.013 C 
ATOM     35  C   UNL     1       4.034   2.266   0.835  0.00  0.00    +0.013 C 
ENDBRANCH  30  33
ENDBRANCH  25  29
ENDBRANCH  21  22
ENDBRANCH   3  21
TORSDOF 6
