REMARK  Name = ZINC32748028
REMARK  9 active torsions:
REMARK  status: ('A' for Active; 'I' for Inactive)
REMARK    1  A    between atoms: C_1  and  C_2
REMARK    2  A    between atoms: C_2  and  N_3
REMARK    3  A    between atoms: C_4  and  C_6
REMARK    4  A    between atoms: C_6  and  N_7
REMARK    5  A    between atoms: C_8  and  C_10
REMARK    6  A    between atoms: C_12  and  S_17
REMARK    7  A    between atoms: S_17  and  N_20
REMARK    8  A    between atoms: N_20  and  C_21
REMARK    9  A    between atoms: C_25  and  C_27
REMARK                            x       y       z     vdW  Elec       q    Type
REMARK                         _______ _______ _______ _____ _____    ______ ____
ROOT
ATOM      1  C   UNL     1      -0.962   6.240  -4.544  0.00  0.00    +0.057 A 
ATOM      2  C   UNL     1      -0.551   6.521  -3.240  0.00  0.00    +0.043 A 
ATOM      3  C   UNL     1       0.405   5.732  -2.635  0.00  0.00    +0.111 A 
ATOM      4  C   UNL     1       0.961   4.665  -3.320  0.00  0.00    +0.030 A 
ATOM      5  C   UNL     1       0.555   4.376  -4.610  0.00  0.00    +0.022 A 
ATOM      6  C   UNL     1      -0.401   5.159  -5.228  0.00  0.00    +0.053 A 
ATOM      7 CL   UNL     1      -0.904   4.799  -6.850  0.00  0.00    -0.083 Cl
ENDROOT
BRANCH   1   9
ATOM      8  N   UNL     1      -2.524   8.124  -4.535  0.00  0.00    -0.303 N 
ATOM      9  C   UNL     1      -1.985   7.082  -5.198  0.00  0.00    +0.246 C 
ATOM     10  O   UNL     1      -2.341   6.834  -6.334  0.00  0.00    -0.270 OA
ATOM     11  H   UNL     1      -2.203   8.348  -3.507  0.00  0.00    +0.150 HD
BRANCH   8  12
ATOM     12  C   UNL     1      -3.539   8.959  -5.183  0.00  0.00    +0.200 C 
BRANCH  12  14
ATOM     13  N   UNL     1      -4.908  10.940  -4.619  0.00  0.00    -0.314 N 
ATOM     14  C   UNL     1      -3.975  10.046  -4.236  0.00  0.00    +0.230 C 
ATOM     15  O   UNL     1      -3.487  10.117  -3.128  0.00  0.00    -0.274 OA
ATOM     16  H   UNL     1      -5.352  10.875  -5.624  0.00  0.00    +0.149 HD
BRANCH  13  18
ATOM     17  C   UNL     1      -6.392  12.868  -4.375  0.00  0.00    +0.024 C 
ATOM     18  C   UNL     1      -5.332  11.997  -3.698  0.00  0.00    +0.101 C 
ENDBRANCH  13  18
ENDBRANCH  12  14
ENDBRANCH   8  12
ENDBRANCH   1   9
BRANCH   3  19
ATOM     19  S   UNL     1       0.924   6.086  -0.989  0.00  0.00    +0.092 S 
ATOM     20  O   UNL     1       0.655   7.463  -0.766  0.00  0.00    -0.148 OA
ATOM     21  O   UNL     1       2.224   5.530  -0.845  0.00  0.00    -0.148 OA
BRANCH  19  22
ATOM     22  N   UNL     1      -0.069   5.239   0.030  0.00  0.00    -0.098 NA
BRANCH  22  23
ATOM     23  C   UNL     1      -0.050   3.842   0.023  0.00  0.00    +0.075 A 
ATOM     24  C   UNL     1       1.161   3.163   0.008  0.00  0.00    +0.027 A 
ATOM     25  C   UNL     1       1.177   1.782   0.000  0.00  0.00    +0.002 A 
ATOM     26  C   UNL     1      -0.013   1.076   0.008  0.00  0.00    +0.012 A 
ATOM     27  C   UNL     1      -1.220   1.749   0.017  0.00  0.00    +0.057 A 
ATOM     28  C   UNL     1      -1.242   3.130   0.031  0.00  0.00    +0.039 A 
BRANCH  27  29
ATOM     29  C   UNL     1      -2.513   0.976   0.019  0.00  0.00    +0.417 C 
ATOM     30  F   UNL     1      -2.236  -0.396   0.010  0.00  0.00    -0.166 F 
ATOM     31  F   UNL     1      -3.247   1.295   1.166  0.00  0.00    -0.166 F 
ATOM     32  F   UNL     1      -3.257   1.309  -1.118  0.00  0.00    -0.166 F 
ENDBRANCH  27  29
ENDBRANCH  22  23
ENDBRANCH  19  22
ENDBRANCH   3  19
TORSDOF 8
