REMARK  Name = ZINC21037074
REMARK  7 active torsions:
REMARK  status: ('A' for Active; 'I' for Inactive)
REMARK    1  A    between atoms: C_1  and  C_2
REMARK    2  A    between atoms: C_2  and  C_4
REMARK    3  A    between atoms: C_8  and  N_10
REMARK    4  A    between atoms: N_13  and  C_14
REMARK    5  A    between atoms: C_14  and  C_16
REMARK    6  A    between atoms: C_14  and  C_22
REMARK    7  A    between atoms: C_25  and  C_27
REMARK                            x       y       z     vdW  Elec       q    Type
REMARK                         _______ _______ _______ _____ _____    ______ ____
ROOT
ATOM      1  C   UNL     1      -3.545  -2.456  -0.310  0.00  0.00    +0.192 C 
ENDROOT
BRANCH   1   5
ATOM      2  N   UNL     1      -2.428   1.032   0.019  0.00  0.00    -0.269 N 
ATOM      3  C   UNL     1      -2.409  -0.311  -0.091  0.00  0.00    +0.305 C 
ATOM      4  O   UNL     1      -1.348  -0.906  -0.099  0.00  0.00    -0.252 OA
ATOM      5  N   UNL     1      -3.565  -0.996  -0.191  0.00  0.00    -0.284 N 
ATOM      6  H   UNL     1      -3.387   1.562   0.114  0.00  0.00    +0.156 HD
ATOM      7  H   UNL     1      -4.525  -0.458  -0.183  0.00  0.00    +0.151 HD
BRANCH   2  12
ATOM      8  C   UNL     1       1.040   2.026  -0.749  0.00  0.00    +0.019 A 
ATOM      9  C   UNL     1       1.148   3.193   0.015  0.00  0.00    +0.011 A 
ATOM     10  C   UNL     1       0.074   3.629   0.763  0.00  0.00    +0.002 A 
ATOM     11  C   UNL     1      -1.111   2.916   0.761  0.00  0.00    +0.023 A 
ATOM     12  C   UNL     1      -1.228   1.752   0.011  0.00  0.00    +0.035 A 
ATOM     13  C   UNL     1      -0.158   1.307  -0.749  0.00  0.00    +0.034 A 
BRANCH   8  15
ATOM     14  C   UNL     1       3.474   2.337  -1.546  0.00  0.00    +0.091 C 
ATOM     15  C   UNL     1       2.183   1.558  -1.549  0.00  0.00    +0.160 C 
ATOM     16  O   UNL     1       2.087   0.546  -2.210  0.00  0.00    -0.292 OA
ENDBRANCH   8  15
ENDBRANCH   2  12
ENDBRANCH   1   5
BRANCH   1  17
ATOM     17  C   UNL     1      -3.467  -3.071   1.063  0.00  0.00    -0.018 A 
ATOM     18  C   UNL     1      -4.193  -2.526   2.106  0.00  0.00    +0.006 A 
ATOM     19  C   UNL     1      -4.126  -3.093   3.365  0.00  0.00    +0.000 A 
ATOM     20  C   UNL     1      -3.325  -4.199   3.584  0.00  0.00    +0.000 A 
ATOM     21  C   UNL     1      -2.595  -4.740   2.542  0.00  0.00    +0.000 A 
ATOM     22  C   UNL     1      -2.666  -4.176   1.282  0.00  0.00    +0.006 A 
ENDBRANCH   1  17
BRANCH   1  23
ATOM     23  C   UNL     1      -4.801  -2.922  -0.999  0.00  0.00    +0.242 A 
ATOM     24  N   UNL     1      -6.014  -2.513  -0.748  0.00  0.00    -0.110 NA
ATOM     25  N   UNL     1      -6.842  -3.120  -1.523  0.00  0.00    -0.107 NA
ATOM     26  C   UNL     1      -6.181  -3.945  -2.301  0.00  0.00    +0.248 A 
ATOM     27  O   UNL     1      -4.875  -3.830  -1.988  0.00  0.00    -0.418 OA
BRANCH  26  28
ATOM     28  C   UNL     1      -6.760  -4.830  -3.334  0.00  0.00    +0.038 A 
ATOM     29  C   UNL     1      -5.930  -5.654  -4.096  0.00  0.00    +0.013 A 
ATOM     30  C   UNL     1      -6.477  -6.482  -5.054  0.00  0.00    +0.001 A 
ATOM     31  C   UNL     1      -7.844  -6.488  -5.269  0.00  0.00    +0.000 A 
ATOM     32  C   UNL     1      -8.671  -5.669  -4.521  0.00  0.00    +0.001 A 
ATOM     33  C   UNL     1      -8.137  -4.841  -3.555  0.00  0.00    +0.013 A 
ENDBRANCH  26  28
ENDBRANCH   1  23
TORSDOF 6
