REMARK  Name = ZINC30750336
REMARK  14 active torsions:
REMARK  status: ('A' for Active; 'I' for Inactive)
REMARK    1  A    between atoms: C_1  and  C_2
REMARK    2  A    between atoms: C_5  and  N_8
REMARK    3  A    between atoms: C_9  and  C_28
REMARK    4  A    between atoms: C_12  and  S_13
REMARK    5  A    between atoms: S_13  and  C_14
REMARK    6  A    between atoms: C_14  and  C_15
REMARK    7  A    between atoms: N_17  and  N_18
REMARK    8  A    between atoms: C_19  and  C_20
REMARK    9  A    between atoms: C_23  and  O_27
REMARK   10  A    between atoms: C_24  and  O_26
REMARK   11  A    between atoms: C_31  and  C_34
REMARK   12  A    between atoms: C_34  and  C_35
REMARK   13  A    between atoms: C_34  and  C_36
REMARK   14  A    between atoms: C_34  and  C_37
REMARK                            x       y       z     vdW  Elec       q    Type
REMARK                         _______ _______ _______ _____ _____    ______ ____
ROOT
ATOM      1  N   UNL     1       1.093   1.827  -1.835  0.00  0.00    -0.270 N 
ATOM      2  C   UNL     1       1.744   0.785  -2.458  0.00  0.00    +0.169 A 
ATOM      3  N   UNL     1       0.854  -0.159  -2.662  0.00  0.00    -0.128 NA
ATOM      4  N   UNL     1      -0.292   0.214  -2.216  0.00  0.00    -0.122 NA
ATOM      5  C   UNL     1      -0.206   1.420  -1.699  0.00  0.00    +0.197 A 
ENDROOT
BRANCH   1  10
ATOM      6  C   UNL     1       3.331   6.772  -0.178  0.00  0.00    +0.044 C 
ATOM      7  C   UNL     1       2.737   5.459  -0.618  0.00  0.00    -0.050 A 
ATOM      8  C   UNL     1       2.249   4.572   0.324  0.00  0.00    +0.005 A 
ATOM      9  C   UNL     1       1.704   3.368  -0.076  0.00  0.00    +0.026 A 
ATOM     10  C   UNL     1       1.646   3.048  -1.426  0.00  0.00    +0.051 A 
ATOM     11  C   UNL     1       2.142   3.938  -2.369  0.00  0.00    +0.026 A 
ATOM     12  C   UNL     1       2.681   5.143  -1.963  0.00  0.00    +0.005 A 
ENDBRANCH   1  10
BRANCH   2  13
ATOM     13  C   UNL     1       3.175   0.738  -2.828  0.00  0.00    +0.020 A 
ATOM     14  C   UNL     1       4.069   1.664  -2.288  0.00  0.00    +0.012 A 
ATOM     15  C   UNL     1       5.404   1.612  -2.634  0.00  0.00    +0.005 A 
ATOM     16  C   UNL     1       5.854   0.651  -3.521  0.00  0.00    -0.042 A 
ATOM     17  C   UNL     1       4.973  -0.267  -4.064  0.00  0.00    +0.005 A 
ATOM     18  C   UNL     1       3.636  -0.229  -3.723  0.00  0.00    +0.012 A 
BRANCH  16  19
ATOM     19  C   UNL     1       7.313   0.603  -3.898  0.00  0.00    -0.013 C 
ATOM     20  C   UNL     1       7.455   0.799  -5.409  0.00  0.00    +0.015 C 
ATOM     21  C   UNL     1       8.065   1.716  -3.167  0.00  0.00    +0.015 C 
ATOM     22  C   UNL     1       7.898  -0.754  -3.503  0.00  0.00    +0.015 C 
ENDBRANCH  16  19
ENDBRANCH   2  13
BRANCH   5  23
ATOM     23  S   UNL     1      -1.520   2.343  -0.975  0.00  0.00    -0.076 S 
BRANCH  23  24
ATOM     24  C   UNL     1      -2.879   1.164  -1.175  0.00  0.00    +0.174 C 
BRANCH  24  25
ATOM     25  C   UNL     1      -4.145   1.756  -0.609  0.00  0.00    +0.242 C 
ATOM     26  O   UNL     1      -4.129   2.865  -0.119  0.00  0.00    -0.273 OA
ATOM     27  N   UNL     1      -5.294   1.052  -0.648  0.00  0.00    -0.206 N 
ATOM     28  H   UNL     1      -5.308   0.046  -1.093  0.00  0.00    +0.177 HD
BRANCH  27  29
ATOM     29  N   UNL     1      -6.470   1.602  -0.122  0.00  0.00    -0.188 NA
ATOM     30  C   UNL     1      -7.548   0.883  -0.052  0.00  0.00    +0.138 C 
BRANCH  30  31
ATOM     31  C   UNL     1      -7.454  -0.589  -0.060  0.00  0.00    -0.002 A 
ATOM     32  C   UNL     1      -8.599  -1.363  -0.262  0.00  0.00    +0.013 A 
ATOM     33  C   UNL     1      -8.508  -2.739  -0.275  0.00  0.00    +0.050 A 
ATOM     34  C   UNL     1      -7.282  -3.358  -0.077  0.00  0.00    +0.158 A 
ATOM     35  C   UNL     1      -6.137  -2.592   0.132  0.00  0.00    +0.159 A 
ATOM     36  C   UNL     1      -6.220  -1.213   0.140  0.00  0.00    +0.058 A 
BRANCH  35  37
ATOM     37  O   UNL     1      -4.937  -3.203   0.326  0.00  0.00    -0.503 OA
ATOM     38  H   UNL     1      -4.033  -2.599   0.491  0.00  0.00    +0.292 HD
ENDBRANCH  35  37
BRANCH  34  39
ATOM     39  O   UNL     1      -7.199  -4.714  -0.086  0.00  0.00    -0.503 OA
ATOM     40  H   UNL     1      -6.228  -5.207   0.072  0.00  0.00    +0.292 HD
ENDBRANCH  34  39
ENDBRANCH  30  31
ENDBRANCH  27  29
ENDBRANCH  24  25
ENDBRANCH  23  24
ENDBRANCH   5  23
TORSDOF 10
