REMARK  Name = ZINC35210299
REMARK  14 active torsions:
REMARK  status: ('A' for Active; 'I' for Inactive)
REMARK    1  A    between atoms: C_1  and  C_2
REMARK    2  A    between atoms: C_2  and  C_3
REMARK    3  A    between atoms: C_2  and  C_4
REMARK    4  A    between atoms: C_8  and  C_33
REMARK    5  A    between atoms: C_9  and  N_10
REMARK    6  A    between atoms: N_13  and  C_14
REMARK    7  A    between atoms: C_17  and  N_30
REMARK    8  A    between atoms: C_18  and  C_20
REMARK    9  A    between atoms: N_22  and  C_23
REMARK   10  A    between atoms: C_23  and  C_24
REMARK   11  A    between atoms: N_30  and  C_31
REMARK   12  A    between atoms: N_30  and  C_32
REMARK   13  A    between atoms: C_33  and  C_34
REMARK   14  A    between atoms: C_33  and  C_35
REMARK                            x       y       z     vdW  Elec       q    Type
REMARK                         _______ _______ _______ _____ _____    ______ ____
ROOT
ATOM      1  C   UNL     1      -0.565  -2.002  -5.301  0.00  0.00    +0.036 A 
ATOM      2  C   UNL     1      -1.364  -3.139  -5.365  0.00  0.00    +0.025 A 
ATOM      3  C   UNL     1      -1.271  -3.997  -6.441  0.00  0.00    +0.025 A 
ATOM      4  C   UNL     1      -0.376  -3.731  -7.470  0.00  0.00    +0.042 A 
ATOM      5  C   UNL     1       0.433  -2.586  -7.411  0.00  0.00    +0.059 A 
ATOM      6  C   UNL     1       0.328  -1.720  -6.320  0.00  0.00    +0.038 A 
ENDROOT
BRANCH   1  10
ATOM      7  N   UNL     1      -0.915  -0.811  -1.905  0.00  0.00    -0.269 N 
ATOM      8  C   UNL     1      -0.907  -1.633  -2.973  0.00  0.00    +0.308 C 
ATOM      9  O   UNL     1      -1.115  -2.822  -2.828  0.00  0.00    -0.252 OA
ATOM     10  N   UNL     1      -0.668  -1.136  -4.203  0.00  0.00    -0.269 N 
ATOM     11  H   UNL     1      -0.831   0.147  -2.029  0.00  0.00    +0.156 HD
ATOM     12  H   UNL     1      -0.568  -0.179  -4.329  0.00  0.00    +0.156 HD
BRANCH   7  18
ATOM     13  C   UNL     1      -0.066  -1.097   0.338  0.00  0.00    -0.023 A 
ATOM     14  C   UNL     1      -0.199  -1.617   1.611  0.00  0.00    +0.006 A 
ATOM     15  C   UNL     1      -1.303  -2.385   1.933  0.00  0.00    +0.001 A 
ATOM     16  C   UNL     1      -2.276  -2.635   0.984  0.00  0.00    +0.006 A 
ATOM     17  C   UNL     1      -2.149  -2.118  -0.291  0.00  0.00    -0.023 A 
ATOM     18  C   UNL     1      -1.044  -1.341  -0.616  0.00  0.00    +0.042 A 
BRANCH  13  20
ATOM     19  C   UNL     1       1.188   0.968   0.901  0.00  0.00    +0.012 C 
ATOM     20  C   UNL     1       1.137  -0.259  -0.012  0.00  0.00    +0.015 C 
ATOM     21  C   UNL     1       2.409  -1.089   0.177  0.00  0.00    +0.012 C 
ENDBRANCH  13  20
BRANCH  17  22
ATOM     22  C   UNL     1      -3.210  -2.390  -1.325  0.00  0.00    +0.015 C 
ATOM     23  C   UNL     1      -3.815  -3.775  -1.082  0.00  0.00    +0.012 C 
ATOM     24  C   UNL     1      -4.308  -1.329  -1.222  0.00  0.00    +0.012 C 
ENDBRANCH  17  22
ENDBRANCH   7  18
ENDBRANCH   1  10
BRANCH   5  25
ATOM     25  C   UNL     1       1.387  -2.296  -8.498  0.00  0.00    +0.246 C 
ATOM     26  O   UNL     1       1.473  -3.050  -9.448  0.00  0.00    -0.270 OA
ATOM     27  N   UNL     1       2.162  -1.195  -8.438  0.00  0.00    -0.307 N 
ATOM     28  H   UNL     1       2.093  -0.594  -7.680  0.00  0.00    +0.149 HD
BRANCH  27  29
ATOM     29  C   UNL     1       3.109  -0.907  -9.518  0.00  0.00    +0.141 C 
BRANCH  29  30
ATOM     30  C   UNL     1       3.848   0.370  -9.211  0.00  0.00    -0.012 A 
ATOM     31  C   UNL     1       3.346   1.591  -9.635  0.00  0.00    +0.008 A 
ATOM     32  C   UNL     1       4.059   2.740  -9.330  0.00  0.00    +0.020 A 
ATOM     33  C   UNL     1       5.238   2.631  -8.618  0.00  0.00    +0.111 A 
ATOM     34  N   UNL     1       5.686   1.453  -8.230  0.00  0.00    -0.263 NA
ATOM     35  C   UNL     1       5.031   0.340  -8.498  0.00  0.00    +0.115 A 
ENDBRANCH  29  30
ENDBRANCH  27  29
ENDBRANCH   5  25
BRANCH   4  36
ATOM     36  N   UNL     1      -0.281  -4.597  -8.554  0.00  0.00    -0.335 N 
ATOM     37  C   UNL     1      -1.127  -4.390  -9.732  0.00  0.00    +0.129 C 
ATOM     38  C   UNL     1       0.663  -5.716  -8.517  0.00  0.00    +0.129 C 
ENDBRANCH   4  36
TORSDOF 8
