REMARK  Name = ZINC62824326
REMARK  3 active torsions:
REMARK  status: ('A' for Active; 'I' for Inactive)
REMARK    1  A    between atoms: C_3  and  N_18
REMARK    2  A    between atoms: C_4  and  C_8
REMARK    3  A    between atoms: C_10  and  C_13
REMARK                            x       y       z     vdW  Elec       q    Type
REMARK                         _______ _______ _______ _____ _____    ______ ____
ROOT
ATOM      1  C   UNL     1      -0.084   1.223  -0.152  0.00  0.00    +0.016 A 
ATOM      2  C   UNL     1       0.936   1.684  -0.960  0.00  0.00    +0.024 A 
ATOM      3  C   UNL     1       2.219   1.171  -0.821  0.00  0.00    +0.037 A 
ATOM      4  C   UNL     1       2.472   0.184   0.143  0.00  0.00    +0.061 A 
ATOM      5  C   UNL     1       1.431  -0.272   0.954  0.00  0.00    +0.029 A 
ATOM      6  C   UNL     1       0.163   0.249   0.802  0.00  0.00    +0.014 A 
ATOM      7  I   UNL     1      -1.399  -0.438   2.018  0.00  0.00    -0.044 I 
ENDROOT
BRANCH   4   8
ATOM      8  C   UNL     1       3.831  -0.369   0.300  0.00  0.00    +0.261 A 
ATOM      9  N   UNL     1       4.138  -1.643   0.394  0.00  0.00    -0.187 NA
ATOM     10  C   UNL     1       5.466  -1.785   0.527  0.00  0.00    +0.203 A 
ATOM     11  N   UNL     1       6.022  -0.596   0.519  0.00  0.00    -0.056 NA
ATOM     12  O   UNL     1       4.970   0.344   0.366  0.00  0.00    -0.332 OA
BRANCH  10  13
ATOM     13  C   UNL     1       6.187  -3.073   0.662  0.00  0.00    +0.029 A 
ATOM     14  C   UNL     1       7.575  -3.107   0.800  0.00  0.00    +0.019 A 
ATOM     15  C   UNL     1       8.136  -4.331   0.916  0.00  0.00    +0.046 A 
ATOM     16  S   UNL     1       6.720  -5.409   0.829  0.00  0.00    -0.104 S 
ATOM     17  C   UNL     1       5.511  -4.256   0.659  0.00  0.00    +0.057 A 
ENDBRANCH  10  13
ENDBRANCH   4   8
BRANCH   3  18
ATOM     18  N   UNL     1       3.248   1.634  -1.635  0.00  0.00    -0.357 N 
ATOM     19  H   UNL     1       3.093   2.378  -2.237  0.00  0.00    +0.142 HD
ATOM     20  H   UNL     1       4.121   1.211  -1.601  0.00  0.00    +0.142 HD
ENDBRANCH   3  18
TORSDOF 3
