REMARK  Name = ZINC47146902
REMARK  6 active torsions:
REMARK  status: ('A' for Active; 'I' for Inactive)
REMARK    1  A    between atoms: C_1  and  C_2
REMARK    2  A    between atoms: C_7  and  C_8
REMARK    3  A    between atoms: C_8  and  O_9
REMARK    4  A    between atoms: O_9  and  C_10
REMARK    5  A    between atoms: C_13  and  C_16
REMARK    6  A    between atoms: N_32  and  C_35
REMARK                            x       y       z     vdW  Elec       q    Type
REMARK                         _______ _______ _______ _____ _____    ______ ____
ROOT
ATOM      1  C   UNL     1       0.069   1.235   8.802  0.00  0.00    +0.072 C 
ATOM      2  C   UNL     1      -1.226   0.896   9.447  0.00  0.00    +0.033 A 
ATOM      3  C   UNL     1      -1.448   0.389  10.674  0.00  0.00    +0.088 A 
ATOM      4  N   UNL     1      -2.775   0.214  10.997  0.00  0.00    -0.311 N 
ATOM      5  H   UNL     1      -3.020  -0.129  11.870  0.00  0.00    +0.170 HD
ATOM      6  C   UNL     1      -3.732   0.519  10.102  0.00  0.00    +0.289 A 
ATOM      7  O   UNL     1      -4.941   0.419  10.224  0.00  0.00    -0.260 OA
ATOM      8  S   UNL     1      -2.860   1.071   8.775  0.00  0.00    -0.030 S 
ATOM      9  S   UNL     1      -0.105  -0.033  11.752  0.00  0.00    -0.093 S 
ATOM     10  C   UNL     1       1.324   0.834  11.029  0.00  0.00    +0.152 C 
ATOM     11  C   UNL     1       1.278   0.740   9.499  0.00  0.00    +0.110 C 
ATOM     12  C   UNL     1       1.770  -0.645   9.218  0.00  0.00    +0.232 C 
ATOM     13  O   UNL     1       1.505  -1.333   8.255  0.00  0.00    -0.274 OA
ATOM     14  N   UNL     1       2.572  -0.973  10.258  0.00  0.00    -0.209 N 
ATOM     15  C   UNL     1       2.530  -0.089  11.279  0.00  0.00    +0.240 C 
ATOM     16  O   UNL     1       3.292  -0.038  12.219  0.00  0.00    -0.274 OA
ENDROOT
BRANCH   1  20
ATOM     17  C   UNL     1       0.053  -0.377   4.844  0.00  0.00    +0.121 A 
ATOM     18  C   UNL     1       0.725   0.807   5.109  0.00  0.00    +0.046 A 
ATOM     19  C   UNL     1       0.728   1.327   6.389  0.00  0.00    +0.008 A 
ATOM     20  C   UNL     1       0.063   0.667   7.406  0.00  0.00    -0.038 A 
ATOM     21  C   UNL     1      -0.607  -0.514   7.144  0.00  0.00    +0.008 A 
ATOM     22  C   UNL     1      -0.618  -1.034   5.865  0.00  0.00    +0.046 A 
BRANCH  17  23
ATOM     23  O   UNL     1       0.048  -0.890   3.585  0.00  0.00    -0.487 OA
BRANCH  23  24
ATOM     24  C   UNL     1       0.760  -0.159   2.585  0.00  0.00    +0.264 C 
BRANCH  24  31
ATOM     25  C   UNL     1       2.040   0.931   0.235  0.00  0.00    +0.044 C 
ATOM     26  C   UNL     1       1.256  -0.352   0.139  0.00  0.00    -0.044 A 
ATOM     27  C   UNL     1       1.154  -1.011  -1.072  0.00  0.00    +0.004 A 
ATOM     28  C   UNL     1       0.435  -2.188  -1.160  0.00  0.00    +0.000 A 
ATOM     29  C   UNL     1      -0.181  -2.708  -0.037  0.00  0.00    +0.000 A 
ATOM     30  C   UNL     1      -0.079  -2.050   1.174  0.00  0.00    +0.007 A 
ATOM     31  C   UNL     1       0.644  -0.874   1.263  0.00  0.00    -0.007 A 
ENDBRANCH  24  31
ENDBRANCH  23  24
ENDBRANCH  17  23
ENDBRANCH   1  20
BRANCH  14  32
ATOM     32  C   UNL     1       3.379  -2.119  10.271  0.00  0.00    +0.044 A 
ATOM     33  C   UNL     1       3.385  -2.977   9.179  0.00  0.00    +0.024 A 
ATOM     34  C   UNL     1       4.182  -4.106   9.194  0.00  0.00    +0.002 A 
ATOM     35  C   UNL     1       4.973  -4.381  10.295  0.00  0.00    +0.000 A 
ATOM     36  C   UNL     1       4.968  -3.528  11.383  0.00  0.00    +0.002 A 
ATOM     37  C   UNL     1       4.178  -2.395  11.372  0.00  0.00    +0.024 A 
ENDBRANCH  14  32
TORSDOF 5
