REMARK  Name = ZINC40322235
REMARK  9 active torsions:
REMARK  status: ('A' for Active; 'I' for Inactive)
REMARK    1  A    between atoms: C_1  and  O_2
REMARK    2  A    between atoms: O_2  and  C_3
REMARK    3  A    between atoms: C_6  and  C_9
REMARK    4  A    between atoms: C_9  and  C_11
REMARK    5  A    between atoms: C_9  and  N_30
REMARK    6  A    between atoms: C_11  and  N_12
REMARK    7  A    between atoms: C_13  and  C_15
REMARK    8  A    between atoms: C_18  and  S_20
REMARK    9  A    between atoms: S_20  and  C_23
REMARK                            x       y       z     vdW  Elec       q    Type
REMARK                         _______ _______ _______ _____ _____    ______ ____
ROOT
ATOM      1  N   UNL     1      -3.948  -3.888  -1.782  0.00  0.00    -0.310 N 
ATOM      2  C   UNL     1      -3.795  -4.313  -3.051  0.00  0.00    +0.279 C 
ATOM      3  O   UNL     1      -4.623  -4.022  -3.894  0.00  0.00    -0.267 OA
ATOM      4  H   UNL     1      -3.288  -4.120  -1.110  0.00  0.00    +0.149 HD
ENDROOT
BRANCH   2   5
ATOM      5  C   UNL     1      -2.630  -5.126  -3.417  0.00  0.00    +0.192 A 
ATOM      6  C   UNL     1      -2.352  -5.614  -4.661  0.00  0.00    +0.056 A 
ATOM      7  C   UNL     1      -1.149  -6.329  -4.554  0.00  0.00    +0.070 A 
ATOM      8  C   UNL     1      -0.750  -6.247  -3.265  0.00  0.00    +0.246 A 
ATOM      9  O   UNL     1      -1.643  -5.516  -2.585  0.00  0.00    -0.433 OA
BRANCH   8  10
ATOM     10  S   UNL     1       0.706  -6.975  -2.593  0.00  0.00    +0.058 S 
ATOM     11  O   UNL     1       0.473  -7.138  -1.201  0.00  0.00    -0.161 OA
ATOM     12  O   UNL     1       1.045  -8.063  -3.441  0.00  0.00    -0.161 OA
BRANCH  10  13
ATOM     13  C   UNL     1       2.001  -5.791  -2.751  0.00  0.00    +0.097 A 
ATOM     14  C   UNL     1       2.781  -5.768  -3.892  0.00  0.00    +0.029 A 
ATOM     15  C   UNL     1       3.797  -4.839  -4.017  0.00  0.00    +0.022 A 
ATOM     16  C   UNL     1       4.034  -3.933  -2.999  0.00  0.00    +0.041 A 
ATOM     17  C   UNL     1       3.254  -3.957  -1.856  0.00  0.00    +0.022 A 
ATOM     18  C   UNL     1       2.234  -4.882  -1.735  0.00  0.00    +0.029 A 
ATOM     19 CL   UNL     1       5.311  -2.767  -3.154  0.00  0.00    -0.084 Cl
ENDBRANCH  10  13
ENDBRANCH   8  10
ENDBRANCH   2   5
BRANCH   1  20
ATOM     20  C   UNL     1      -5.112  -3.076  -1.416  0.00  0.00    +0.094 C 
BRANCH  20  21
ATOM     21  C   UNL     1      -4.979  -2.620   0.038  0.00  0.00    -0.020 C 
BRANCH  21  22
ATOM     22  N   UNL     1      -4.768  -3.790   0.901  0.00  0.00    +0.385 N 
ATOM     23  C   UNL     1      -5.928  -4.692   0.767  0.00  0.00    -0.078 C 
ATOM     24  C   UNL     1      -5.486  -6.088   1.125  0.00  0.00    -0.019 C 
ATOM     25  C   UNL     1      -5.802  -6.420   2.595  0.00  0.00    -0.002 C 
ATOM     26  C   UNL     1      -5.511  -5.226   3.527  0.00  0.00    -0.002 C 
ATOM     27  C   UNL     1      -4.232  -4.515   3.167  0.00  0.00    -0.019 C 
ATOM     28  C   UNL     1      -4.557  -3.349   2.209  0.00  0.00    -0.078 C 
ATOM     29  H   UNL     1      -3.943  -4.278   0.587  0.00  0.00    -0.081 HD
ENDBRANCH  21  22
BRANCH  21  33
ATOM     30  C   UNL     1      -1.649   0.035   0.399  0.00  0.00    +0.120 A 
ATOM     31  C   UNL     1      -2.938   0.543   0.321  0.00  0.00    +0.046 A 
ATOM     32  C   UNL     1      -4.012  -0.317   0.204  0.00  0.00    +0.005 A 
ATOM     33  C   UNL     1      -3.805  -1.684   0.165  0.00  0.00    -0.059 A 
ATOM     34  C   UNL     1      -2.521  -2.193   0.244  0.00  0.00    +0.005 A 
ATOM     35  C   UNL     1      -1.443  -1.336   0.355  0.00  0.00    +0.046 A 
BRANCH  30  37
ATOM     36  C   UNL     1      -0.878   2.278   0.554  0.00  0.00    +0.277 C 
ATOM     37  O   UNL     1      -0.591   0.879   0.514  0.00  0.00    -0.495 OA
ENDBRANCH  30  37
ENDBRANCH  21  33
ENDBRANCH  20  21
ENDBRANCH   1  20
TORSDOF 8
