REMARK  Name = ZINC67648135
REMARK  13 active torsions:
REMARK  status: ('A' for Active; 'I' for Inactive)
REMARK    1  A    between atoms: C_1  and  C_2
REMARK    2  A    between atoms: C_2  and  C_3
REMARK    3  A    between atoms: C_3  and  C_5
REMARK    4  A    between atoms: C_3  and  C_6
REMARK    5  A    between atoms: C_6  and  C_8
REMARK    6  A    between atoms: C_6  and  N_21
REMARK    7  A    between atoms: N_10  and  N_11
REMARK    8  A    between atoms: N_14  and  C_15
REMARK    9  A    between atoms: C_15  and  C_16
REMARK   10  A    between atoms: C_16  and  C_17
REMARK   11  A    between atoms: C_17  and  O_18
REMARK   12  A    between atoms: O_18  and  C_19
REMARK   13  A    between atoms: C_19  and  C_20
REMARK                            x       y       z     vdW  Elec       q    Type
REMARK                         _______ _______ _______ _____ _____    ______ ____
ROOT
ATOM      1  C   UNL     1      -0.532  -2.486  -1.423  0.00  0.00    +0.250 C 
ATOM      2  O   UNL     1      -1.075  -3.110  -0.535  0.00  0.00    -0.272 OA
ATOM      3  N   UNL     1      -1.171  -2.284  -2.592  0.00  0.00    -0.232 N 
ATOM      4  H   UNL     1      -0.768  -1.725  -3.275  0.00  0.00    +0.173 HD
ENDROOT
BRANCH   3   5
ATOM      5  N   UNL     1      -2.416  -2.883  -2.823  0.00  0.00    -0.218 N 
ATOM      6  C   UNL     1      -3.055  -2.681  -3.992  0.00  0.00    +0.316 C 
ATOM      7  O   UNL     1      -4.136  -3.200  -4.192  0.00  0.00    -0.251 OA
ATOM      8  N   UNL     1      -2.495  -1.904  -4.941  0.00  0.00    -0.298 N 
ATOM      9  H   UNL     1      -2.819  -3.442  -2.140  0.00  0.00    +0.174 HD
ATOM     10  H   UNL     1      -1.632  -1.490  -4.781  0.00  0.00    +0.150 HD
BRANCH   8  11
ATOM     11  C   UNL     1      -3.189  -1.685  -6.212  0.00  0.00    +0.108 C 
BRANCH  11  12
ATOM     12  C   UNL     1      -2.344  -0.773  -7.104  0.00  0.00    +0.047 C 
BRANCH  12  13
ATOM     13  C   UNL     1      -3.069  -0.545  -8.432  0.00  0.00    +0.161 C 
BRANCH  13  14
ATOM     14  O   UNL     1      -2.280   0.307  -9.265  0.00  0.00    -0.380 OA
BRANCH  14  15
ATOM     15  C   UNL     1      -2.870   0.586 -10.536  0.00  0.00    +0.156 C 
ATOM     16  C   UNL     1      -1.943   1.501 -11.339  0.00  0.00    +0.034 C 
ENDBRANCH  14  15
ENDBRANCH  13  14
ENDBRANCH  12  13
ENDBRANCH  11  12
ENDBRANCH   8  11
ENDBRANCH   3   5
BRANCH   1  17
ATOM     17  C   UNL     1       0.856  -1.936  -1.218  0.00  0.00    +0.165 C 
BRANCH  17  18
ATOM     18  N   UNL     1       1.556  -2.740  -0.214  0.00  0.00    -0.288 N 
ATOM     19  C   UNL     1       2.903  -2.792  -0.211  0.00  0.00    +0.298 C 
ATOM     20  O   UNL     1       3.537  -2.170  -1.042  0.00  0.00    -0.253 OA
ATOM     21  N   UNL     1       3.548  -3.532   0.712  0.00  0.00    -0.313 N 
ATOM     22  H   UNL     1       1.051  -3.236   0.449  0.00  0.00    +0.151 HD
ATOM     23  H   UNL     1       3.043  -4.028   1.375  0.00  0.00    +0.146 HD
ATOM     24  H   UNL     1       4.517  -3.569   0.714  0.00  0.00    +0.146 HD
ENDBRANCH  17  18
BRANCH  17  25
ATOM     25  C   UNL     1       0.764  -0.486  -0.736  0.00  0.00    +0.015 C 
ATOM     26  C   UNL     1       0.119  -0.450   0.651  0.00  0.00    +0.010 C 
BRANCH  25  28
ATOM     27  C   UNL     1       2.068   1.600  -0.300  0.00  0.00    +0.004 C 
ATOM     28  C   UNL     1       2.168   0.116  -0.661  0.00  0.00    +0.002 C 
ENDBRANCH  25  28
ENDBRANCH  17  25
ENDBRANCH   1  17
TORSDOF 10
