REMARK  Name = ZINC01886611
REMARK  5 active torsions:
REMARK  status: ('A' for Active; 'I' for Inactive)
REMARK    1  A    between atoms: C_4  and  C_7
REMARK    2  A    between atoms: C_7  and  C_8
REMARK    3  A    between atoms: C_7  and  N_73
REMARK    4  A    between atoms: N_29  and  C_30
REMARK    5  A    between atoms: C_31  and  C_39
REMARK                            x       y       z     vdW  Elec       q    Type
REMARK                         _______ _______ _______ _____ _____    ______ ____
ROOT
ATOM      1  C   UNL     1     -10.902  -0.182   1.541  0.00  0.00    -0.058 C 
ATOM      2  C   UNL     1      -9.736  -0.132   2.530  0.00  0.00    +0.088 C 
ATOM      3  N   UNL     1      -8.484  -0.444   1.826  0.00  0.00    -0.316 N 
ATOM      4  C   UNL     1      -8.242   0.515   0.739  0.00  0.00    +0.088 C 
ATOM      5  C   UNL     1      -9.409   0.465  -0.251  0.00  0.00    -0.058 C 
ATOM      6  C   UNL     1      -7.413  -0.478   2.706  0.00  0.00    +0.162 A 
ATOM      7  C   UNL     1      -6.607  -1.639   2.788  0.00  0.00    +0.164 A 
ATOM      8  N   UNL     1      -5.590  -1.686   3.624  0.00  0.00    -0.227 NA
ATOM      9  C   UNL     1      -5.311  -0.624   4.394  0.00  0.00    +0.091 A 
ATOM     10  C   UNL     1      -4.230  -0.649   5.290  0.00  0.00    +0.030 A 
ATOM     11  C   UNL     1      -3.970   0.440   6.066  0.00  0.00    +0.002 A 
ATOM     12  C   UNL     1      -4.763   1.581   5.985  0.00  0.00    +0.002 A 
ATOM     13  C   UNL     1      -5.820   1.639   5.128  0.00  0.00    +0.030 A 
ATOM     14  C   UNL     1      -6.117   0.536   4.312  0.00  0.00    +0.091 A 
ATOM     15  N   UNL     1      -7.153   0.569   3.460  0.00  0.00    -0.227 NA
ATOM     16  N   UNL     1      -6.893  -2.735   1.987  0.00  0.00    -0.290 N 
ATOM     17  H   UNL     1      -7.643  -2.705   1.373  0.00  0.00    +0.154 HD
ATOM     18  N   UNL     1     -10.657   0.802   0.465  0.00  0.00    +0.389 N 
ATOM     19  H   UNL     1     -10.560   1.735   0.883  0.00  0.00    -0.080 HD
ENDROOT
BRANCH  16  20
ATOM     20  C   UNL     1      -6.108  -3.873   2.065  0.00  0.00    +0.089 A 
ATOM     21  C   UNL     1      -6.234  -5.058   1.354  0.00  0.00    +0.084 A 
ATOM     22  C   UNL     1      -5.269  -6.110   1.625  0.00  0.00    -0.018 A 
ATOM     23  C   UNL     1      -4.339  -5.811   2.559  0.00  0.00    -0.004 A 
ATOM     24  S   UNL     1      -4.729  -4.163   3.074  0.00  0.00    -0.077 S 
ATOM     25  C   UNL     1      -3.227  -6.693   3.045  0.00  0.00    +0.043 C 
ATOM     26  C   UNL     1      -3.522  -8.131   2.592  0.00  0.00    +0.005 C 
ATOM     27  C   UNL     1      -3.901  -8.116   1.109  0.00  0.00    +0.005 C 
ATOM     28  C   UNL     1      -5.274  -7.465   0.928  0.00  0.00    +0.037 C 
BRANCH  21  29
ATOM     29  C   UNL     1      -7.276  -5.237   0.388  0.00  0.00    +0.102 C 
ATOM     30  N   UNL     1      -8.102  -5.379  -0.379  0.00  0.00    -0.191 NA
ENDBRANCH  21  29
ENDBRANCH  16  20
BRANCH  18  31
ATOM     31  C   UNL     1     -11.794   0.813  -0.479  0.00  0.00    -0.007 C 
BRANCH  31  35
ATOM     32  C   UNL     1     -15.368   1.755   1.663  0.00  0.00    +0.000 A 
ATOM     33  C   UNL     1     -15.385   0.776   0.688  0.00  0.00    +0.000 A 
ATOM     34  C   UNL     1     -14.228   0.471  -0.005  0.00  0.00    +0.002 A 
ATOM     35  C   UNL     1     -13.055   1.145   0.277  0.00  0.00    -0.057 A 
ATOM     36  C   UNL     1     -13.037   2.121   1.256  0.00  0.00    +0.002 A 
ATOM     37  C   UNL     1     -14.195   2.430   1.945  0.00  0.00    +0.000 A 
ENDBRANCH  31  35
BRANCH  31  38
ATOM     38  C   UNL     1     -11.547   1.863  -1.531  0.00  0.00    -0.057 A 
ATOM     39  C   UNL     1     -11.103   3.119  -1.162  0.00  0.00    +0.002 A 
ATOM     40  C   UNL     1     -10.871   4.082  -2.127  0.00  0.00    +0.000 A 
ATOM     41  C   UNL     1     -11.094   3.791  -3.460  0.00  0.00    +0.000 A 
ATOM     42  C   UNL     1     -11.543   2.537  -3.828  0.00  0.00    +0.000 A 
ATOM     43  C   UNL     1     -11.770   1.573  -2.864  0.00  0.00    +0.002 A 
ENDBRANCH  31  38
ENDBRANCH  18  31
TORSDOF 5
