REMARK  Name = ZINC21171659
REMARK  9 active torsions:
REMARK  status: ('A' for Active; 'I' for Inactive)
REMARK    1  A    between atoms: C_1  and  C_2
REMARK    2  A    between atoms: C_2  and  C_3
REMARK    3  A    between atoms: C_8  and  N_9
REMARK    4  A    between atoms: C_12  and  C_17
REMARK    5  A    between atoms: C_17  and  S_18
REMARK    6  A    between atoms: S_18  and  C_19
REMARK    7  A    between atoms: C_22  and  C_25
REMARK    8  A    between atoms: N_23  and  N_24
REMARK    9  A    between atoms: C_29  and  C_30
REMARK                            x       y       z     vdW  Elec       q    Type
REMARK                         _______ _______ _______ _____ _____    ______ ____
ROOT
ATOM      1  N   UNL     1       2.366   6.246  -2.334  0.00  0.00    -0.283 N 
ATOM      2  C   UNL     1       2.271   5.560  -1.139  0.00  0.00    +0.224 A 
ATOM      3  N   UNL     1       2.057   4.246  -1.141  0.00  0.00    -0.198 NA
ATOM      4  C   UNL     1       1.960   3.589   0.002  0.00  0.00    +0.146 A 
ATOM      5  N   UNL     1       2.085   4.232   1.150  0.00  0.00    -0.199 NA
ATOM      6  C   UNL     1       2.303   5.545   1.159  0.00  0.00    +0.217 A 
ATOM      7  N   UNL     1       2.396   6.209   0.013  0.00  0.00    -0.181 NA
ATOM      8  N   UNL     1       2.433   6.215   2.359  0.00  0.00    -0.327 N 
ATOM      9  H   UNL     1       2.358   5.696  -3.287  0.00  0.00    +0.155 HD
ATOM     10  H   UNL     1       2.614   7.300   2.365  0.00  0.00    +0.145 HD
ATOM     11  H   UNL     1       2.356   5.665   3.308  0.00  0.00    +0.145 HD
ENDROOT
BRANCH   1  17
ATOM     12  C   UNL     1       3.062   8.294  -3.407  0.00  0.00    -0.026 A 
ATOM     13  C   UNL     1       3.164   9.671  -3.403  0.00  0.00    +0.005 A 
ATOM     14  C   UNL     1       2.680  10.399  -2.332  0.00  0.00    +0.000 A 
ATOM     15  C   UNL     1       2.092   9.751  -1.261  0.00  0.00    +0.002 A 
ATOM     16  C   UNL     1       1.982   8.375  -1.261  0.00  0.00    +0.023 A 
ATOM     17  C   UNL     1       2.472   7.640  -2.333  0.00  0.00    +0.037 A 
BRANCH  12  19
ATOM     18  C   UNL     1       2.452   7.223  -5.559  0.00  0.00    +0.009 C 
ATOM     19  C   UNL     1       3.590   7.502  -4.575  0.00  0.00    +0.033 C 
ENDBRANCH  12  19
ENDBRANCH   1  17
BRANCH   4  20
ATOM     20  C   UNL     1       1.712   2.103  -0.004  0.00  0.00    +0.153 C 
BRANCH  20  21
ATOM     21  S   UNL     1      -0.070   1.788   0.020  0.00  0.00    -0.077 S 
BRANCH  21  22
ATOM     22  C   UNL     1      -0.069   0.026   0.008  0.00  0.00    +0.209 A 
ATOM     23  N   UNL     1       0.988  -0.753  -0.017  0.00  0.00    -0.121 NA
ATOM     24  N   UNL     1       0.628  -1.986  -0.014  0.00  0.00    -0.127 NA
ATOM     25  C   UNL     1      -0.682  -2.071   0.004  0.00  0.00    +0.185 A 
ATOM     26  N   UNL     1      -1.170  -0.786   0.019  0.00  0.00    -0.224 N 
BRANCH  25  27
ATOM     27  C   UNL     1      -1.482  -3.315   0.007  0.00  0.00    +0.061 A 
ATOM     28  C   UNL     1      -2.946  -3.428   0.025  0.00  0.00    +0.053 A 
ATOM     29  C   UNL     1      -3.217  -4.743   0.020  0.00  0.00    +0.196 A 
ATOM     30  O   UNL     1      -2.063  -5.428  -0.000  0.00  0.00    -0.467 OA
ATOM     31  C   UNL     1      -1.015  -4.593  -0.014  0.00  0.00    +0.112 A 
ATOM     32  C   UNL     1       0.436  -5.000  -0.043  0.00  0.00    +0.087 C 
ENDBRANCH  25  27
BRANCH  26  33
ATOM     33  N   UNL     1      -2.480  -0.400   0.040  0.00  0.00    -0.295 N 
ATOM     34  H   UNL     1      -3.277  -1.158   0.046  0.00  0.00    +0.163 HD
ATOM     35  H   UNL     1      -2.738   0.669   0.050  0.00  0.00    +0.163 HD
ENDBRANCH  26  33
ENDBRANCH  21  22
ENDBRANCH  20  21
ENDBRANCH   4  20
TORSDOF 7
