REMARK  Name = ZINC00646276
REMARK  4 active torsions:
REMARK  status: ('A' for Active; 'I' for Inactive)
REMARK    1  A    between atoms: C_1  and  S_2
REMARK    2  A    between atoms: S_2  and  C_5
REMARK    3  A    between atoms: N_17  and  C_18
REMARK    4  A    between atoms: C_18  and  C_28
REMARK                            x       y       z     vdW  Elec       q    Type
REMARK                         _______ _______ _______ _____ _____    ______ ____
ROOT
ATOM      1  C   UNL     1       0.845  -0.437  -1.483  0.00  0.00    +0.090 A 
ATOM      2  C   UNL     1       0.117  -0.610  -2.651  0.00  0.00    +0.028 A 
ATOM      3  C   UNL     1       0.777  -0.950  -3.817  0.00  0.00    +0.019 A 
ATOM      4  C   UNL     1       2.140  -1.111  -3.802  0.00  0.00    +0.041 A 
ATOM      5  C   UNL     1       2.915  -0.944  -2.632  0.00  0.00    +0.082 A 
ATOM      6  C   UNL     1       2.207  -0.591  -1.460  0.00  0.00    +0.056 A 
ATOM      7  N   UNL     1       4.243  -1.138  -2.777  0.00  0.00    -0.224 NA
ATOM      8  C   UNL     1       4.787  -1.461  -3.928  0.00  0.00    +0.167 A 
ATOM      9  S   UNL     1       3.370  -1.531  -5.013  0.00  0.00    -0.052 S 
ATOM     10  N   UNL     1       6.121  -1.689  -4.224  0.00  0.00    -0.248 N 
ATOM     11  C   UNL     1       6.486  -2.014  -5.480  0.00  0.00    +0.311 C 
ATOM     12  O   UNL     1       5.645  -2.107  -6.353  0.00  0.00    -0.252 OA
ATOM     13  N   UNL     1       7.784  -2.236  -5.769  0.00  0.00    -0.220 N 
ATOM     14  H   UNL     1       6.792  -1.615  -3.528  0.00  0.00    +0.158 HD
ATOM     15  H   UNL     1       8.455  -2.161  -5.073  0.00  0.00    +0.158 HD
ENDROOT
BRANCH  13  16
ATOM     16  C   UNL     1       8.180  -2.589  -7.134  0.00  0.00    +0.436 C 
ATOM     17  O   UNL     1       7.449  -3.742  -7.591  0.00  0.00    -0.426 OA
ATOM     18  C   UNL     1       6.339  -3.247  -8.213  0.00  0.00    +0.169 A 
ATOM     19  C   UNL     1       5.140  -3.845  -8.565  0.00  0.00    +0.051 A 
ATOM     20  C   UNL     1       4.159  -3.107  -9.200  0.00  0.00    +0.024 A 
ATOM     21  C   UNL     1       4.370  -1.770  -9.484  0.00  0.00    +0.045 A 
ATOM     22  C   UNL     1       5.565  -1.166  -9.135  0.00  0.00    +0.069 A 
ATOM     23  C   UNL     1       6.552  -1.901  -8.499  0.00  0.00    +0.170 A 
ATOM     24  O   UNL     1       7.796  -1.552  -8.057  0.00  0.00    -0.426 OA
ATOM     25 CL   UNL     1       3.134  -0.848 -10.281  0.00  0.00    -0.083 Cl
BRANCH  16  26
ATOM     26  C   UNL     1       9.688  -2.841  -7.206  0.00  0.00    +0.490 C 
ATOM     27  F   UNL     1      10.026  -3.893  -6.348  0.00  0.00    -0.162 F 
ATOM     28  F   UNL     1      10.042  -3.176  -8.518  0.00  0.00    -0.162 F 
ATOM     29  F   UNL     1      10.373  -1.684  -6.819  0.00  0.00    -0.162 F 
ENDBRANCH  16  26
ENDBRANCH  13  16
BRANCH   1  31
ATOM     30  C   UNL     1      -0.022   1.810   0.012  0.00  0.00    +0.200 C 
ATOM     31  S   UNL     1       0.002  -0.004   0.002  0.00  0.00    -0.006 S 
ATOM     32  O   UNL     1       0.835  -0.488   1.046  0.00  0.00    -0.170 OA
ATOM     33  O   UNL     1      -1.315  -0.510  -0.168  0.00  0.00    -0.170 OA
ENDBRANCH   1  31
TORSDOF 3
