REMARK  Name = ZINC65408843
REMARK  10 active torsions:
REMARK  status: ('A' for Active; 'I' for Inactive)
REMARK    1  A    between atoms: C_1  and  C_2
REMARK    2  A    between atoms: C_5  and  C_8
REMARK    3  A    between atoms: C_8  and  C_14
REMARK    4  A    between atoms: C_14  and  N_15
REMARK    5  A    between atoms: N_15  and  C_16
REMARK    6  A    between atoms: N_15  and  C_17
REMARK    7  A    between atoms: C_17  and  C_18
REMARK    8  A    between atoms: C_18  and  C_19
REMARK    9  A    between atoms: C_20  and  C_26
REMARK   10  A    between atoms: C_23  and  C_25
REMARK                            x       y       z     vdW  Elec       q    Type
REMARK                         _______ _______ _______ _____ _____    ______ ____
ROOT
ATOM      1  C   UNL     1       1.278  -4.325   1.002  0.00  0.00    -0.005 C 
ATOM      2  C   UNL     1       2.682  -4.934   0.920  0.00  0.00    -0.008 C 
ATOM      3  C   UNL     1       3.624  -4.152   1.838  0.00  0.00    -0.082 C 
ATOM      4  N   UNL     1       3.673  -2.748   1.414  0.00  0.00    +0.379 N 
ATOM      5  C   UNL     1       2.346  -2.138   1.558  0.00  0.00    -0.082 C 
ATOM      6  C   UNL     1       1.353  -2.842   0.629  0.00  0.00    -0.008 C 
ATOM      7  H   UNL     1       4.336  -2.247   1.987  0.00  0.00    -0.086 HD
ATOM      8  H   UNL     1       3.962  -2.699   0.448  0.00  0.00    -0.086 HD
ENDROOT
BRANCH   1  13
ATOM      9  C   UNL     1      -2.248  -7.091  -2.574  0.00  0.00    +0.045 C 
ATOM     10  C   UNL     1      -1.305  -6.346  -1.664  0.00  0.00    -0.032 A 
ATOM     11  C   UNL     1      -0.376  -5.460  -2.189  0.00  0.00    +0.006 A 
ATOM     12  C   UNL     1       0.471  -4.798  -1.315  0.00  0.00    +0.024 A 
ATOM     13  C   UNL     1       0.363  -5.040   0.042  0.00  0.00    +0.046 A 
ATOM     14  N   UNL     1      -0.532  -5.890   0.506  0.00  0.00    -0.259 NA
ATOM     15  C   UNL     1      -1.359  -6.534  -0.296  0.00  0.00    +0.114 A 
ENDBRANCH   1  13
BRANCH   1  16
ATOM     16  C   UNL     1       0.739  -4.469   2.426  0.00  0.00    -0.066 C 
BRANCH  16  17
ATOM     17  N   UNL     1      -0.675  -4.074   2.456  0.00  0.00    +0.379 N 
ATOM     18  C   UNL     1      -0.780  -2.616   2.314  0.00  0.00    -0.096 C 
ATOM     19  H   UNL     1      -1.166  -4.522   1.697  0.00  0.00    -0.082 HD
BRANCH  17  20
ATOM     20  C   UNL     1      -1.272  -4.485   3.735  0.00  0.00    -0.075 C 
BRANCH  20  21
ATOM     21  C   UNL     1      -2.772  -4.187   3.717  0.00  0.00    +0.016 C 
BRANCH  21  22
ATOM     22  C   UNL     1      -3.384  -4.608   5.028  0.00  0.00    -0.023 C 
ATOM     23  C   UNL     1      -3.620  -3.856   6.105  0.00  0.00    +0.061 C 
ATOM     24  N   UNL     1      -4.181  -4.591   7.091  0.00  0.00    -0.159 NA
ATOM     25  N   UNL     1      -4.358  -5.778   6.806  0.00  0.00    -0.180 NA
ATOM     26  C   UNL     1      -3.880  -5.986   5.429  0.00  0.00    +0.153 C 
ATOM     27  C   UNL     1      -2.736  -7.002   5.403  0.00  0.00    +0.039 C 
ATOM     28  C   UNL     1      -3.304  -2.386   6.208  0.00  0.00    +0.067 C 
ENDBRANCH  21  22
ENDBRANCH  20  21
ENDBRANCH  17  20
ENDBRANCH  16  17
ENDBRANCH   1  16
TORSDOF 6
