REMARK  Name = ZINC14704479
REMARK  7 active torsions:
REMARK  status: ('A' for Active; 'I' for Inactive)
REMARK    1  A    between atoms: C_6  and  O_7
REMARK    2  A    between atoms: O_7  and  C_8
REMARK    3  A    between atoms: C_8  and  C_9
REMARK    4  A    between atoms: C_9  and  O_10
REMARK    5  A    between atoms: O_10  and  C_11
REMARK    6  A    between atoms: C_11  and  C_13
REMARK    7  A    between atoms: C_15  and  N_21
REMARK                            x       y       z     vdW  Elec       q    Type
REMARK                         _______ _______ _______ _____ _____    ______ ____
ROOT
ATOM      1  C   UNL     1       1.312   7.324   1.428  0.00  0.00    +0.359 C 
ATOM      2  O   UNL     1       1.601   8.119   0.556  0.00  0.00    -0.243 OA
ENDROOT
BRANCH   1   3
ATOM      3  C   UNL     1       0.671   7.795   2.675  0.00  0.00    +0.169 A 
ATOM      4  C   UNL     1       0.407   9.151   2.845  0.00  0.00    +0.095 A 
ATOM      5  C   UNL     1      -0.203   9.578   4.026  0.00  0.00    +0.067 A 
ATOM      6  C   UNL     1      -0.513   8.623   4.993  0.00  0.00    +0.100 A 
ATOM      7  C   UNL     1      -0.213   7.292   4.752  0.00  0.00    +0.150 A 
ATOM      8  N   UNL     1       0.358   6.919   3.625  0.00  0.00    -0.226 NA
ATOM      9 CL   UNL     1      -0.597   6.098   5.952  0.00  0.00    -0.060 Cl
ATOM     10 CL   UNL     1      -1.266   9.098   6.484  0.00  0.00    -0.078 Cl
ATOM     11 CL   UNL     1       0.825  10.293   1.606  0.00  0.00    -0.079 Cl
BRANCH   5  12
ATOM     12  N   UNL     1      -0.489  10.925   4.234  0.00  0.00    -0.356 N 
ATOM     13  H   UNL     1      -0.970  11.247   5.170  0.00  0.00    +0.142 HD
ATOM     14  H   UNL     1      -0.234  11.668   3.464  0.00  0.00    +0.142 HD
ENDBRANCH   5  12
ENDBRANCH   1   3
BRANCH   1  15
ATOM     15  O   UNL     1       1.576   6.014   1.259  0.00  0.00    -0.457 OA
BRANCH  15  16
ATOM     16  C   UNL     1       2.206   5.624   0.010  0.00  0.00    +0.273 C 
BRANCH  16  17
ATOM     17  C   UNL     1       2.425   4.109   0.001  0.00  0.00    +0.270 C 
BRANCH  17  18
ATOM     18  O   UNL     1       1.159   3.445   0.009  0.00  0.00    -0.489 OA
BRANCH  18  24
ATOM     19  C   UNL     1      -0.017   1.377   0.010  0.00  0.00    +0.047 A 
ATOM     20  C   UNL     1       0.002  -0.004   0.002  0.00  0.00    +0.023 A 
ATOM     21  C   UNL     1       1.209  -0.680  -0.013  0.00  0.00    +0.041 A 
ATOM     22  C   UNL     1       2.399   0.025  -0.020  0.00  0.00    +0.023 A 
ATOM     23  C   UNL     1       2.385   1.406  -0.013  0.00  0.00    +0.047 A 
ATOM     24  C   UNL     1       1.176   2.086   0.002  0.00  0.00    +0.121 A 
ATOM     25 CL   UNL     1       1.230  -2.416  -0.023  0.00  0.00    -0.084 Cl
ENDBRANCH  18  24
ENDBRANCH  17  18
ENDBRANCH  16  17
ENDBRANCH  15  16
ENDBRANCH   1  15
TORSDOF 7
