REMARK  Name = ZINC27745262
REMARK  3 active torsions:
REMARK  status: ('A' for Active; 'I' for Inactive)
REMARK    1  A    between atoms: C_1  and  C_2
REMARK    2  A    between atoms: C_9  and  C_12
REMARK    3  A    between atoms: C_17  and  C_20
REMARK                            x       y       z     vdW  Elec       q    Type
REMARK                         _______ _______ _______ _____ _____    ______ ____
ROOT
ATOM      1  C   UNL     1       4.620   5.075  -0.014  0.00  0.00    +0.044 C 
ATOM      2  C   UNL     1       3.416   4.169  -0.007  0.00  0.00    -0.049 A 
ATOM      3  C   UNL     1       3.578   2.789  -0.016  0.00  0.00    +0.004 A 
ATOM      4  C   UNL     1       2.512   1.947  -0.011  0.00  0.00    +0.011 A 
ATOM      5  C   UNL     1       1.187   2.454   0.004  0.00  0.00    +0.008 A 
ATOM      6  C   UNL     1       1.052   3.862   0.013  0.00  0.00    +0.022 A 
ATOM      7  C   UNL     1       2.144   4.704   0.007  0.00  0.00    +0.019 A 
ATOM      8  S   UNL     1      -0.706   4.110   0.031  0.00  0.00    -0.082 S 
ATOM      9  C   UNL     1      -1.209   2.398   0.021  0.00  0.00    +0.094 A 
ATOM     10  C   UNL     1      -0.021   1.732   0.012  0.00  0.00    +0.068 A 
ATOM     11 CL   UNL     1       0.002  -0.004   0.002  0.00  0.00    -0.082 Cl
ENDROOT
BRANCH   9  12
ATOM     12  C   UNL     1      -2.568   1.844   0.024  0.00  0.00    +0.258 C 
ATOM     13  O   UNL     1      -2.734   0.639   0.017  0.00  0.00    -0.269 OA
ATOM     14  N   UNL     1      -3.632   2.671   0.033  0.00  0.00    -0.259 N 
ATOM     15  C   UNL     1      -4.916   2.147   0.036  0.00  0.00    +0.184 A 
ATOM     16  N   UNL     1      -6.080   2.782   0.045  0.00  0.00    -0.209 NA
ATOM     17  C   UNL     1      -7.184   2.072   0.045  0.00  0.00    +0.137 A 
ATOM     18  N   UNL     1      -7.116   0.762   0.037  0.00  0.00    -0.193 NA
ATOM     19  S   UNL     1      -5.426   0.489   0.020  0.00  0.00    +0.049 S 
ATOM     20  C   UNL     1      -8.525   2.760   0.056  0.00  0.00    +0.089 C 
ATOM     21  H   UNL     1      -3.482   3.760   0.039  0.00  0.00    +0.157 HD
ENDBRANCH   9  12
TORSDOF 1
