REMARK  Name = ZINC64044990
REMARK  2 active torsions:
REMARK  status: ('A' for Active; 'I' for Inactive)
REMARK    1  A    between atoms: C_8  and  C_25
REMARK    2  A    between atoms: C_16  and  C_18
REMARK                            x       y       z     vdW  Elec       q    Type
REMARK                         _______ _______ _______ _____ _____    ______ ____
ROOT
ATOM      1  C   UNL     1       0.118   1.442  -0.203  0.00  0.00    +0.001 A 
ATOM      2  C   UNL     1       1.325   2.152  -0.250  0.00  0.00    +0.002 A 
ATOM      3  C   UNL     1       2.529   1.541  -0.263  0.00  0.00    +0.026 A 
ATOM      4  C   UNL     1       2.617   0.123  -0.227  0.00  0.00    +0.043 A 
ATOM      5  N   UNL     1       3.652  -0.687  -0.210  0.00  0.00    -0.375 N 
ATOM      6  C   UNL     1       3.164  -2.064  -0.249  0.00  0.00    +0.131 C 
ATOM      7  C   UNL     1       3.667  -2.883   0.944  0.00  0.00    +0.137 C 
ATOM      8  N   UNL     1       2.831  -4.088   1.050  0.00  0.00    -0.288 N 
ATOM      9  C   UNL     1       1.382  -3.977   1.254  0.00  0.00    +0.113 C 
ATOM     10  C   UNL     1       0.767  -3.162   0.101  0.00  0.00    +0.052 C 
ATOM     11  C   UNL     1       1.653  -1.959  -0.131  0.00  0.00    -0.035 C 
ATOM     12  C   UNL     1       1.354  -0.653  -0.169  0.00  0.00    -0.001 A 
ATOM     13  C   UNL     1       0.088   0.091  -0.163  0.00  0.00    +0.010 A 
ATOM     14  C   UNL     1       3.400  -5.307   0.957  0.00  0.00    +0.249 C 
ATOM     15  O   UNL     1       2.703  -6.302   0.914  0.00  0.00    -0.270 OA
ATOM     16  H   UNL     1       4.582  -0.417  -0.176  0.00  0.00    +0.160 HD
ENDROOT
BRANCH   7  17
ATOM     17  C   UNL     1       3.552  -2.069   2.207  0.00  0.00    +0.029 A 
ATOM     18  C   UNL     1       2.731  -2.499   3.236  0.00  0.00    +0.130 A 
ATOM     19  C   UNL     1       2.626  -1.750   4.396  0.00  0.00    +0.039 A 
ATOM     20  C   UNL     1       3.339  -0.573   4.525  0.00  0.00    +0.004 A 
ATOM     21  C   UNL     1       4.158  -0.143   3.498  0.00  0.00    +0.020 A 
ATOM     22  C   UNL     1       4.269  -0.894   2.341  0.00  0.00    +0.049 A 
ATOM     23 CL   UNL     1       5.303  -0.357   1.054  0.00  0.00    -0.083 Cl
ATOM     24  F   UNL     1       2.034  -3.649   3.109  0.00  0.00    -0.205 F 
ENDBRANCH   7  17
BRANCH  14  25
ATOM     25  C   UNL     1       4.872  -5.433   0.909  0.00  0.00    +0.056 A 
ATOM     26  C   UNL     1       5.685  -4.577   1.662  0.00  0.00    +0.016 A 
ATOM     27  C   UNL     1       7.057  -4.736   1.582  0.00  0.00    +0.022 A 
ATOM     28  C   UNL     1       7.578  -5.726   0.767  0.00  0.00    +0.133 A 
ATOM     29  N   UNL     1       6.787  -6.518   0.067  0.00  0.00    -0.146 N 
ATOM     30  O   UNL     1       7.365  -7.517  -0.753  0.00  0.00    -0.164 OA
ATOM     31  C   UNL     1       5.474  -6.410   0.116  0.00  0.00    +0.146 A 
ENDBRANCH  14  25
TORSDOF 2
