REMARK  Name = ZINC50617178
REMARK  2 active torsions:
REMARK  status: ('A' for Active; 'I' for Inactive)
REMARK    1  A    between atoms: C_3  and  C_8
REMARK    2  A    between atoms: C_26  and  C_28
REMARK                            x       y       z     vdW  Elec       q    Type
REMARK                         _______ _______ _______ _____ _____    ______ ____
ROOT
ATOM      1  C   UNL     1       3.672   2.184  -0.021  0.00  0.00    +0.215 C 
ATOM      2  C   UNL     1       4.225   2.237  -1.445  0.00  0.00    +0.113 C 
ATOM      3  C   UNL     1       4.425   0.786  -1.854  0.00  0.00    +0.065 C 
ATOM      4  C   UNL     1       5.070  -0.094  -0.873  0.00  0.00    +0.040 A 
ATOM      5  C   UNL     1       5.613  -1.324  -1.242  0.00  0.00    +0.033 A 
ATOM      6  C   UNL     1       6.203  -2.123  -0.284  0.00  0.00    +0.042 A 
ATOM      7  C   UNL     1       6.255  -1.704   1.037  0.00  0.00    +0.023 A 
ATOM      8  C   UNL     1       5.722  -0.486   1.411  0.00  0.00    +0.048 A 
ATOM      9  C   UNL     1       5.128   0.335   0.465  0.00  0.00    +0.130 A 
ATOM     10  O   UNL     1       4.619   1.537   0.831  0.00  0.00    -0.483 OA
ATOM     11 CL   UNL     1       6.883  -3.656  -0.734  0.00  0.00    -0.084 Cl
ATOM     12  N   UNL     1       3.975   0.369  -2.991  0.00  0.00    -0.215 NA
ATOM     13  C   UNL     1       3.224   1.112  -3.841  0.00  0.00    +0.249 A 
ATOM     14  N   UNL     1       2.736   0.809  -5.039  0.00  0.00    -0.198 NA
ATOM     15  C   UNL     1       2.022   1.826  -5.509  0.00  0.00    +0.247 A 
ATOM     16  N   UNL     1       2.038   2.805  -4.641  0.00  0.00    -0.156 NA
ATOM     17  N   UNL     1       2.825   2.379  -3.565  0.00  0.00    -0.221 N 
ATOM     18  C   UNL     1       3.252   3.043  -2.324  0.00  0.00    +0.155 C 
ENDROOT
BRANCH   1  21
ATOM     19  C   UNL     1       1.204  -0.666   0.186  0.00  0.00    +0.002 A 
ATOM     20  C   UNL     1       2.391   0.043   0.178  0.00  0.00    +0.007 A 
ATOM     21  C   UNL     1       2.378   1.412  -0.013  0.00  0.00    -0.005 A 
ATOM     22  C   UNL     1       1.177   2.072  -0.196  0.00  0.00    +0.027 A 
ATOM     23  C   UNL     1      -0.010   1.363  -0.189  0.00  0.00    +0.041 A 
ATOM     24  C   UNL     1       0.004  -0.007   0.002  0.00  0.00    +0.020 A 
ATOM     25 CL   UNL     1      -1.518   2.193  -0.418  0.00  0.00    -0.084 Cl
ENDBRANCH   1  21
BRANCH  18  26
ATOM     26  C   UNL     1       3.914   4.347  -2.688  0.00  0.00    -0.004 A 
ATOM     27  C   UNL     1       3.339   5.553  -2.318  0.00  0.00    +0.009 A 
ATOM     28  C   UNL     1       3.983   6.728  -2.675  0.00  0.00    +0.020 A 
ATOM     29  C   UNL     1       5.168   6.658  -3.384  0.00  0.00    +0.111 A 
ATOM     30  N   UNL     1       5.685   5.492  -3.720  0.00  0.00    -0.263 NA
ATOM     31  C   UNL     1       5.103   4.355  -3.392  0.00  0.00    +0.116 A 
ENDBRANCH  18  26
TORSDOF 2
