REMARK  Name = ZINC62723360
REMARK  5 active torsions:
REMARK  status: ('A' for Active; 'I' for Inactive)
REMARK    1  A    between atoms: C_1  and  C_2
REMARK    2  A    between atoms: C_4  and  C_20
REMARK    3  A    between atoms: N_5  and  C_7
REMARK    4  A    between atoms: C_10  and  C_14
REMARK    5  A    between atoms: C_15  and  C_16
REMARK                            x       y       z     vdW  Elec       q    Type
REMARK                         _______ _______ _______ _____ _____    ______ ____
ROOT
ATOM      1  C   UNL     1       0.022  -3.256   1.431  0.00  0.00    +0.136 A 
ATOM      2  C   UNL     1       0.140  -4.518   0.855  0.00  0.00    +0.152 A 
ATOM      3  C   UNL     1       0.143  -5.644   1.650  0.00  0.00    +0.048 A 
ATOM      4  C   UNL     1       0.028  -5.517   3.040  0.00  0.00    -0.019 A 
ATOM      5  C   UNL     1      -0.090  -4.246   3.615  0.00  0.00    +0.048 A 
ATOM      6  C   UNL     1      -0.087  -3.125   2.813  0.00  0.00    +0.152 A 
ATOM      7  F   UNL     1      -0.196  -1.898   3.368  0.00  0.00    -0.203 F 
ATOM      8  F   UNL     1       0.251  -4.640  -0.486  0.00  0.00    -0.203 F 
ENDROOT
BRANCH   1  13
ATOM      9  C   UNL     1       1.181   1.218  -0.365  0.00  0.00    +0.069 C 
ATOM     10  C   UNL     1       0.541  -0.133  -0.167  0.00  0.00    +0.075 A 
ATOM     11  C   UNL     1      -0.463  -0.688  -0.968  0.00  0.00    +0.062 A 
ATOM     12  C   UNL     1      -0.769  -1.908  -0.467  0.00  0.00    +0.056 A 
ATOM     13  N   UNL     1       0.020  -2.116   0.620  0.00  0.00    -0.230 N 
ATOM     14  N   UNL     1       0.835  -0.988   0.779  0.00  0.00    -0.170 NA
ATOM     15  C   UNL     1      -1.800  -2.862  -1.014  0.00  0.00    +0.067 C 
ATOM     16 BR   UNL     1      -1.254   0.122  -2.482  0.00  0.00    -0.047 Br
ENDBRANCH   1  13
BRANCH   4  17
ATOM     17  C   UNL     1       0.031  -6.714   3.892  0.00  0.00    +0.015 C 
ATOM     18  C   UNL     1      -0.081  -6.589   5.234  0.00  0.00    +0.096 C 
BRANCH  18  19
ATOM     19  C   UNL     1      -0.079  -7.741   6.054  0.00  0.00    +0.380 C 
ATOM     20  O   UNL     1       0.025  -8.852   5.549  0.00  0.00    -0.241 OA
ATOM     21  O   UNL     1      -0.180  -7.628   7.270  0.00  0.00    -0.241 OA
ENDBRANCH  18  19
ENDBRANCH   4  17
TORSDOF 3
