REMARK  Name = ZINC13342277
REMARK  9 active torsions:
REMARK  status: ('A' for Active; 'I' for Inactive)
REMARK    1  A    between atoms: C_1  and  C_2
REMARK    2  A    between atoms: C_2  and  N_3
REMARK    3  A    between atoms: C_4  and  C_23
REMARK    4  A    between atoms: C_7  and  S_8
REMARK    5  A    between atoms: S_8  and  C_9
REMARK    6  A    between atoms: C_9  and  C_10
REMARK    7  A    between atoms: N_12  and  C_13
REMARK    8  A    between atoms: C_15  and  C_21
REMARK    9  A    between atoms: C_17  and  C_19
REMARK                            x       y       z     vdW  Elec       q    Type
REMARK                         _______ _______ _______ _____ _____    ______ ____
ROOT
ATOM      1  C   UNL     1       0.319   6.413   0.550  0.00  0.00    +0.173 C 
ENDROOT
BRANCH   1   2
ATOM      2  C   UNL     1      -0.043   7.870   0.688  0.00  0.00    +0.227 C 
ATOM      3  O   UNL     1      -1.173   8.187   0.996  0.00  0.00    -0.275 OA
ATOM      4  N   UNL     1       0.888   8.819   0.470  0.00  0.00    -0.285 N 
ATOM      5  H   UNL     1       1.772   8.569   0.159  0.00  0.00    +0.155 HD
BRANCH   4   6
ATOM      6  C   UNL     1       0.579  10.166   0.692  0.00  0.00    +0.035 A 
ATOM      7  C   UNL     1      -0.697  10.637   0.420  0.00  0.00    +0.038 A 
ATOM      8  C   UNL     1      -1.010  11.979   0.645  0.00  0.00    +0.066 A 
ATOM      9  C   UNL     1      -0.036  12.848   1.133  0.00  0.00    +0.030 A 
ATOM     10  C   UNL     1       1.247  12.373   1.399  0.00  0.00    +0.066 A 
ATOM     11  C   UNL     1       1.552  11.028   1.176  0.00  0.00    +0.038 A 
BRANCH  10  12
ATOM     12  C   UNL     1       2.283  13.290   1.917  0.00  0.00    +0.387 C 
ATOM     13  O   UNL     1       3.401  12.875   2.149  0.00  0.00    -0.241 OA
ATOM     14  O   UNL     1       1.989  14.587   2.131  0.00  0.00    -0.241 OA
ENDBRANCH  10  12
BRANCH   8  15
ATOM     15  C   UNL     1      -2.372  12.479   0.361  0.00  0.00    +0.387 C 
ATOM     16  O   UNL     1      -3.220  11.721  -0.064  0.00  0.00    -0.241 OA
ATOM     17  O   UNL     1      -2.671  13.775   0.574  0.00  0.00    -0.241 OA
ENDBRANCH   8  15
ENDBRANCH   4   6
ENDBRANCH   1   2
BRANCH   1  18
ATOM     18  S   UNL     1      -1.134   5.394   0.905  0.00  0.00    -0.077 S 
BRANCH  18  23
ATOM     19  N   UNL     1      -1.102   2.599   0.809  0.00  0.00    -0.302 N 
ATOM     20  C   UNL     1      -0.166   1.626   0.539  0.00  0.00    +0.165 A 
ATOM     21  N   UNL     1       0.959   2.241   0.260  0.00  0.00    -0.128 NA
ATOM     22  N   UNL     1       0.795   3.513   0.340  0.00  0.00    -0.122 NA
ATOM     23  C   UNL     1      -0.445   3.789   0.676  0.00  0.00    +0.192 A 
BRANCH  20  24
ATOM     24  C   UNL     1      -0.389   0.165   0.556  0.00  0.00    +0.019 A 
ATOM     25  C   UNL     1      -1.478  -0.371   1.245  0.00  0.00    +0.013 A 
ATOM     26  C   UNL     1      -1.682  -1.735   1.253  0.00  0.00    +0.021 A 
ATOM     27  C   UNL     1      -0.804  -2.573   0.587  0.00  0.00    +0.041 A 
ATOM     28  C   UNL     1       0.281  -2.048  -0.094  0.00  0.00    +0.021 A 
ATOM     29  C   UNL     1       0.493  -0.685  -0.114  0.00  0.00    +0.013 A 
ATOM     30 CL   UNL     1      -1.065  -4.290   0.606  0.00  0.00    -0.084 Cl
ENDBRANCH  20  24
BRANCH  19  32
ATOM     31  C   UNL     1      -2.646   2.361   2.691  0.00  0.00    +0.027 C 
ATOM     32  C   UNL     1      -2.508   2.399   1.167  0.00  0.00    +0.122 C 
ENDBRANCH  19  32
ENDBRANCH  18  23
ENDBRANCH   1  18
TORSDOF 8
