REMARK  Name = ZINC37379679
REMARK  8 active torsions:
REMARK  status: ('A' for Active; 'I' for Inactive)
REMARK    1  A    between atoms: C_1  and  C_2
REMARK    2  A    between atoms: C_5  and  C_8
REMARK    3  A    between atoms: C_8  and  C_9
REMARK    4  A    between atoms: C_13  and  C_23
REMARK    5  A    between atoms: N_15  and  C_16
REMARK    6  A    between atoms: C_24  and  N_26
REMARK    7  A    between atoms: N_29  and  C_32
REMARK    8  A    between atoms: C_32  and  C_33
REMARK                            x       y       z     vdW  Elec       q    Type
REMARK                         _______ _______ _______ _____ _____    ______ ____
ROOT
ATOM      1  C   UNL     1       1.489  -4.776  -0.034  0.00  0.00    +0.138 A 
ATOM      2  N   UNL     1       2.082  -4.961  -1.193  0.00  0.00    -0.212 NA
ATOM      3  C   UNL     1       3.344  -5.384  -1.251  0.00  0.00    +0.169 A 
ATOM      4  C   UNL     1       4.034  -5.630  -0.048  0.00  0.00    +0.082 A 
ATOM      5  C   UNL     1       5.332  -6.063  -0.397  0.00  0.00    +0.073 A 
ATOM      6  N   UNL     1       5.427  -6.079  -1.696  0.00  0.00    -0.169 NA
ATOM      7  N   UNL     1       4.216  -5.665  -2.264  0.00  0.00    -0.214 N 
ATOM      8  C   UNL     1       6.423  -6.441   0.571  0.00  0.00    +0.068 C 
ATOM      9  C   UNL     1       3.354  -5.416   1.166  0.00  0.00    +0.136 A 
ATOM     10  N   UNL     1       2.097  -4.989   1.119  0.00  0.00    -0.216 NA
ENDROOT
BRANCH   7  11
ATOM     11  C   UNL     1       3.945  -5.557  -3.635  0.00  0.00    +0.068 A 
ATOM     12  C   UNL     1       2.676  -5.847  -4.118  0.00  0.00    +0.030 A 
ATOM     13  C   UNL     1       2.411  -5.740  -5.469  0.00  0.00    +0.040 A 
ATOM     14  C   UNL     1       3.411  -5.345  -6.342  0.00  0.00    +0.124 A 
ATOM     15  C   UNL     1       4.677  -5.056  -5.863  0.00  0.00    +0.040 A 
ATOM     16  C   UNL     1       4.944  -5.155  -4.511  0.00  0.00    +0.030 A 
ATOM     17  F   UNL     1       3.150  -5.241  -7.664  0.00  0.00    -0.205 F 
ENDBRANCH   7  11
BRANCH   9  18
ATOM     18  N   UNL     1       3.980  -5.641   2.377  0.00  0.00    -0.318 N 
ATOM     19  C   UNL     1       4.625  -4.542   3.110  0.00  0.00    +0.088 C 
ATOM     20  C   UNL     1       4.122  -4.562   4.558  0.00  0.00    -0.059 C 
ATOM     21  N   UNL     1       4.351  -5.893   5.135  0.00  0.00    +0.384 N 
ATOM     22  C   UNL     1       3.545  -6.893   4.423  0.00  0.00    -0.059 C 
ATOM     23  C   UNL     1       4.015  -6.986   2.971  0.00  0.00    +0.088 C 
ATOM     24  H   UNL     1       5.328  -6.130   5.054  0.00  0.00    -0.081 HD
BRANCH  21  25
ATOM     25  C   UNL     1       3.970  -5.881   6.554  0.00  0.00    -0.043 C 
BRANCH  25  26
ATOM     26  C   UNL     1       4.318  -7.207   7.179  0.00  0.00    -0.064 A 
ATOM     27  C   UNL     1       3.395  -8.237   7.173  0.00  0.00    +0.004 A 
ATOM     28  C   UNL     1       3.713  -9.454   7.745  0.00  0.00    +0.038 A 
ATOM     29  C   UNL     1       4.957  -9.642   8.325  0.00  0.00    +0.123 A 
ATOM     30  C   UNL     1       5.880  -8.610   8.330  0.00  0.00    +0.038 A 
ATOM     31  C   UNL     1       5.562  -7.396   7.753  0.00  0.00    +0.004 A 
ATOM     32  F   UNL     1       5.268 -10.831   8.885  0.00  0.00    -0.205 F 
ENDBRANCH  25  26
ENDBRANCH  21  25
ENDBRANCH   9  18
BRANCH   1  33
ATOM     33  C   UNL     1       0.060  -4.296  -0.021  0.00  0.00    +0.111 C 
BRANCH  33  38
ATOM     34  C   UNL     1      -0.033   1.482   0.034  0.00  0.00    +0.044 C 
ATOM     35  C   UNL     1      -0.008  -0.025   0.020  0.00  0.00    -0.050 A 
ATOM     36  C   UNL     1      -0.003  -0.705  -1.184  0.00  0.00    +0.003 A 
ATOM     37  C   UNL     1       0.019  -2.087  -1.197  0.00  0.00    +0.004 A 
ATOM     38  C   UNL     1       0.037  -2.789  -0.007  0.00  0.00    -0.040 A 
ATOM     39  C   UNL     1       0.033  -2.110   1.197  0.00  0.00    +0.004 A 
ATOM     40  C   UNL     1       0.015  -0.727   1.210  0.00  0.00    +0.003 A 
ENDBRANCH  33  38
ENDBRANCH   1  33
TORSDOF 6
