REMARK  Name = ZINC37574208
REMARK  3 active torsions:
REMARK  status: ('A' for Active; 'I' for Inactive)
REMARK    1  A    between atoms: C_3  and  S_9
REMARK    2  A    between atoms: S_9  and  N_12
REMARK    3  A    between atoms: N_12  and  C_13
REMARK                            x       y       z     vdW  Elec       q    Type
REMARK                         _______ _______ _______ _____ _____    ______ ____
ROOT
ATOM      1  N   UNL     1       4.603   2.094   1.455  0.00  0.00    -0.187 NA
ATOM      2  H   UNL     1       4.570   2.804   2.115  0.00  0.00    +0.148 HD
ENDROOT
BRANCH   1   3
ATOM      3  C   UNL     1       5.155   0.785   1.814  0.00  0.00    +0.074 C 
ATOM      4  C   UNL     1       4.075  -0.057   2.499  0.00  0.00    +0.001 C 
ATOM      5  C   UNL     1       4.665  -1.408   2.907  0.00  0.00    -0.080 C 
ATOM      6  N   UNL     1       5.757  -1.201   3.868  0.00  0.00    +0.383 N 
ATOM      7  C   UNL     1       6.814  -0.400   3.247  0.00  0.00    -0.067 C 
ATOM      8  C   UNL     1       6.332   0.972   2.777  0.00  0.00    +0.008 C 
ATOM      9  C   UNL     1       8.106  -0.343   4.072  0.00  0.00    -0.012 C 
ATOM     10  C   UNL     1       8.550  -1.606   3.314  0.00  0.00    -0.003 C 
ATOM     11  C   UNL     1       7.612  -1.161   2.179  0.00  0.00    -0.012 C 
ATOM     12  H   UNL     1       5.403  -0.718   4.680  0.00  0.00    -0.085 HD
ATOM     13  H   UNL     1       6.132  -2.095   4.146  0.00  0.00    -0.085 HD
ENDBRANCH   1   3
BRANCH   1  14
ATOM     14  S   UNL     1       4.034   2.361  -0.077  0.00  0.00    +0.060 S 
ATOM     15  O   UNL     1       5.033   1.888  -0.969  0.00  0.00    -0.153 OA
ATOM     16  O   UNL     1       3.559   3.700  -0.106  0.00  0.00    -0.153 OA
BRANCH  14  19
ATOM     17  C   UNL     1       1.553  -0.501  -1.418  0.00  0.00    +0.017 A 
ATOM     18  C   UNL     1       2.655   0.315  -1.244  0.00  0.00    +0.031 A 
ATOM     19  C   UNL     1       2.628   1.323  -0.299  0.00  0.00    +0.119 A 
ATOM     20  C   UNL     1       1.496   1.516   0.473  0.00  0.00    +0.045 A 
ATOM     21  C   UNL     1       0.393   0.701   0.299  0.00  0.00    +0.032 A 
ATOM     22  C   UNL     1       0.421  -0.308  -0.647  0.00  0.00    +0.019 A 
ATOM     23 BR   UNL     1      -1.088  -1.422  -0.886  0.00  0.00    -0.050 Br
ATOM     24 BR   UNL     1       1.458   2.896   1.766  0.00  0.00    -0.048 Br
ENDBRANCH  14  19
ENDBRANCH   1  14
TORSDOF 3
