REMARK  Name = ZINC12529664
REMARK  10 active torsions:
REMARK  status: ('A' for Active; 'I' for Inactive)
REMARK    1  A    between atoms: C_1  and  O_2
REMARK    2  A    between atoms: O_2  and  C_3
REMARK    3  A    between atoms: C_6  and  C_10
REMARK    4  A    between atoms: C_8  and  O_9
REMARK    5  A    between atoms: N_11  and  N_12
REMARK    6  A    between atoms: N_12  and  C_13
REMARK    7  A    between atoms: C_16  and  S_22
REMARK    8  A    between atoms: C_18  and  N_19
REMARK    9  A    between atoms: S_22  and  N_25
REMARK   10  A    between atoms: N_25  and  C_26
REMARK                            x       y       z     vdW  Elec       q    Type
REMARK                         _______ _______ _______ _____ _____    ______ ____
ROOT
ATOM      1  C   UNL     1       3.232   6.486   0.415  0.00  0.00    +0.079 A 
ATOM      2  C   UNL     1       4.383   5.743   0.180  0.00  0.00    +0.029 A 
ATOM      3  C   UNL     1       5.565   6.385  -0.133  0.00  0.00    +0.031 A 
ATOM      4  C   UNL     1       5.604   7.766  -0.212  0.00  0.00    +0.113 A 
ATOM      5  C   UNL     1       4.460   8.508   0.021  0.00  0.00    +0.063 A 
ATOM      6  C   UNL     1       3.274   7.872   0.329  0.00  0.00    +0.150 A 
ENDROOT
BRANCH   6   7
ATOM      7  N   UNL     1       2.048   8.668   0.574  0.00  0.00    +0.058 N 
ATOM      8  O   UNL     1       0.969   8.257   0.188  0.00  0.00    -0.126 OA
ATOM      9  O   UNL     1       2.120   9.732   1.160  0.00  0.00    -0.126 OA
ENDBRANCH   6   7
BRANCH   4  10
ATOM     10  S   UNL     1       7.114   8.581  -0.612  0.00  0.00    +0.092 S 
ATOM     11  O   UNL     1       7.059   9.862   0.001  0.00  0.00    -0.148 OA
ATOM     12  O   UNL     1       8.158   7.654  -0.347  0.00  0.00    -0.148 OA
BRANCH  10  13
ATOM     13  N   UNL     1       7.113   8.839  -2.248  0.00  0.00    -0.098 NA
BRANCH  13  14
ATOM     14  C   UNL     1       6.115   9.623  -2.831  0.00  0.00    +0.074 A 
ATOM     15  C   UNL     1       5.085   9.022  -3.543  0.00  0.00    +0.028 A 
ATOM     16  C   UNL     1       4.096   9.800  -4.114  0.00  0.00    +0.022 A 
ATOM     17  C   UNL     1       4.137  11.177  -3.986  0.00  0.00    +0.041 A 
ATOM     18  C   UNL     1       5.165  11.779  -3.281  0.00  0.00    +0.022 A 
ATOM     19  C   UNL     1       6.153  11.006  -2.704  0.00  0.00    +0.028 A 
ATOM     20 CL   UNL     1       2.897  12.152  -4.710  0.00  0.00    -0.084 Cl
ENDBRANCH  13  14
ENDBRANCH  10  13
ENDBRANCH   4  10
BRANCH   1  21
ATOM     21  N   UNL     1       2.036   5.841   0.732  0.00  0.00    -0.236 N 
ATOM     22  H   UNL     1       1.119   6.428   0.889  0.00  0.00    +0.174 HD
BRANCH  21  24
ATOM     23  C   UNL     1       0.890   3.844   1.144  0.00  0.00    +0.138 C 
ATOM     24  N   UNL     1       2.003   4.445   0.850  0.00  0.00    -0.190 NA
BRANCH  23  28
ATOM     25  C   UNL     1       0.796  -0.388   1.499  0.00  0.00    +0.161 A 
ATOM     26  C   UNL     1       1.984   0.255   1.184  0.00  0.00    +0.050 A 
ATOM     27  C   UNL     1       2.019   1.628   1.068  0.00  0.00    +0.013 A 
ATOM     28  C   UNL     1       0.856   2.376   1.268  0.00  0.00    -0.002 A 
ATOM     29  C   UNL     1      -0.341   1.728   1.585  0.00  0.00    +0.058 A 
ATOM     30  C   UNL     1      -0.368   0.350   1.699  0.00  0.00    +0.159 A 
BRANCH  25  32
ATOM     31  C   UNL     1       1.997  -2.438   1.394  0.00  0.00    +0.277 C 
ATOM     32  O   UNL     1       0.767  -1.743   1.612  0.00  0.00    -0.491 OA
ENDBRANCH  25  32
BRANCH  30  33
ATOM     33  O   UNL     1      -1.531  -0.284   2.008  0.00  0.00    -0.503 OA
ATOM     34  H   UNL     1      -2.450   0.299   2.166  0.00  0.00    +0.292 HD
ENDBRANCH  30  33
ENDBRANCH  23  28
ENDBRANCH  21  24
ENDBRANCH   1  21
TORSDOF 9
