REMARK  Name = ZINC17887064
REMARK  3 active torsions:
REMARK  status: ('A' for Active; 'I' for Inactive)
REMARK    1  A    between atoms: C_2  and  C_10
REMARK    2  A    between atoms: C_5  and  O_8
REMARK    3  A    between atoms: N_11  and  N_12
REMARK                            x       y       z     vdW  Elec       q    Type
REMARK                         _______ _______ _______ _____ _____    ______ ____
ROOT
ATOM      1  C   UNL     1       1.170   3.562   0.009  0.00  0.00    +0.139 C 
ATOM      2  N   UNL     1       2.287   4.222   0.002  0.00  0.00    -0.178 NA
ENDROOT
BRANCH   2   3
ATOM      3  N   UNL     1       2.273   5.623   0.010  0.00  0.00    -0.127 N 
ATOM      4  C   UNL     1       1.122   6.375   0.030  0.00  0.00    +0.246 C 
ATOM      5  O   UNL     1       0.005   6.013   0.330  0.00  0.00    -0.273 OA
ATOM      6  C   UNL     1       1.560   7.747  -0.403  0.00  0.00    +0.097 C 
ATOM      7  C   UNL     1       0.991   9.026   0.223  0.00  0.00    +0.025 C 
ATOM      8  C   UNL     1       2.236   9.943  -0.174  0.00  0.00    +0.016 C 
ATOM      9  C   UNL     1       3.248   9.117   0.723  0.00  0.00    +0.025 C 
ATOM     10  C   UNL     1       2.907   7.681   0.427  0.00  0.00    +0.097 C 
ATOM     11  C   UNL     1       3.417   6.405   0.003  0.00  0.00    +0.246 C 
ATOM     12  O   UNL     1       4.553   6.095  -0.287  0.00  0.00    -0.273 OA
ATOM     13  C   UNL     1       2.449   9.244   2.058  0.00  0.00    -0.027 C 
ATOM     14  C   UNL     1       1.159   9.092   1.728  0.00  0.00    -0.027 C 
ENDBRANCH   2   3
BRANCH   1  16
ATOM     15  C   UNL     1      -0.017   1.375   0.010  0.00  0.00    +0.028 A 
ATOM     16  C   UNL     1       1.185   2.088   0.002  0.00  0.00    -0.003 A 
ATOM     17  C   UNL     1       2.401   1.399  -0.013  0.00  0.00    +0.028 A 
ATOM     18  C   UNL     1       2.411   0.021  -0.021  0.00  0.00    +0.061 A 
ATOM     19  C   UNL     1       1.214  -0.684  -0.014  0.00  0.00    +0.145 A 
ATOM     20  C   UNL     1       0.002  -0.004   0.002  0.00  0.00    +0.061 A 
ATOM     21 BR   UNL     1      -1.623  -0.970   0.013  0.00  0.00    -0.046 Br
ATOM     22 BR   UNL     1       4.056  -0.912  -0.042  0.00  0.00    -0.046 Br
BRANCH  19  23
ATOM     23  O   UNL     1       1.228  -2.043  -0.022  0.00  0.00    -0.505 OA
ATOM     24  H   UNL     1       1.240  -2.442   0.859  0.00  0.00    +0.292 HD
ENDBRANCH  19  23
ENDBRANCH   1  16
TORSDOF 3
