REMARK  Name = ZINC13169591
REMARK  10 active torsions:
REMARK  status: ('A' for Active; 'I' for Inactive)
REMARK    1  A    between atoms: C_1  and  C_2
REMARK    2  A    between atoms: C_2  and  N_3
REMARK    3  A    between atoms: N_3  and  C_4
REMARK    4  A    between atoms: N_3  and  S_6
REMARK    5  A    between atoms: C_4  and  C_5
REMARK    6  A    between atoms: S_6  and  C_9
REMARK    7  A    between atoms: C_13  and  C_15
REMARK    8  A    between atoms: N_17  and  C_18
REMARK    9  A    between atoms: C_20  and  C_26
REMARK   10  A    between atoms: C_22  and  C_24
REMARK                            x       y       z     vdW  Elec       q    Type
REMARK                         _______ _______ _______ _____ _____    ______ ____
ROOT
ATOM      1  C   UNL     1       4.904   5.037   0.086  0.00  0.00    +0.249 C 
ATOM      2  O   UNL     1       4.859   3.822   0.079  0.00  0.00    -0.270 OA
ATOM      3  N   UNL     1       3.767   5.755  -0.001  0.00  0.00    -0.281 N 
ATOM      4  H   UNL     1       3.808   6.721  -0.073  0.00  0.00    +0.155 HD
ENDROOT
BRANCH   1   9
ATOM      5  C   UNL     1       7.482   7.760   0.294  0.00  0.00    +0.106 A 
ATOM      6  C   UNL     1       8.649   7.020   0.384  0.00  0.00    +0.029 A 
ATOM      7  C   UNL     1       8.602   5.638   0.376  0.00  0.00    +0.018 A 
ATOM      8  C   UNL     1       7.388   4.986   0.286  0.00  0.00    +0.030 A 
ATOM      9  C   UNL     1       6.207   5.727   0.190  0.00  0.00    +0.053 A 
ATOM     10  C   UNL     1       6.263   7.122   0.198  0.00  0.00    +0.042 A 
ATOM     11 BR   UNL     1       7.324   3.096   0.284  0.00  0.00    -0.050 Br
BRANCH   5  12
ATOM     12  S   UNL     1       7.554   9.520   0.305  0.00  0.00    +0.061 S 
ATOM     13  O   UNL     1       8.854   9.876  -0.145  0.00  0.00    -0.153 OA
ATOM     14  O   UNL     1       6.373   9.979  -0.338  0.00  0.00    -0.153 OA
BRANCH  12  15
ATOM     15  N   UNL     1       7.452  10.005   1.885  0.00  0.00    -0.177 NA
BRANCH  15  17
ATOM     16  C   UNL     1       9.114  11.630   2.644  0.00  0.00    +0.022 C 
ATOM     17  C   UNL     1       8.670  10.166   2.683  0.00  0.00    +0.106 C 
ENDBRANCH  15  17
BRANCH  15  18
ATOM     18  C   UNL     1       6.142  10.271   2.486  0.00  0.00    +0.106 C 
ATOM     19  C   UNL     1       5.653   9.021   3.219  0.00  0.00    +0.022 C 
ENDBRANCH  15  18
ENDBRANCH  12  15
ENDBRANCH   5  12
ENDBRANCH   1   9
BRANCH   3  20
ATOM     20  C   UNL     1       2.528   5.105   0.012  0.00  0.00    +0.035 A 
ATOM     21  C   UNL     1       1.468   5.621  -0.720  0.00  0.00    +0.038 A 
ATOM     22  C   UNL     1       0.230   4.976  -0.709  0.00  0.00    +0.066 A 
ATOM     23  C   UNL     1       0.059   3.813   0.040  0.00  0.00    +0.030 A 
ATOM     24  C   UNL     1       1.125   3.298   0.775  0.00  0.00    +0.066 A 
ATOM     25  C   UNL     1       2.359   3.951   0.763  0.00  0.00    +0.038 A 
BRANCH  24  26
ATOM     26  C   UNL     1       0.948   2.065   1.570  0.00  0.00    +0.387 C 
ATOM     27  O   UNL     1       1.878   1.617   2.211  0.00  0.00    -0.241 OA
ATOM     28  O   UNL     1      -0.244   1.439   1.586  0.00  0.00    -0.241 OA
ENDBRANCH  24  26
BRANCH  22  29
ATOM     29  C   UNL     1      -0.898   5.526  -1.489  0.00  0.00    +0.387 C 
ATOM     30  O   UNL     1      -0.748   6.540  -2.142  0.00  0.00    -0.241 OA
ATOM     31  O   UNL     1      -2.092   4.903  -1.477  0.00  0.00    -0.241 OA
ENDBRANCH  22  29
ENDBRANCH   3  20
TORSDOF 8
