REMARK  Name = ZINC39695715
REMARK  7 active torsions:
REMARK  status: ('A' for Active; 'I' for Inactive)
REMARK    1  A    between atoms: C_1  and  C_2
REMARK    2  A    between atoms: C_9  and  C_11
REMARK    3  A    between atoms: C_11  and  C_13
REMARK    4  A    between atoms: C_11  and  N_14
REMARK    5  A    between atoms: C_15  and  C_17
REMARK    6  A    between atoms: C_28  and  C_30
REMARK    7  A    between atoms: C_35  and  C_36
REMARK                            x       y       z     vdW  Elec       q    Type
REMARK                         _______ _______ _______ _____ _____    ______ ____
ROOT
ATOM      1  C   UNL     1      -1.336  -9.343   0.676  0.00  0.00    +0.100 C 
ATOM      2  C   UNL     1      -2.560  -8.583   0.118  0.00  0.00    +0.121 C 
ATOM      3  N   UNL     1      -3.667  -9.567   0.169  0.00  0.00    -0.296 N 
ATOM      4  C   UNL     1      -3.459 -10.290   1.447  0.00  0.00    +0.115 C 
ATOM      5  C   UNL     1      -1.930 -10.462   1.548  0.00  0.00    -0.004 C 
ATOM      6  C   UNL     1      -1.477 -10.300   2.996  0.00  0.00    -0.010 C 
ATOM      7  C   UNL     1      -2.032 -11.456   3.833  0.00  0.00    -0.082 C 
ATOM      8  N   UNL     1      -1.551 -12.732   3.288  0.00  0.00    +0.379 N 
ATOM      9  C   UNL     1      -2.069 -12.922   1.927  0.00  0.00    -0.082 C 
ATOM     10  C   UNL     1      -1.515 -11.828   1.011  0.00  0.00    -0.010 C 
ATOM     11  C   UNL     1      -4.643  -9.761  -0.740  0.00  0.00    +0.247 C 
ATOM     12  O   UNL     1      -5.543 -10.543  -0.508  0.00  0.00    -0.270 OA
ATOM     13  H   UNL     1      -0.543 -12.727   3.265  0.00  0.00    -0.086 HD
ATOM     14  H   UNL     1      -1.868 -13.488   3.876  0.00  0.00    -0.086 HD
ENDROOT
BRANCH  11  15
ATOM     15  C   UNL     1      -4.617  -9.022  -2.021  0.00  0.00    +0.049 A 
ATOM     16  C   UNL     1      -4.174  -7.699  -2.058  0.00  0.00    +0.013 A 
ATOM     17  C   UNL     1      -4.153  -7.016  -3.256  0.00  0.00    +0.001 A 
ATOM     18  C   UNL     1      -4.569  -7.639  -4.419  0.00  0.00    +0.001 A 
ATOM     19  C   UNL     1      -5.010  -8.950  -4.389  0.00  0.00    +0.013 A 
ATOM     20  C   UNL     1      -5.031  -9.647  -3.198  0.00  0.00    +0.067 A 
BRANCH  20  21
ATOM     21  C   UNL     1      -5.506 -11.077  -3.168  0.00  0.00    +0.418 C 
ATOM     22  F   UNL     1      -5.864 -11.476  -4.460  0.00  0.00    -0.166 F 
ATOM     23  F   UNL     1      -4.478 -11.899  -2.694  0.00  0.00    -0.166 F 
ATOM     24  F   UNL     1      -6.616 -11.182  -2.323  0.00  0.00    -0.166 F 
ENDBRANCH  20  21
ENDBRANCH  11  15
BRANCH   1  26
ATOM     25  N   UNL     1       0.845  -8.632   1.602  0.00  0.00    -0.305 N 
ATOM     26  C   UNL     1      -0.484  -8.423   1.511  0.00  0.00    +0.219 C 
ATOM     27  O   UNL     1      -0.993  -7.494   2.102  0.00  0.00    -0.275 OA
ATOM     28  H   UNL     1       1.252  -9.375   1.130  0.00  0.00    +0.149 HD
BRANCH  25  29
ATOM     29  C   UNL     1       1.673  -7.738   2.414  0.00  0.00    +0.136 C 
ATOM     30  C   UNL     1       1.649  -8.203   3.872  0.00  0.00    +0.036 C 
BRANCH  29  39
ATOM     31  C   UNL     1       8.764  -6.651   0.434  0.00  0.00    +0.044 C 
ATOM     32  C   UNL     1       7.405  -7.276   0.615  0.00  0.00    -0.048 A 
ATOM     33  C   UNL     1       7.154  -8.541   0.103  0.00  0.00    +0.005 A 
ATOM     34  C   UNL     1       5.929  -9.125   0.256  0.00  0.00    +0.030 A 
ATOM     35  C   UNL     1       4.915  -8.446   0.936  0.00  0.00    +0.089 A 
ATOM     36  C   UNL     1       5.168  -7.165   1.456  0.00  0.00    +0.067 A 
ATOM     37  C   UNL     1       6.421  -6.590   1.294  0.00  0.00    +0.031 A 
ATOM     38  N   UNL     1       3.995  -6.760   2.061  0.00  0.00    -0.340 N 
ATOM     39  C   UNL     1       3.091  -7.764   1.902  0.00  0.00    +0.128 A 
ATOM     40  N   UNL     1       3.628  -8.750   1.245  0.00  0.00    -0.231 NA
ATOM     41  H   UNL     1       3.844  -5.917   2.516  0.00  0.00    +0.167 HD
ENDBRANCH  29  39
ENDBRANCH  25  29
ENDBRANCH   1  26
TORSDOF 5
