REMARK  Name = ZINC45994444
REMARK  5 active torsions:
REMARK  status: ('A' for Active; 'I' for Inactive)
REMARK    1  A    between atoms: C_1  and  N_2
REMARK    2  A    between atoms: C_5  and  N_20
REMARK    3  A    between atoms: C_6  and  N_15
REMARK    4  A    between atoms: N_9  and  C_14
REMARK    5  A    between atoms: C_21  and  C_23
REMARK                            x       y       z     vdW  Elec       q    Type
REMARK                         _______ _______ _______ _____ _____    ______ ____
ROOT
ATOM      1  C   UNL     1      -0.023   1.477   0.043  0.00  0.00    +0.153 C 
ATOM      2  N   UNL     1       0.002   0.012   0.037  0.00  0.00    -0.305 N 
ATOM      3  C   UNL     1      -1.193  -0.704   0.032  0.00  0.00    +0.070 A 
ATOM      4  C   UNL     1      -2.404  -0.019   0.031  0.00  0.00    +0.053 A 
ATOM      5  C   UNL     1      -3.597  -0.719   0.026  0.00  0.00    +0.057 A 
ATOM      6  C   UNL     1      -3.588  -2.117   0.021  0.00  0.00    +0.053 A 
ATOM      7  C   UNL     1      -2.385  -2.801   0.022  0.00  0.00    +0.053 A 
ATOM      8  C   UNL     1      -1.184  -2.100   0.026  0.00  0.00    +0.070 A 
ATOM      9  N   UNL     1       0.020  -2.800   0.026  0.00  0.00    -0.305 N 
ATOM     10  C   UNL     1       1.191  -2.132   0.032  0.00  0.00    +0.316 A 
ATOM     11  O   UNL     1       2.244  -2.738   0.032  0.00  0.00    -0.262 OA
ATOM     12  C   UNL     1       1.182  -0.641   0.032  0.00  0.00    +0.316 A 
ATOM     13  O   UNL     1       2.226  -0.021   0.032  0.00  0.00    -0.262 OA
ATOM     14  C   UNL     1       0.014  -4.265   0.020  0.00  0.00    +0.153 C 
ENDROOT
BRANCH   6  15
ATOM     15  N   UNL     1      -4.795  -2.824   0.017  0.00  0.00    -0.328 N 
ATOM     16  C   UNL     1      -5.529  -3.259  -1.181  0.00  0.00    +0.105 C 
ATOM     17  C   UNL     1      -6.808  -3.975  -0.700  0.00  0.00    +0.020 C 
ATOM     18  C   UNL     1      -7.007  -3.409   0.731  0.00  0.00    +0.020 C 
ATOM     19  C   UNL     1      -5.539  -3.262   1.212  0.00  0.00    +0.105 C 
ENDBRANCH   6  15
BRANCH   5  20
ATOM     20  N   UNL     1      -4.815  -0.027   0.026  0.00  0.00    -0.277 N 
ATOM     21  C   UNL     1      -4.877   1.228  -0.460  0.00  0.00    +0.284 C 
ATOM     22  O   UNL     1      -3.900   1.724  -0.991  0.00  0.00    -0.266 OA
ATOM     23  H   UNL     1      -5.614  -0.451   0.376  0.00  0.00    +0.155 HD
BRANCH  21  24
ATOM     24  C   UNL     1      -6.120   1.996  -0.351  0.00  0.00    +0.191 A 
ATOM     25  C   UNL     1      -6.319   3.270  -0.804  0.00  0.00    +0.056 A 
ATOM     26  C   UNL     1      -7.644   3.607  -0.490  0.00  0.00    +0.058 A 
ATOM     27  C   UNL     1      -8.190   2.538   0.134  0.00  0.00    +0.171 A 
ATOM     28  O   UNL     1      -7.270   1.568   0.210  0.00  0.00    -0.444 OA
ATOM     29 BR   UNL     1      -9.962   2.429   0.784  0.00  0.00    -0.008 Br
ENDBRANCH  21  24
ENDBRANCH   5  20
TORSDOF 3
