REMARK  Name = ZINC13124475
REMARK  4 active torsions:
REMARK  status: ('A' for Active; 'I' for Inactive)
REMARK    1  A    between atoms: C_3  and  C_6
REMARK    2  A    between atoms: C_9  and  C_29
REMARK    3  A    between atoms: C_13  and  C_16
REMARK    4  A    between atoms: N_18  and  C_19
REMARK                            x       y       z     vdW  Elec       q    Type
REMARK                         _______ _______ _______ _____ _____    ______ ____
ROOT
ATOM      1  C   UNL     1       3.600   0.624  -0.032  0.00  0.00    +0.140 C 
ATOM      2  C   UNL     1       4.089   0.351  -1.459  0.00  0.00    +0.066 C 
ATOM      3  C   UNL     1       5.621   0.362  -1.494  0.00  0.00    +0.215 C 
ATOM      4  N   UNL     1       6.126  -0.498  -0.420  0.00  0.00    -0.238 N 
ATOM      5  C   UNL     1       5.389  -0.869   0.654  0.00  0.00    +0.130 A 
ATOM      6  C   UNL     1       6.184  -1.674   1.449  0.00  0.00    +0.096 A 
ATOM      7  C   UNL     1       7.442  -1.771   0.802  0.00  0.00    +0.149 A 
ATOM      8  N   UNL     1       7.391  -1.071  -0.298  0.00  0.00    -0.177 NA
ATOM      9  N   UNL     1       4.079  -0.461   0.847  0.00  0.00    -0.319 N 
ATOM     10  H   UNL     1       3.508  -0.868   1.517  0.00  0.00    +0.148 HD
ENDROOT
BRANCH   1  13
ATOM     11  C   UNL     1      -0.011   1.355   0.019  0.00  0.00    +0.041 A 
ATOM     12  C   UNL     1       1.338   1.778   0.001  0.00  0.00    +0.046 A 
ATOM     13  C   UNL     1       2.094   0.665  -0.011  0.00  0.00    +0.125 A 
ATOM     14  O   UNL     1       1.279  -0.402  -0.001  0.00  0.00    -0.466 OA
ATOM     15  C   UNL     1       0.001   0.010   0.017  0.00  0.00    +0.195 A 
ENDBRANCH   1  13
BRANCH   6  16
ATOM     16  C   UNL     1       5.799  -2.305   2.717  0.00  0.00    +0.253 C 
ATOM     17  O   UNL     1       4.680  -2.139   3.164  0.00  0.00    -0.270 OA
ATOM     18  N   UNL     1       6.686  -3.069   3.385  0.00  0.00    -0.281 N 
ATOM     19  H   UNL     1       7.555  -3.256   2.996  0.00  0.00    +0.155 HD
BRANCH  18  20
ATOM     20  C   UNL     1       6.354  -3.591   4.639  0.00  0.00    +0.034 A 
ATOM     21  C   UNL     1       5.050  -3.989   4.905  0.00  0.00    +0.023 A 
ATOM     22  C   UNL     1       4.728  -4.504   6.144  0.00  0.00    +0.006 A 
ATOM     23  C   UNL     1       5.699  -4.625   7.125  0.00  0.00    -0.044 A 
ATOM     24  C   UNL     1       6.998  -4.229   6.864  0.00  0.00    -0.042 A 
ATOM     25  C   UNL     1       7.327  -3.718   5.620  0.00  0.00    +0.027 A 
ATOM     26  C   UNL     1       7.860  -4.462   8.086  0.00  0.00    +0.036 C 
ATOM     27  C   UNL     1       6.866  -4.629   9.255  0.00  0.00    +0.009 C 
ATOM     28  C   UNL     1       5.601  -5.150   8.542  0.00  0.00    +0.036 C 
ENDBRANCH  18  20
ENDBRANCH   6  16
BRANCH   3  29
ATOM     29  C   UNL     1       6.106  -0.164  -2.847  0.00  0.00    +0.412 C 
ATOM     30  F   UNL     1       5.611   0.652  -3.869  0.00  0.00    -0.168 F 
ATOM     31  F   UNL     1       7.505  -0.153  -2.877  0.00  0.00    -0.168 F 
ATOM     32  F   UNL     1       5.646  -1.472  -3.030  0.00  0.00    -0.168 F 
ENDBRANCH   3  29
TORSDOF 4
