REMARK  Name = ZINC65410971
REMARK  4 active torsions:
REMARK  status: ('A' for Active; 'I' for Inactive)
REMARK    1  A    between atoms: C_1  and  C_2
REMARK    2  A    between atoms: C_2  and  C_4
REMARK    3  A    between atoms: C_2  and  N_13
REMARK    4  A    between atoms: C_14  and  C_16
REMARK                            x       y       z     vdW  Elec       q    Type
REMARK                         _______ _______ _______ _____ _____    ______ ____
ROOT
ATOM      1  N   UNL     1      -0.779   3.056  -1.238  0.00  0.00    -0.303 N 
ATOM      2  C   UNL     1       0.271   3.748  -1.723  0.00  0.00    +0.250 C 
ATOM      3  O   UNL     1       1.273   3.160  -2.084  0.00  0.00    -0.270 OA
ATOM      4  H   UNL     1      -1.548   3.528  -0.882  0.00  0.00    +0.150 HD
ENDROOT
BRANCH   2   5
ATOM      5  C   UNL     1       0.206   5.215  -1.816  0.00  0.00    +0.101 A 
ATOM      6  C   UNL     1       1.228   5.935  -2.422  0.00  0.00    +0.023 A 
ATOM      7  C   UNL     1       1.141   7.332  -2.501  0.00  0.00    -0.027 A 
ATOM      8  C   UNL     1       2.288   8.058  -3.155  0.00  0.00    +0.037 C 
ATOM      9  C   UNL     1       1.876   9.474  -3.552  0.00  0.00    +0.005 C 
ATOM     10  C   UNL     1       1.237  10.147  -2.332  0.00  0.00    +0.006 C 
ATOM     11  C   UNL     1      -0.103   9.468  -2.058  0.00  0.00    +0.053 C 
ATOM     12  C   UNL     1       0.061   7.970  -1.993  0.00  0.00    +0.022 A 
ATOM     13  N   UNL     1      -0.939   7.265  -1.392  0.00  0.00    -0.325 N 
ATOM     14  C   UNL     1      -0.906   5.926  -1.294  0.00  0.00    +0.261 A 
ATOM     15  O   UNL     1      -1.821   5.327  -0.757  0.00  0.00    -0.267 OA
ATOM     16  H   UNL     1      -1.699   7.744  -1.027  0.00  0.00    +0.169 HD
ENDBRANCH   2   5
BRANCH   1  18
ATOM     17  C   UNL     1      -0.034   1.082  -0.001  0.00  0.00    +0.034 C 
ATOM     18  C   UNL     1      -0.758   1.591  -1.249  0.00  0.00    +0.116 C 
BRANCH  18  19
ATOM     19  C   UNL     1      -2.172   1.070  -1.257  0.00  0.00    +0.054 C 
ATOM     20  C   UNL     1      -2.602  -0.282  -1.792  0.00  0.00    +0.159 C 
ATOM     21  N   UNL     1      -3.926  -0.495  -1.173  0.00  0.00    -0.300 N 
ATOM     22  C   UNL     1      -4.801  -1.408  -0.615  0.00  0.00    +0.080 C 
ATOM     23  C   UNL     1      -5.659  -1.041   0.335  0.00  0.00    +0.059 C 
ATOM     24  S   UNL     1      -5.394   0.723   0.481  0.00  0.00    -0.086 S 
ATOM     25  C   UNL     1      -4.404   0.919  -1.055  0.00  0.00    +0.255 C 
ATOM     26  N   UNL     1      -3.195   1.698  -0.809  0.00  0.00    -0.256 NA
ENDBRANCH  18  19
ENDBRANCH   1  18
TORSDOF 3
