REMARK  Name = ZINC22101783
REMARK  8 active torsions:
REMARK  status: ('A' for Active; 'I' for Inactive)
REMARK    1  A    between atoms: C_1  and  C_2
REMARK    2  A    between atoms: C_3  and  C_34
REMARK    3  A    between atoms: N_9  and  C_29
REMARK    4  A    between atoms: C_10  and  S_12
REMARK    5  A    between atoms: S_12  and  C_13
REMARK    6  A    between atoms: C_13  and  C_14
REMARK    7  A    between atoms: C_16  and  O_17
REMARK    8  A    between atoms: C_26  and  C_28
REMARK                            x       y       z     vdW  Elec       q    Type
REMARK                         _______ _______ _______ _____ _____    ______ ____
ROOT
ATOM      1  S   UNL     1       1.075  -7.387  -1.238  0.00  0.00    -0.083 S 
ENDROOT
BRANCH   1  11
ATOM      2  C   UNL     1       7.180 -10.678  -0.640  0.00  0.00    +0.045 C 
ATOM      3  C   UNL     1       6.156 -10.086   0.294  0.00  0.00    -0.026 A 
ATOM      4  C   UNL     1       6.341 -10.134   1.621  0.00  0.00    -0.008 A 
ATOM      5  S   UNL     1       4.893  -9.322   2.271  0.00  0.00    -0.073 S 
ATOM      6  C   UNL     1       4.080  -8.942   0.740  0.00  0.00    +0.117 A 
ATOM      7  C   UNL     1       4.958  -9.457  -0.234  0.00  0.00    +0.075 A 
ATOM      8  C   UNL     1       4.547  -9.287  -1.593  0.00  0.00    +0.263 A 
ATOM      9  O   UNL     1       5.243  -9.701  -2.505  0.00  0.00    -0.267 OA
ATOM     10  N   UNL     1       3.380  -8.670  -1.853  0.00  0.00    -0.284 N 
ATOM     11  C   UNL     1       2.591  -8.195  -0.847  0.00  0.00    +0.173 A 
ATOM     12  N   UNL     1       2.944  -8.338   0.415  0.00  0.00    -0.216 NA
ATOM     13  C   UNL     1       7.497 -10.731   2.382  0.00  0.00    +0.052 C 
BRANCH  10  14
ATOM     14  C   UNL     1       2.952  -8.499  -3.244  0.00  0.00    +0.093 C 
ATOM     15  C   UNL     1       2.749  -9.876  -3.908  0.00  0.00    +0.025 C 
ATOM     16  C   UNL     1       3.251  -9.675  -5.360  0.00  0.00    +0.002 C 
ATOM     17  C   UNL     1       4.475  -8.744  -5.174  0.00  0.00    +0.002 C 
ATOM     18  C   UNL     1       4.048  -7.779  -4.049  0.00  0.00    +0.025 C 
ENDBRANCH  10  14
ENDBRANCH   1  11
BRANCH   1  19
ATOM     19  C   UNL     1       0.484  -7.001   0.429  0.00  0.00    +0.113 C 
BRANCH  19  20
ATOM     20  C   UNL     1      -0.839  -6.286   0.340  0.00  0.00    -0.020 A 
ATOM     21  C   UNL     1      -2.008  -6.978   0.339  0.00  0.00    +0.092 A 
ATOM     22  C   UNL     1      -3.233  -6.286   0.255  0.00  0.00    +0.285 A 
ATOM     23  O   UNL     1      -3.283  -4.947   0.175  0.00  0.00    -0.425 OA
ATOM     24  C   UNL     1      -2.158  -4.199   0.171  0.00  0.00    +0.141 A 
ATOM     25  C   UNL     1      -0.900  -4.825   0.252  0.00  0.00    +0.022 A 
ATOM     26  C   UNL     1       0.268  -4.054   0.249  0.00  0.00    +0.013 A 
ATOM     27  C   UNL     1       0.184  -2.695   0.161  0.00  0.00    +0.024 A 
ATOM     28  C   UNL     1      -1.059  -2.068   0.086  0.00  0.00    +0.037 A 
ATOM     29  C   UNL     1      -2.227  -2.817   0.088  0.00  0.00    +0.070 A 
ATOM     30  N   UNL     1      -1.129  -0.677   0.003  0.00  0.00    -0.286 N 
ATOM     31  C   UNL     1      -2.139  -0.016   0.603  0.00  0.00    +0.214 C 
ATOM     32  O   UNL     1      -3.030  -0.634   1.146  0.00  0.00    -0.276 OA
ATOM     33  C   UNL     1      -2.160   1.491   0.600  0.00  0.00    +0.109 C 
ATOM     34  H   UNL     1      -0.360  -0.120  -0.552  0.00  0.00    +0.155 HD
BRANCH  22  35
ATOM     35  O   UNL     1      -4.274  -6.919   0.255  0.00  0.00    -0.480 OA
ATOM     36  H   UNL     1      -5.237  -6.393   0.189  0.00  0.00    +0.295 HD
ENDBRANCH  22  35
ENDBRANCH  19  20
ENDBRANCH   1  19
TORSDOF 5
