REMARK  Name = ZINC45898213
REMARK  8 active torsions:
REMARK  status: ('A' for Active; 'I' for Inactive)
REMARK    1  A    between atoms: C_1  and  C_2
REMARK    2  A    between atoms: C_2  and  N_3
REMARK    3  A    between atoms: N_6  and  C_9
REMARK    4  A    between atoms: C_12  and  N_15
REMARK    5  A    between atoms: C_16  and  C_18
REMARK    6  A    between atoms: C_20  and  C_29
REMARK    7  A    between atoms: C_24  and  C_28
REMARK    8  A    between atoms: N_26  and  C_27
REMARK                            x       y       z     vdW  Elec       q    Type
REMARK                         _______ _______ _______ _____ _____    ______ ____
ROOT
ATOM      1  N   UNL     1       6.624  -5.834   3.384  0.00  0.00    -0.281 N 
ATOM      2  C   UNL     1       6.522  -6.866   4.244  0.00  0.00    +0.249 C 
ATOM      3  O   UNL     1       5.436  -7.181   4.690  0.00  0.00    -0.270 OA
ATOM      4  H   UNL     1       7.479  -5.625   2.975  0.00  0.00    +0.155 HD
ENDROOT
BRANCH   2   5
ATOM      5  C   UNL     1       7.732  -7.615   4.646  0.00  0.00    +0.051 A 
ATOM      6  C   UNL     1       8.729  -7.912   3.724  0.00  0.00    +0.042 A 
ATOM      7  C   UNL     1       9.860  -8.624   4.144  0.00  0.00    +0.081 A 
ATOM      8  N   UNL     1       9.997  -9.020   5.402  0.00  0.00    -0.227 NA
ATOM      9  C   UNL     1       9.078  -8.764   6.320  0.00  0.00    +0.160 A 
ATOM     10  C   UNL     1       7.912  -8.047   5.981  0.00  0.00    +0.054 A 
ATOM     11  C   UNL     1       7.141  -7.928   7.156  0.00  0.00    +0.070 A 
ATOM     12  N   UNL     1       7.777  -8.513   8.131  0.00  0.00    -0.174 NA
ATOM     13  N   UNL     1       8.978  -9.053   7.656  0.00  0.00    -0.249 N 
ATOM     14  C   UNL     1       9.965  -9.786   8.453  0.00  0.00    +0.174 C 
ATOM     15  C   UNL     1       5.806  -7.239   7.266  0.00  0.00    +0.068 C 
BRANCH   7  16
ATOM     16  C   UNL     1      10.919  -8.940   3.167  0.00  0.00    +0.038 A 
ATOM     17  C   UNL     1      12.093  -9.623   3.356  0.00  0.00    +0.017 A 
ATOM     18  C   UNL     1      12.936  -9.797   2.283  0.00  0.00    +0.008 A 
ATOM     19  C   UNL     1      12.582  -9.291   1.072  0.00  0.00    +0.046 A 
ATOM     20  S   UNL     1      11.002  -8.540   1.429  0.00  0.00    -0.095 S 
ENDBRANCH   7  16
ENDBRANCH   2   5
BRANCH   1  24
ATOM     21  C   UNL     1       3.265  -3.534   2.480  0.00  0.00    +0.030 A 
ATOM     22  C   UNL     1       4.514  -2.934   2.566  0.00  0.00    +0.025 A 
ATOM     23  C   UNL     1       5.626  -3.696   2.865  0.00  0.00    +0.025 A 
ATOM     24  C   UNL     1       5.496  -5.061   3.080  0.00  0.00    +0.034 A 
ATOM     25  C   UNL     1       4.246  -5.662   2.994  0.00  0.00    +0.025 A 
ATOM     26  C   UNL     1       3.133  -4.899   2.701  0.00  0.00    +0.025 A 
BRANCH  21  30
ATOM     27  N   UNL     1       0.194  -1.429   0.676  0.00  0.00    +0.382 N 
ATOM     28  C   UNL     1       1.568  -0.911   0.698  0.00  0.00    -0.060 C 
ATOM     29  C   UNL     1       2.240  -1.304   2.018  0.00  0.00    +0.086 C 
ATOM     30  N   UNL     1       2.138  -2.763   2.177  0.00  0.00    -0.333 N 
ATOM     31  C   UNL     1       0.817  -3.388   2.008  0.00  0.00    +0.086 C 
ATOM     32  C   UNL     1       0.212  -2.897   0.689  0.00  0.00    -0.060 C 
ATOM     33  H   UNL     1      -0.302  -1.093   1.488  0.00  0.00    -0.082 HD
BRANCH  27  35
ATOM     34  C   UNL     1      -0.615   0.565  -0.494  0.00  0.00    -0.017 C 
ATOM     35  C   UNL     1      -0.484  -0.959  -0.539  0.00  0.00    -0.082 C 
ENDBRANCH  27  35
ENDBRANCH  21  30
ENDBRANCH   1  24
TORSDOF 5
