REMARK  Name = ZINC02558303
REMARK  4 active torsions:
REMARK  status: ('A' for Active; 'I' for Inactive)
REMARK    1  A    between atoms: C_3  and  C_9
REMARK    2  A    between atoms: C_9  and  O_10
REMARK    3  A    between atoms: O_10  and  C_11
REMARK    4  A    between atoms: C_16  and  C_17
REMARK                            x       y       z     vdW  Elec       q    Type
REMARK                         _______ _______ _______ _____ _____    ______ ____
ROOT
ATOM      1  O   UNL     1      -2.232  -0.423   0.009  0.00  0.00    -0.487 OA
ENDROOT
BRANCH   1   2
ATOM      2  C   UNL     1      -3.296  -1.264   0.009  0.00  0.00    +0.131 A 
ATOM      3  C   UNL     1      -4.586  -0.756   0.018  0.00  0.00    +0.048 A 
ATOM      4  C   UNL     1      -5.668  -1.613   0.017  0.00  0.00    +0.023 A 
ATOM      5  C   UNL     1      -5.477  -2.987   0.008  0.00  0.00    +0.042 A 
ATOM      6  C   UNL     1      -4.203  -3.512   0.000  0.00  0.00    +0.034 A 
ATOM      7  C   UNL     1      -3.096  -2.654  -0.005  0.00  0.00    +0.057 A 
ATOM      8 CL   UNL     1      -6.849  -4.051   0.007  0.00  0.00    -0.084 Cl
BRANCH   7   9
ATOM      9  C   UNL     1      -1.735  -3.205  -0.020  0.00  0.00    +0.262 C 
ATOM     10  O   UNL     1      -0.779  -2.458  -0.020  0.00  0.00    -0.296 OA
ENDBRANCH   7   9
ENDBRANCH   1   2
BRANCH   1  11
ATOM     11  C   UNL     1      -2.513   0.978   0.019  0.00  0.00    +0.266 C 
BRANCH  11  14
ATOM     12  C   UNL     1       1.175   1.783   0.000  0.00  0.00    +0.039 A 
ATOM     13  C   UNL     1      -0.013   1.076   0.008  0.00  0.00    +0.011 A 
ATOM     14  C   UNL     1      -1.219   1.750   0.017  0.00  0.00    +0.008 A 
ATOM     15  C   UNL     1      -1.239   3.134   0.031  0.00  0.00    +0.050 A 
ATOM     16  C   UNL     1      -0.052   3.843   0.023  0.00  0.00    +0.058 A 
ATOM     17  C   UNL     1       1.157   3.167   0.008  0.00  0.00    +0.125 A 
ATOM     18  F   UNL     1       2.318   3.858   0.000  0.00  0.00    -0.205 F 
ATOM     19 CL   UNL     1      -2.755   3.980   0.049  0.00  0.00    -0.083 Cl
ENDBRANCH  11  14
ENDBRANCH   1  11
TORSDOF 4
