REMARK  Name = ZINC63362479
REMARK  8 active torsions:
REMARK  status: ('A' for Active; 'I' for Inactive)
REMARK    1  A    between atoms: C_1  and  C_2
REMARK    2  A    between atoms: C_8  and  O_13
REMARK    3  A    between atoms: O_13  and  C_14
REMARK    4  A    between atoms: N_20  and  C_23
REMARK    5  A    between atoms: C_26  and  C_29
REMARK    6  A    between atoms: N_31  and  C_32
REMARK    7  A    between atoms: C_35  and  O_38
REMARK    8  A    between atoms: O_38  and  C_39
REMARK                            x       y       z     vdW  Elec       q    Type
REMARK                         _______ _______ _______ _____ _____    ______ ____
ROOT
ATOM      1  C   UNL     1       0.000   1.459  -0.057  0.00  0.00    +0.044 C 
ATOM      2  C   UNL     1       0.022  -0.070  -0.036  0.00  0.00    +0.137 C 
ATOM      3  C   UNL     1       0.748  -0.633  -1.258  0.00  0.00    +0.139 C 
ATOM      4  C   UNL     1       1.865  -1.531  -0.747  0.00  0.00    -0.034 C 
ATOM      5  C   UNL     1       1.668  -2.723  -1.303  0.00  0.00    +0.003 A 
ATOM      6  C   UNL     1       2.441  -3.973  -1.241  0.00  0.00    +0.055 A 
ATOM      7  C   UNL     1       1.942  -5.034  -1.934  0.00  0.00    +0.121 A 
ATOM      8  C   UNL     1       0.757  -4.993  -2.683  0.00  0.00    +0.047 A 
ATOM      9  C   UNL     1      -0.030  -3.894  -2.811  0.00  0.00    +0.029 A 
ATOM     10  C   UNL     1       0.409  -2.680  -2.110  0.00  0.00    +0.043 A 
ATOM     11  N   UNL     1      -0.129  -1.482  -2.068  0.00  0.00    -0.375 N 
ATOM     12  C   UNL     1       2.903  -1.086   0.254  0.00  0.00    +0.052 C 
ATOM     13  C   UNL     1       2.142  -0.467   1.444  0.00  0.00    +0.115 C 
ATOM     14  N   UNL     1       0.707  -0.585   1.169  0.00  0.00    -0.268 N 
ATOM     15  C   UNL     1      -0.229  -1.186   1.916  0.00  0.00    +0.316 C 
ATOM     16  O   UNL     1      -0.029  -1.620   3.033  0.00  0.00    -0.252 OA
ATOM     17  N   UNL     1      -1.412  -1.253   1.289  0.00  0.00    -0.192 N 
ATOM     18  C   UNL     1      -1.373  -0.641   0.087  0.00  0.00    +0.253 C 
ATOM     19  O   UNL     1      -2.270  -0.564  -0.725  0.00  0.00    -0.272 OA
ATOM     20  H   UNL     1      -0.958  -1.203  -2.489  0.00  0.00    +0.160 HD
ENDROOT
BRANCH  17  21
ATOM     21  C   UNL     1      -2.546  -1.879   1.815  0.00  0.00    +0.045 A 
ATOM     22  C   UNL     1      -3.760  -1.793   1.143  0.00  0.00    +0.025 A 
ATOM     23  C   UNL     1      -4.879  -2.408   1.659  0.00  0.00    +0.015 A 
ATOM     24  C   UNL     1      -4.793  -3.120   2.859  0.00  0.00    +0.037 A 
ATOM     25  C   UNL     1      -3.571  -3.204   3.531  0.00  0.00    +0.015 A 
ATOM     26  C   UNL     1      -2.455  -2.591   3.006  0.00  0.00    +0.025 A 
BRANCH  24  27
ATOM     27  C   UNL     1      -5.990  -3.780   3.415  0.00  0.00    +0.248 C 
ATOM     28  O   UNL     1      -7.053  -3.706   2.829  0.00  0.00    -0.270 OA
ATOM     29  N   UNL     1      -5.905  -4.466   4.572  0.00  0.00    -0.281 N 
ATOM     30  H   UNL     1      -5.079  -4.459   5.080  0.00  0.00    +0.155 HD
BRANCH  29  31
ATOM     31  C   UNL     1      -7.009  -5.188   5.041  0.00  0.00    +0.034 A 
ATOM     32  C   UNL     1      -7.254  -5.276   6.405  0.00  0.00    +0.027 A 
ATOM     33  C   UNL     1      -8.343  -5.988   6.866  0.00  0.00    +0.047 A 
ATOM     34  C   UNL     1      -9.193  -6.615   5.968  0.00  0.00    +0.120 A 
ATOM     35  C   UNL     1      -8.950  -6.528   4.605  0.00  0.00    +0.047 A 
ATOM     36  C   UNL     1      -7.864  -5.812   4.141  0.00  0.00    +0.027 A 
BRANCH  34  37
ATOM     37  O   UNL     1     -10.266  -7.316   6.423  0.00  0.00    -0.495 OA
ATOM     38  C   UNL     1     -11.099  -7.937   5.441  0.00  0.00    +0.277 C 
ENDBRANCH  34  37
ENDBRANCH  29  31
ENDBRANCH  24  27
ENDBRANCH  17  21
BRANCH   7  39
ATOM     39  O   UNL     1       2.634  -6.203  -1.896  0.00  0.00    -0.495 OA
ATOM     40  C   UNL     1       2.090  -7.302  -2.630  0.00  0.00    +0.277 C 
ENDBRANCH   7  39
TORSDOF 5
