REMARK  Name = ZINC20037329
REMARK  5 active torsions:
REMARK  status: ('A' for Active; 'I' for Inactive)
REMARK    1  A    between atoms: C_1  and  C_2
REMARK    2  A    between atoms: C_4  and  C_15
REMARK    3  A    between atoms: C_5  and  C_14
REMARK    4  A    between atoms: N_6  and  C_7
REMARK    5  A    between atoms: C_21  and  C_27
REMARK                            x       y       z     vdW  Elec       q    Type
REMARK                         _______ _______ _______ _____ _____    ______ ____
ROOT
ATOM      1  C   UNL     1       0.885   1.565  -0.548  0.00  0.00    +0.064 C 
ATOM      2  C   UNL     1       0.643   0.086  -0.387  0.00  0.00    +0.022 A 
ATOM      3  C   UNL     1       0.473  -0.788  -1.392  0.00  0.00    +0.031 A 
ATOM      4  C   UNL     1       0.271  -2.104  -0.769  0.00  0.00    -0.003 A 
ATOM      5  C   UNL     1       0.341  -1.891   0.598  0.00  0.00    +0.028 A 
ATOM      6  N   UNL     1       0.569  -0.578   0.806  0.00  0.00    -0.316 N 
ATOM      7  C   UNL     1       0.194  -2.943   1.667  0.00  0.00    +0.064 C 
ENDROOT
BRANCH   4   8
ATOM      8  C   UNL     1       0.042  -3.376  -1.451  0.00  0.00    +0.026 C 
ATOM      9  C   UNL     1      -0.649  -3.403  -2.645  0.00  0.00    +0.079 C 
ATOM     10  C   UNL     1      -0.761  -4.644  -3.460  0.00  0.00    +0.135 C 
ATOM     11  N   UNL     1      -0.816  -5.842  -2.940  0.00  0.00    -0.284 NA
ATOM     12  N   UNL     1      -0.801  -4.400  -4.851  0.00  0.00    -0.241 N 
ATOM     13  C   UNL     1      -0.456  -5.304  -5.815  0.00  0.00    +0.094 C 
ATOM     14  C   UNL     1      -0.606  -4.944  -7.093  0.00  0.00    +0.004 C 
ATOM     15  S   UNL     1      -1.247  -3.286  -6.941  0.00  0.00    -0.060 S 
ATOM     16  C   UNL     1      -1.226  -3.161  -5.276  0.00  0.00    +0.163 C 
ATOM     17  N   UNL     1      -1.515  -2.125  -4.518  0.00  0.00    -0.154 NA
ATOM     18  C   UNL     1      -1.327  -2.201  -3.185  0.00  0.00    +0.273 C 
ATOM     19  O   UNL     1      -1.700  -1.305  -2.445  0.00  0.00    -0.268 OA
ATOM     20  C   UNL     1      -0.311  -5.735  -8.341  0.00  0.00    +0.053 C 
ATOM     21  H   UNL     1      -0.784  -5.955  -1.977  0.00  0.00    +0.188 HD
ENDBRANCH   4   8
BRANCH   6  22
ATOM     22  C   UNL     1       0.706   0.020   2.066  0.00  0.00    +0.065 A 
ATOM     23  C   UNL     1      -0.412   0.509   2.729  0.00  0.00    +0.027 A 
ATOM     24  C   UNL     1      -0.273   1.098   3.971  0.00  0.00    +0.002 A 
ATOM     25  C   UNL     1       0.976   1.202   4.554  0.00  0.00    +0.002 A 
ATOM     26  C   UNL     1       2.092   0.718   3.896  0.00  0.00    +0.022 A 
ATOM     27  C   UNL     1       1.960   0.121   2.656  0.00  0.00    +0.065 A 
ATOM     28 CL   UNL     1       3.359  -0.494   1.833  0.00  0.00    -0.081 Cl
ENDBRANCH   6  22
TORSDOF 2
