REMARK  Name = ZINC39681134
REMARK  6 active torsions:
REMARK  status: ('A' for Active; 'I' for Inactive)
REMARK    1  A    between atoms: C_1  and  C_2
REMARK    2  A    between atoms: C_2  and  C_4
REMARK    3  A    between atoms: C_2  and  N_10
REMARK    4  A    between atoms: C_11  and  C_13
REMARK    5  A    between atoms: C_24  and  C_26
REMARK    6  A    between atoms: C_29  and  C_31
REMARK                            x       y       z     vdW  Elec       q    Type
REMARK                         _______ _______ _______ _____ _____    ______ ____
ROOT
ATOM      1  C   UNL     1       2.783  -1.099   2.395  0.00  0.00    +0.100 C 
ATOM      2  C   UNL     1       2.274  -2.504   2.788  0.00  0.00    +0.121 C 
ATOM      3  N   UNL     1       3.225  -3.441   2.144  0.00  0.00    -0.294 N 
ATOM      4  C   UNL     1       4.548  -2.793   2.309  0.00  0.00    +0.115 C 
ATOM      5  C   UNL     1       4.277  -1.293   2.085  0.00  0.00    -0.004 C 
ATOM      6  C   UNL     1       4.569  -0.916   0.635  0.00  0.00    -0.010 C 
ATOM      7  C   UNL     1       6.069  -1.062   0.367  0.00  0.00    -0.082 C 
ATOM      8  N   UNL     1       6.818  -0.191   1.281  0.00  0.00    +0.379 N 
ATOM      9  C   UNL     1       6.605  -0.619   2.669  0.00  0.00    -0.082 C 
ATOM     10  C   UNL     1       5.127  -0.454   3.034  0.00  0.00    -0.010 C 
ATOM     11  C   UNL     1       2.949  -4.615   1.544  0.00  0.00    +0.282 C 
ATOM     12  O   UNL     1       3.848  -5.276   1.058  0.00  0.00    -0.267 OA
ATOM     13  H   UNL     1       7.802  -0.243   1.062  0.00  0.00    -0.086 HD
ATOM     14  H   UNL     1       6.502   0.760   1.171  0.00  0.00    -0.086 HD
ENDROOT
BRANCH  11  15
ATOM     15  C   UNL     1       1.567  -5.097   1.477  0.00  0.00    +0.190 A 
ATOM     16  C   UNL     1       1.148  -6.276   0.901  0.00  0.00    +0.055 A 
ATOM     17  C   UNL     1      -0.240  -6.333   1.062  0.00  0.00    +0.050 A 
ATOM     18  C   UNL     1      -0.615  -5.199   1.724  0.00  0.00    +0.136 A 
ATOM     19  O   UNL     1       0.482  -4.465   1.974  0.00  0.00    -0.450 OA
BRANCH  18  20
ATOM     20  C   UNL     1      -1.996  -4.842   2.107  0.00  0.00    +0.017 A 
ATOM     21  C   UNL     1      -3.053  -5.700   1.798  0.00  0.00    +0.011 A 
ATOM     22  C   UNL     1      -4.340  -5.361   2.159  0.00  0.00    +0.001 A 
ATOM     23  C   UNL     1      -4.585  -4.173   2.825  0.00  0.00    +0.000 A 
ATOM     24  C   UNL     1      -3.542  -3.318   3.134  0.00  0.00    +0.001 A 
ATOM     25  C   UNL     1      -2.249  -3.648   2.784  0.00  0.00    +0.011 A 
ENDBRANCH  18  20
ENDBRANCH  11  15
BRANCH   1  27
ATOM     26  N   UNL     1       1.885   0.724   0.984  0.00  0.00    -0.308 N 
ATOM     27  C   UNL     1       2.054  -0.600   1.174  0.00  0.00    +0.219 C 
ATOM     28  O   UNL     1       1.619  -1.389   0.362  0.00  0.00    -0.275 OA
ATOM     29  H   UNL     1       2.234   1.355   1.633  0.00  0.00    +0.149 HD
BRANCH  26  31
ATOM     30  C   UNL     1       2.156   1.314  -1.374  0.00  0.00    +0.033 C 
ATOM     31  C   UNL     1       1.177   1.209  -0.203  0.00  0.00    +0.100 C 
BRANCH  31  32
ATOM     32  C   UNL     1       0.589   2.567   0.083  0.00  0.00    -0.025 A 
ATOM     33  C   UNL     1       1.300   3.510   0.809  0.00  0.00    +0.025 A 
ATOM     34  C   UNL     1       0.728   4.744   1.052  0.00  0.00    +0.111 A 
ATOM     35  N   UNL     1      -0.478   5.029   0.603  0.00  0.00    -0.263 NA
ATOM     36  C   UNL     1      -1.183   4.157  -0.091  0.00  0.00    +0.111 A 
ATOM     37  C   UNL     1      -0.674   2.905  -0.379  0.00  0.00    +0.025 A 
ENDBRANCH  31  32
ENDBRANCH  26  31
ENDBRANCH   1  27
TORSDOF 5
