REMARK  Name = ZINC41584750
REMARK  8 active torsions:
REMARK  status: ('A' for Active; 'I' for Inactive)
REMARK    1  A    between atoms: C_1  and  C_2
REMARK    2  A    between atoms: C_4  and  O_39
REMARK    3  A    between atoms: C_5  and  C_22
REMARK    4  A    between atoms: C_11  and  C_12
REMARK    5  A    between atoms: C_15  and  N_18
REMARK    6  A    between atoms: N_18  and  C_19
REMARK    7  A    between atoms: N_18  and  C_20
REMARK    8  A    between atoms: C_22  and  N_23
REMARK                            x       y       z     vdW  Elec       q    Type
REMARK                         _______ _______ _______ _____ _____    ______ ____
ROOT
ATOM      1  C   UNL     1       1.087   1.375   0.035  0.00  0.00    +0.045 C 
ATOM      2  C   UNL     1       0.699  -0.081   0.017  0.00  0.00    -0.033 A 
ATOM      3  C   UNL     1       0.580  -0.743  -1.173  0.00  0.00    +0.050 A 
ATOM      4  C   UNL     1       0.221  -2.088  -1.192  0.00  0.00    +0.122 A 
ATOM      5  C   UNL     1      -0.018  -2.771  -0.010  0.00  0.00    +0.020 A 
ATOM      6  C   UNL     1       0.099  -2.113   1.208  0.00  0.00    +0.145 A 
ATOM      7  C   UNL     1       0.466  -0.757   1.215  0.00  0.00    +0.071 A 
ATOM      8  C   UNL     1       0.514  -0.347   2.630  0.00  0.00    +0.232 C 
ATOM      9  O   UNL     1       0.787   0.753   3.079  0.00  0.00    -0.283 OA
ATOM     10  C   UNL     1       0.157  -1.560   3.378  0.00  0.00    +0.176 C 
ATOM     11  C   UNL     1       0.068  -1.673   4.729  0.00  0.00    +0.058 C 
ATOM     12  O   UNL     1      -0.076  -2.543   2.476  0.00  0.00    -0.451 OA
ENDROOT
BRANCH  11  13
ATOM     13  C   UNL     1       0.170  -0.478   5.573  0.00  0.00    -0.021 A 
ATOM     14  C   UNL     1      -0.452   0.715   5.180  0.00  0.00    +0.010 A 
ATOM     15  C   UNL     1      -0.355   1.825   5.970  0.00  0.00    +0.023 A 
ATOM     16  C   UNL     1       0.360   1.774   7.163  0.00  0.00    +0.029 A 
ATOM     17  C   UNL     1       0.980   0.591   7.558  0.00  0.00    +0.023 A 
ATOM     18  C   UNL     1       0.884  -0.527   6.778  0.00  0.00    +0.010 A 
BRANCH  16  19
ATOM     19  N   UNL     1       0.457   2.907   7.964  0.00  0.00    -0.336 N 
ATOM     20  C   UNL     1      -0.194   4.153   7.551  0.00  0.00    +0.129 C 
ATOM     21  C   UNL     1       1.209   2.855   9.220  0.00  0.00    +0.129 C 
ENDBRANCH  16  19
ENDBRANCH  11  13
BRANCH   4  22
ATOM     22  O   UNL     1       0.104  -2.736  -2.379  0.00  0.00    -0.506 OA
ATOM     23  H   UNL     1       0.923  -3.152  -2.682  0.00  0.00    +0.292 HD
ENDBRANCH   4  22
BRANCH   5  24
ATOM     24  C   UNL     1      -0.406  -4.226  -0.046  0.00  0.00    -0.036 C 
BRANCH  24  25
ATOM     25  N   UNL     1       0.805  -5.057   0.006  0.00  0.00    +0.383 N 
ATOM     26  C   UNL     1       0.436  -6.466  -0.158  0.00  0.00    -0.073 C 
ATOM     27  C   UNL     1       1.662  -7.365  -0.108  0.00  0.00    -0.007 C 
ATOM     28  C   UNL     1       2.438  -7.151   1.196  0.00  0.00    +0.011 C 
ATOM     29  C   UNL     1       2.789  -5.661   1.282  0.00  0.00    +0.020 C 
ATOM     30  C   UNL     1       1.474  -4.864   1.301  0.00  0.00    -0.069 C 
ATOM     31  C   UNL     1       3.558  -5.263   0.042  0.00  0.00    +0.023 A 
ATOM     32  C   UNL     1       4.445  -4.239   0.155  0.00  0.00    +0.022 A 
ATOM     33  C   UNL     1       5.143  -3.777  -0.967  0.00  0.00    +0.007 A 
ATOM     34  C   UNL     1       4.900  -4.354  -2.179  0.00  0.00    +0.070 A 
ATOM     35  C   UNL     1       3.976  -5.405  -2.261  0.00  0.00    +0.251 A 
ATOM     36  O   UNL     1       3.705  -5.888  -3.349  0.00  0.00    -0.268 OA
ATOM     37  N   UNL     1       3.381  -5.892  -1.143  0.00  0.00    -0.312 N 
ATOM     38  C   UNL     1       2.594  -7.114  -1.282  0.00  0.00    +0.126 C 
ATOM     39  H   UNL     1       1.429  -4.786  -0.739  0.00  0.00    -0.081 HD
ENDBRANCH  24  25
ENDBRANCH   5  24
TORSDOF 5
