REMARK  Name = ZINC21755370
REMARK  11 active torsions:
REMARK  status: ('A' for Active; 'I' for Inactive)
REMARK    1  A    between atoms: C_1  and  C_2
REMARK    2  A    between atoms: C_5  and  S_9
REMARK    3  A    between atoms: C_6  and  C_8
REMARK    4  A    between atoms: S_9  and  N_12
REMARK    5  A    between atoms: N_12  and  C_13
REMARK    6  A    between atoms: C_13  and  C_14
REMARK    7  A    between atoms: C_14  and  C_16
REMARK    8  A    between atoms: C_14  and  N_25
REMARK    9  A    between atoms: C_19  and  N_22
REMARK   10  A    between atoms: N_22  and  C_23
REMARK   11  A    between atoms: N_22  and  C_24
REMARK                            x       y       z     vdW  Elec       q    Type
REMARK                         _______ _______ _______ _____ _____    ______ ____
ROOT
ATOM      1  C   UNL     1       5.213   3.124  -3.151  0.00  0.00    -0.021 C 
ENDROOT
BRANCH   1   2
ATOM      2  N   UNL     1       6.528   2.501  -2.951  0.00  0.00    +0.388 N 
ATOM      3  C   UNL     1       7.396   2.716  -4.121  0.00  0.00    -0.073 C 
ATOM      4  C   UNL     1       8.834   2.382  -3.725  0.00  0.00    +0.017 C 
ATOM      5  C   UNL     1       8.885   1.029  -3.063  0.00  0.00    -0.048 A 
ATOM      6  C   UNL     1      10.112   0.392  -2.953  0.00  0.00    +0.004 A 
ATOM      7  C   UNL     1      10.204  -0.846  -2.350  0.00  0.00    +0.000 A 
ATOM      8  C   UNL     1       9.066  -1.455  -1.853  0.00  0.00    +0.000 A 
ATOM      9  C   UNL     1       7.844  -0.823  -1.964  0.00  0.00    +0.002 A 
ATOM     10  C   UNL     1       7.750   0.421  -2.571  0.00  0.00    -0.061 A 
ATOM     11  C   UNL     1       6.394   1.067  -2.675  0.00  0.00    -0.042 C 
ATOM     12  H   UNL     1       6.994   2.979  -2.077  0.00  0.00    -0.080 HD
ENDBRANCH   1   2
BRANCH   1  13
ATOM     13  C   UNL     1       5.379   4.616  -3.287  0.00  0.00    -0.060 A 
ATOM     14  C   UNL     1       6.281   5.286  -2.481  0.00  0.00    +0.004 A 
ATOM     15  C   UNL     1       6.440   6.652  -2.608  0.00  0.00    +0.023 A 
ATOM     16  C   UNL     1       5.685   7.354  -3.538  0.00  0.00    +0.029 A 
ATOM     17  C   UNL     1       4.776   6.679  -4.343  0.00  0.00    +0.023 A 
ATOM     18  C   UNL     1       4.626   5.312  -4.215  0.00  0.00    +0.004 A 
BRANCH  16  19
ATOM     19  N   UNL     1       5.839   8.737  -3.665  0.00  0.00    -0.336 N 
ATOM     20  C   UNL     1       4.959   9.493  -4.560  0.00  0.00    +0.129 C 
ATOM     21  C   UNL     1       6.880   9.431  -2.902  0.00  0.00    +0.129 C 
ENDBRANCH  16  19
ENDBRANCH   1  13
BRANCH   1  22
ATOM     22  C   UNL     1       4.317   2.819  -1.948  0.00  0.00    +0.095 C 
BRANCH  22  23
ATOM     23  N   UNL     1       2.973   3.349  -2.194  0.00  0.00    -0.191 NA
ATOM     24  H   UNL     1       2.835   4.207  -2.869  0.00  0.00    +0.148 HD
BRANCH  23  25
ATOM     25  S   UNL     1       1.697   2.828  -1.277  0.00  0.00    +0.059 S 
ATOM     26  O   UNL     1       1.746   1.407  -1.282  0.00  0.00    -0.153 OA
ATOM     27  O   UNL     1       0.557   3.552  -1.718  0.00  0.00    -0.153 OA
BRANCH  25  32
ATOM     28  C   UNL     1       2.752   4.566   4.404  0.00  0.00    +0.044 C 
ATOM     29  C   UNL     1       2.489   4.132   2.985  0.00  0.00    -0.050 A 
ATOM     30  C   UNL     1       2.448   2.787   2.670  0.00  0.00    +0.005 A 
ATOM     31  C   UNL     1       2.211   2.388   1.368  0.00  0.00    +0.029 A 
ATOM     32  C   UNL     1       2.006   3.335   0.382  0.00  0.00    +0.108 A 
ATOM     33  C   UNL     1       2.042   4.681   0.698  0.00  0.00    -0.024 A 
ATOM     34  C   UNL     1       2.284   5.079   1.999  0.00  0.00    +0.008 A 
ATOM     35  C   UNL     1       1.817   5.713  -0.377  0.00  0.00    +0.046 C 
ENDBRANCH  25  32
ENDBRANCH  23  25
ENDBRANCH  22  23
ENDBRANCH   1  22
TORSDOF 7
