REMARK  Name = ZINC13250692
REMARK  7 active torsions:
REMARK  status: ('A' for Active; 'I' for Inactive)
REMARK    1  A    between atoms: C_5  and  N_7
REMARK    2  A    between atoms: N_7  and  S_8
REMARK    3  A    between atoms: S_8  and  C_11
REMARK    4  A    between atoms: C_15  and  N_17
REMARK    5  A    between atoms: C_18  and  C_20
REMARK    6  A    between atoms: C_20  and  C_21
REMARK    7  A    between atoms: C_21  and  C_28
REMARK                            x       y       z     vdW  Elec       q    Type
REMARK                         _______ _______ _______ _____ _____    ______ ____
ROOT
ATOM      1  C   UNL     1       0.032  -4.822  -0.117  0.00  0.00    +0.112 A 
ATOM      2  C   UNL     1       0.805  -5.204  -1.198  0.00  0.00    +0.029 A 
ATOM      3  C   UNL     1       1.653  -6.292  -1.095  0.00  0.00    +0.004 A 
ATOM      4  C   UNL     1       1.730  -6.999   0.089  0.00  0.00    +0.023 A 
ATOM      5  C   UNL     1       0.955  -6.617   1.176  0.00  0.00    +0.035 A 
ATOM      6  C   UNL     1       0.108  -5.522   1.071  0.00  0.00    +0.052 A 
ENDROOT
BRANCH   5   7
ATOM      7  N   UNL     1       1.031  -7.332   2.377  0.00  0.00    -0.285 N 
ATOM      8  C   UNL     1       1.218  -8.667   2.355  0.00  0.00    +0.218 C 
ATOM      9  O   UNL     1       1.398  -9.238   1.300  0.00  0.00    -0.275 OA
ATOM     10  H   UNL     1       0.949  -6.868   3.224  0.00  0.00    +0.155 HD
BRANCH   8  11
ATOM     11  C   UNL     1       1.202  -9.450   3.643  0.00  0.00    +0.114 C 
BRANCH  11  12
ATOM     12  C   UNL     1       1.581 -10.905   3.359  0.00  0.00    +0.080 C 
ATOM     13  C   UNL     1       1.850 -11.621   4.697  0.00  0.00    +0.019 C 
ATOM     14  C   UNL     1       0.555 -12.035   5.423  0.00  0.00    +0.001 C 
ATOM     15  C   UNL     1      -0.505 -10.969   5.361  0.00  0.00    +0.000 C 
ATOM     16  C   UNL     1      -1.426 -11.264   4.159  0.00  0.00    +0.000 C 
ATOM     17  C   UNL     1      -0.847 -10.826   2.897  0.00  0.00    +0.001 C 
ATOM     18  C   UNL     1       0.474 -11.552   2.572  0.00  0.00    +0.019 C 
BRANCH  12  19
ATOM     19  C   UNL     1       2.843 -10.928   2.534  0.00  0.00    +0.362 C 
ATOM     20  O   UNL     1       3.865 -10.429   2.971  0.00  0.00    -0.246 OA
ATOM     21  O   UNL     1       2.840 -11.446   1.431  0.00  0.00    -0.246 OA
ENDBRANCH  12  19
ENDBRANCH  11  12
ENDBRANCH   8  11
ENDBRANCH   5   7
BRANCH   1  22
ATOM     22  S   UNL     1      -1.047  -3.435  -0.253  0.00  0.00    +0.092 S 
ATOM     23  O   UNL     1      -2.061  -3.611   0.727  0.00  0.00    -0.148 OA
ATOM     24  O   UNL     1      -1.341  -3.284  -1.635  0.00  0.00    -0.148 OA
BRANCH  22  25
ATOM     25  N   UNL     1      -0.182  -2.096   0.196  0.00  0.00    -0.096 NA
BRANCH  25  30
ATOM     26  C   UNL     1      -2.712   0.539  -0.212  0.00  0.00    +0.002 A 
ATOM     27  C   UNL     1      -1.989   1.657   0.164  0.00  0.00    +0.002 A 
ATOM     28  C   UNL     1      -0.667   1.532   0.550  0.00  0.00    +0.022 A 
ATOM     29  C   UNL     1      -0.064   0.288   0.562  0.00  0.00    +0.065 A 
ATOM     30  C   UNL     1      -0.788  -0.837   0.185  0.00  0.00    +0.093 A 
ATOM     31  C   UNL     1      -2.116  -0.707  -0.202  0.00  0.00    +0.028 A 
ATOM     32 CL   UNL     1       1.596   0.131   1.046  0.00  0.00    -0.082 Cl
ENDBRANCH  25  30
ENDBRANCH  22  25
ENDBRANCH   1  22
TORSDOF 7
