REMARK  Name = ZINC63296054
REMARK  3 active torsions:
REMARK  status: ('A' for Active; 'I' for Inactive)
REMARK    1  A    between atoms: C_6  and  C_11
REMARK    2  A    between atoms: C_17  and  C_20
REMARK    3  A    between atoms: N_22  and  C_23
REMARK                            x       y       z     vdW  Elec       q    Type
REMARK                         _______ _______ _______ _____ _____    ______ ____
ROOT
ATOM      1  C   UNL     1       3.645  -2.771   1.178  0.00  0.00    +0.242 C 
ATOM      2  O   UNL     1       4.326  -2.169   1.981  0.00  0.00    -0.273 OA
ATOM      3  N   UNL     1       3.353  -4.071   1.381  0.00  0.00    -0.299 N 
ATOM      4  C   UNL     1       2.534  -4.814   0.414  0.00  0.00    +0.108 C 
ATOM      5  C   UNL     1       3.292  -6.078  -0.005  0.00  0.00    +0.020 C 
ATOM      6  C   UNL     1       3.672  -6.878   1.243  0.00  0.00    +0.016 C 
ATOM      7  C   UNL     1       4.591  -6.036   2.130  0.00  0.00    +0.093 C 
ATOM      8  C   UNL     1       3.853  -4.773   2.571  0.00  0.00    +0.120 C 
ENDROOT
BRANCH   1  14
ATOM      9  C   UNL     1      -0.033   1.339   0.011  0.00  0.00    +0.001 A 
ATOM     10  C   UNL     1       1.149   2.091  -0.007  0.00  0.00    +0.002 A 
ATOM     11  C   UNL     1       2.374   1.524  -0.028  0.00  0.00    +0.026 A 
ATOM     12  C   UNL     1       2.511   0.109  -0.032  0.00  0.00    +0.043 A 
ATOM     13  N   UNL     1       3.569  -0.666  -0.051  0.00  0.00    -0.370 N 
ATOM     14  C   UNL     1       3.125  -2.064  -0.047  0.00  0.00    +0.190 C 
ATOM     15  C   UNL     1       1.613  -2.019  -0.022  0.00  0.00    +0.016 C 
ATOM     16  C   UNL     1       1.277  -0.709  -0.014  0.00  0.00    -0.004 A 
ATOM     17  C   UNL     1      -0.015  -0.014   0.009  0.00  0.00    +0.010 A 
ATOM     18  H   UNL     1       4.491  -0.365  -0.066  0.00  0.00    +0.161 HD
ENDBRANCH   1  14
BRANCH   7  19
ATOM     19  C   UNL     1       4.992  -6.836   3.343  0.00  0.00    +0.222 C 
ATOM     20  O   UNL     1       4.713  -6.435   4.453  0.00  0.00    -0.275 OA
ATOM     21  N   UNL     1       5.659  -7.998   3.193  0.00  0.00    -0.285 N 
ATOM     22  H   UNL     1       5.822  -8.352   2.305  0.00  0.00    +0.155 HD
BRANCH  21  23
ATOM     23  C   UNL     1       6.115  -8.693   4.319  0.00  0.00    +0.033 A 
ATOM     24  C   UNL     1       7.318  -9.384   4.269  0.00  0.00    +0.024 A 
ATOM     25  C   UNL     1       7.767 -10.068   5.382  0.00  0.00    +0.017 A 
ATOM     26  C   UNL     1       7.018 -10.066   6.545  0.00  0.00    +0.018 A 
ATOM     27  C   UNL     1       5.818  -9.378   6.598  0.00  0.00    +0.017 A 
ATOM     28  C   UNL     1       5.368  -8.688   5.489  0.00  0.00    +0.024 A 
ATOM     29 BR   UNL     1       7.634 -11.005   8.066  0.00  0.00    -0.050 Br
ENDBRANCH  21  23
ENDBRANCH   7  19
TORSDOF 3
