REMARK  Name = ZINC13625127
REMARK  4 active torsions:
REMARK  status: ('A' for Active; 'I' for Inactive)
REMARK    1  A    between atoms: C_1  and  C_2
REMARK    2  A    between atoms: C_5  and  O_29
REMARK    3  A    between atoms: C_14  and  C_16
REMARK    4  A    between atoms: C_19  and  C_22
REMARK                            x       y       z     vdW  Elec       q    Type
REMARK                         _______ _______ _______ _____ _____    ______ ____
ROOT
ATOM      1  C   UNL     1      -0.106   1.617   0.171  0.00  0.00    +0.029 C 
ATOM      2  C   UNL     1      -0.052   0.091   0.082  0.00  0.00    +0.087 C 
ATOM      3  C   UNL     1       0.638  -0.307  -1.210  0.00  0.00    +0.118 C 
ATOM      4  C   UNL     1       1.955   0.367  -1.362  0.00  0.00    +0.189 C 
ATOM      5  N   UNL     1       2.790   0.649  -0.472  0.00  0.00    -0.216 NA
ATOM      6  C   UNL     1       2.873   0.547   0.870  0.00  0.00    +0.089 A 
ATOM      7  C   UNL     1       4.078   0.981   1.456  0.00  0.00    +0.030 A 
ATOM      8  C   UNL     1       4.263   0.931   2.816  0.00  0.00    +0.002 A 
ATOM      9  C   UNL     1       3.258   0.449   3.636  0.00  0.00    +0.002 A 
ATOM     10  C   UNL     1       2.073   0.014   3.082  0.00  0.00    +0.025 A 
ATOM     11  C   UNL     1       1.870   0.054   1.703  0.00  0.00    +0.062 A 
ATOM     12  N   UNL     1       0.655  -0.425   1.231  0.00  0.00    -0.263 N 
ATOM     13  C   UNL     1       0.090  -1.451   1.898  0.00  0.00    +0.264 C 
ATOM     14  O   UNL     1       0.690  -1.988   2.805  0.00  0.00    -0.271 OA
ENDROOT
BRANCH  13  15
ATOM     15  C   UNL     1      -1.287  -1.930   1.518  0.00  0.00    +0.296 C 
ATOM     16  C   UNL     1      -1.240  -2.783   0.228  0.00  0.00    +0.116 C 
ATOM     17  C   UNL     1      -1.130  -4.195   0.770  0.00  0.00    +0.091 C 
ATOM     18  N   UNL     1      -1.442  -4.174   2.022  0.00  0.00    -0.088 NA
ATOM     19  O   UNL     1      -1.787  -2.880   2.481  0.00  0.00    -0.380 OA
BRANCH  17  20
ATOM     20  C   UNL     1      -0.734  -5.389  -0.002  0.00  0.00    -0.000 A 
ATOM     21  C   UNL     1      -0.414  -5.274  -1.357  0.00  0.00    +0.011 A 
ATOM     22  C   UNL     1      -0.044  -6.393  -2.072  0.00  0.00    +0.020 A 
ATOM     23  C   UNL     1       0.011  -7.630  -1.451  0.00  0.00    +0.041 A 
ATOM     24  C   UNL     1      -0.306  -7.750  -0.108  0.00  0.00    +0.020 A 
ATOM     25  C   UNL     1      -0.671  -6.638   0.620  0.00  0.00    +0.011 A 
ATOM     26 CL   UNL     1       0.477  -9.034  -2.359  0.00  0.00    -0.084 Cl
ENDBRANCH  17  20
ENDBRANCH  13  15
BRANCH   4  27
ATOM     27  O   UNL     1       2.294   0.721  -2.620  0.00  0.00    -0.495 OA
ATOM     28  H   UNL     1       3.155   1.157  -2.687  0.00  0.00    +0.293 HD
ENDBRANCH   4  27
TORSDOF 3
