REMARK  Name = ZINC36032817
REMARK  10 active torsions:
REMARK  status: ('A' for Active; 'I' for Inactive)
REMARK    1  A    between atoms: C_1  and  C_2
REMARK    2  A    between atoms: C_2  and  C_3
REMARK    3  A    between atoms: C_2  and  C_4
REMARK    4  A    between atoms: C_4  and  C_5
REMARK    5  A    between atoms: N_9  and  C_28
REMARK    6  A    between atoms: N_14  and  S_17
REMARK    7  A    between atoms: S_17  and  C_20
REMARK    8  A    between atoms: C_28  and  C_29
REMARK    9  A    between atoms: C_29  and  O_30
REMARK   10  A    between atoms: O_30  and  C_31
REMARK                            x       y       z     vdW  Elec       q    Type
REMARK                         _______ _______ _______ _____ _____    ______ ____
ROOT
ATOM      1  C   UNL     1      -0.313   0.264   2.535  0.00  0.00    +0.019 C 
ATOM      2  C   UNL     1       0.442  -0.467   3.623  0.00  0.00    +0.201 C 
ATOM      3  O   UNL     1       1.000  -1.537   3.502  0.00  0.00    -0.277 OA
ATOM      4  N   UNL     1       0.390   0.272   4.751  0.00  0.00    -0.311 N 
ATOM      5  C   UNL     1      -0.379   1.494   4.500  0.00  0.00    +0.006 C 
ATOM      6  N   UNL     1      -0.443   1.656   3.030  0.00  0.00    +0.401 N 
ATOM      7  C   UNL     1      -1.792   1.353   5.063  0.00  0.00    +0.023 C 
ATOM      8  C   UNL     1      -1.716   1.145   6.579  0.00  0.00    +0.109 C 
ATOM      9  N   UNL     1      -0.928   2.237   7.167  0.00  0.00    -0.177 NA
ATOM     10  C   UNL     1       0.418   2.501   6.641  0.00  0.00    +0.109 C 
ATOM     11  C   UNL     1       0.324   2.698   5.124  0.00  0.00    +0.023 C 
ATOM     12  H   UNL     1       0.324   2.224   2.702  0.00  0.00    -0.082 HD
ATOM     13  H   UNL     1      -1.328   2.053   2.752  0.00  0.00    -0.082 HD
ENDROOT
BRANCH   9  14
ATOM     14  S   UNL     1      -1.547   3.154   8.400  0.00  0.00    +0.062 S 
ATOM     15  O   UNL     1      -0.860   4.398   8.365  0.00  0.00    -0.153 OA
ATOM     16  O   UNL     1      -2.961   3.063   8.304  0.00  0.00    -0.153 OA
BRANCH  14  17
ATOM     17  C   UNL     1      -1.092   2.370   9.911  0.00  0.00    +0.125 A 
ATOM     18  C   UNL     1      -0.241   3.010  10.793  0.00  0.00    +0.030 A 
ATOM     19  C   UNL     1       0.116   2.395  11.978  0.00  0.00    +0.003 A 
ATOM     20  C   UNL     1      -0.377   1.140  12.283  0.00  0.00    +0.021 A 
ATOM     21  C   UNL     1      -1.229   0.499  11.402  0.00  0.00    +0.061 A 
ATOM     22  C   UNL     1      -1.592   1.117  10.217  0.00  0.00    +0.086 A 
ATOM     23 CL   UNL     1      -2.667   0.317   9.114  0.00  0.00    -0.080 Cl
ATOM     24 CL   UNL     1      -1.849  -1.077  11.785  0.00  0.00    -0.082 Cl
ENDBRANCH  14  17
ENDBRANCH   9  14
BRANCH   1  25
ATOM     25  C   UNL     1       0.479   0.237   1.226  0.00  0.00    -0.004 C 
BRANCH  25  27
ATOM     26  C   UNL     1       0.564   1.098  -1.118  0.00  0.00    +0.007 C 
ATOM     27  C   UNL     1      -0.291   1.001   0.147  0.00  0.00    -0.018 C 
ATOM     28  C   UNL     1      -1.592   0.262  -0.171  0.00  0.00    +0.007 C 
ENDBRANCH  25  27
ENDBRANCH   1  25
BRANCH   4  29
ATOM     29  C   UNL     1       1.006  -0.092   6.029  0.00  0.00    +0.134 C 
BRANCH  29  30
ATOM     30  C   UNL     1       2.480   0.320   6.020  0.00  0.00    +0.178 C 
BRANCH  30  31
ATOM     31  O   UNL     1       2.579   1.732   5.826  0.00  0.00    -0.381 OA
ATOM     32  C   UNL     1       3.921   2.223   5.802  0.00  0.00    +0.194 C 
ENDBRANCH  30  31
ENDBRANCH  29  30
ENDBRANCH   4  29
TORSDOF 7
