REMARK  Name = ZINC38971896
REMARK  4 active torsions:
REMARK  status: ('A' for Active; 'I' for Inactive)
REMARK    1  A    between atoms: N_7  and  S_8
REMARK    2  A    between atoms: S_8  and  C_11
REMARK    3  A    between atoms: C_18  and  N_23
REMARK    4  A    between atoms: N_23  and  C_24
REMARK                            x       y       z     vdW  Elec       q    Type
REMARK                         _______ _______ _______ _____ _____    ______ ____
ROOT
ATOM      1  C   UNL     1       0.573   1.431  -0.700  0.00  0.00    +0.002 A 
ATOM      2  C   UNL     1       1.793   2.108  -0.540  0.00  0.00    +0.002 A 
ATOM      3  C   UNL     1       2.961   1.468  -0.314  0.00  0.00    +0.030 A 
ATOM      4  C   UNL     1       2.997   0.053  -0.227  0.00  0.00    +0.089 A 
ATOM      5  N   UNL     1       4.137  -0.567  -0.005  0.00  0.00    -0.226 NA
ATOM      6  C   UNL     1       4.206  -1.905   0.083  0.00  0.00    +0.192 C 
ATOM      7  N   UNL     1       5.345  -2.493   0.303  0.00  0.00    -0.110 NA
ATOM      8  C   UNL     1       2.941  -2.716  -0.078  0.00  0.00    +0.237 C 
ATOM      9  N   UNL     1       1.685  -1.990  -0.324  0.00  0.00    -0.359 N 
ATOM     10  C   UNL     1       1.722  -0.689  -0.392  0.00  0.00    +0.063 A 
ATOM     11  C   UNL     1       0.495   0.084  -0.636  0.00  0.00    +0.027 A 
ATOM     12  H   UNL     1       0.849  -2.469  -0.434  0.00  0.00    +0.162 HD
ENDROOT
BRANCH   7  13
ATOM     13  S   UNL     1       6.723  -1.592   0.477  0.00  0.00    +0.100 S 
ATOM     14  O   UNL     1       6.970  -0.980  -0.782  0.00  0.00    -0.146 OA
ATOM     15  O   UNL     1       6.568  -0.840   1.672  0.00  0.00    -0.146 OA
BRANCH  13  16
ATOM     16  C   UNL     1       8.049  -2.717   0.758  0.00  0.00    +0.114 A 
ATOM     17  C   UNL     1       8.373  -3.096   2.048  0.00  0.00    +0.029 A 
ATOM     18  C   UNL     1       9.413  -3.979   2.269  0.00  0.00    +0.003 A 
ATOM     19  C   UNL     1      10.131  -4.483   1.201  0.00  0.00    +0.020 A 
ATOM     20  C   UNL     1       9.808  -4.105  -0.089  0.00  0.00    +0.043 A 
ATOM     21  C   UNL     1       8.762  -3.226  -0.311  0.00  0.00    +0.049 A 
ATOM     22 CL   UNL     1      10.709  -4.739  -1.431  0.00  0.00    -0.083 Cl
ENDBRANCH  13  16
ENDBRANCH   7  13
BRANCH   8  23
ATOM     23  N   UNL     1       2.764  -3.514   1.139  0.00  0.00    -0.318 N 
ATOM     24  H   UNL     1       2.909  -3.110   2.009  0.00  0.00    +0.148 HD
BRANCH  23  25
ATOM     25  C   UNL     1       2.386  -4.858   1.046  0.00  0.00    +0.033 A 
ATOM     26  C   UNL     1       2.364  -5.653   2.184  0.00  0.00    +0.027 A 
ATOM     27  C   UNL     1       1.991  -6.981   2.093  0.00  0.00    +0.051 A 
ATOM     28  C   UNL     1       1.638  -7.522   0.868  0.00  0.00    +0.166 A 
ATOM     29  C   UNL     1       1.659  -6.727  -0.275  0.00  0.00    +0.168 A 
ATOM     30  C   UNL     1       2.029  -5.395  -0.183  0.00  0.00    +0.072 A 
ATOM     31  O   UNL     1       1.275  -7.486  -1.343  0.00  0.00    -0.453 OA
ATOM     32  C   UNL     1       1.413  -8.853  -0.912  0.00  0.00    +0.466 C 
ATOM     33  O   UNL     1       1.240  -8.781   0.516  0.00  0.00    -0.453 OA
ENDBRANCH  23  25
ENDBRANCH   8  23
TORSDOF 4
