REMARK  Name = ZINC46125501
REMARK  9 active torsions:
REMARK  status: ('A' for Active; 'I' for Inactive)
REMARK    1  A    between atoms: C_1  and  C_2
REMARK    2  A    between atoms: C_5  and  C_9
REMARK    3  A    between atoms: C_7  and  C_8
REMARK    4  A    between atoms: C_9  and  N_11
REMARK    5  A    between atoms: N_13  and  C_14
REMARK    6  A    between atoms: C_17  and  C_21
REMARK    7  A    between atoms: C_18  and  C_20
REMARK    8  A    between atoms: N_22  and  C_23
REMARK    9  A    between atoms: C_23  and  C_24
REMARK                            x       y       z     vdW  Elec       q    Type
REMARK                         _______ _______ _______ _____ _____    ______ ____
ROOT
ATOM      1  N   UNL     1      -1.438  -5.092  -1.326  0.00  0.00    -0.143 NA
ATOM      2  C   UNL     1      -0.671  -6.165  -1.205  0.00  0.00    +0.195 C 
ATOM      3  N   UNL     1       0.023  -6.632  -2.284  0.00  0.00    -0.328 N 
ATOM      4  N   UNL     1      -0.574  -6.802  -0.003  0.00  0.00    -0.352 N 
ATOM      5  H   UNL     1       0.503  -7.473  -2.224  0.00  0.00    +0.169 HD
ATOM      6  H   UNL     1      -1.007  -6.429   0.780  0.00  0.00    +0.163 HD
ENDROOT
BRANCH   3   7
ATOM      7  C   UNL     1       0.041  -5.899  -3.475  0.00  0.00    +0.042 A 
ATOM      8  C   UNL     1       0.103  -4.512  -3.438  0.00  0.00    +0.026 A 
ATOM      9  C   UNL     1       0.120  -3.792  -4.616  0.00  0.00    +0.005 A 
ATOM     10  C   UNL     1       0.075  -4.449  -5.832  0.00  0.00    -0.047 A 
ATOM     11  C   UNL     1       0.013  -5.830  -5.872  0.00  0.00    -0.046 A 
ATOM     12  C   UNL     1       0.002  -6.557  -4.697  0.00  0.00    +0.029 A 
ATOM     13  C   UNL     1      -0.035  -6.543  -7.199  0.00  0.00    +0.044 C 
ATOM     14  C   UNL     1       0.094  -3.660  -7.115  0.00  0.00    +0.044 C 
ENDBRANCH   3   7
BRANCH   1  15
ATOM     15  C   UNL     1      -2.276  -4.753  -0.337  0.00  0.00    +0.270 C 
ATOM     16  O   UNL     1      -2.396  -5.478   0.635  0.00  0.00    -0.268 OA
BRANCH  15  21
ATOM     17  C   UNL     1      -5.317   0.123  -0.684  0.00  0.00    +0.044 C 
ATOM     18  C   UNL     1      -4.521  -1.153  -0.593  0.00  0.00    -0.047 A 
ATOM     19  C   UNL     1      -3.655  -1.500  -1.615  0.00  0.00    +0.004 A 
ATOM     20  C   UNL     1      -2.924  -2.667  -1.538  0.00  0.00    +0.013 A 
ATOM     21  C   UNL     1      -3.058  -3.499  -0.426  0.00  0.00    +0.039 A 
ATOM     22  C   UNL     1      -3.932  -3.144   0.602  0.00  0.00    +0.016 A 
ATOM     23  C   UNL     1      -4.654  -1.971   0.515  0.00  0.00    -0.047 A 
ATOM     24  C   UNL     1      -5.595  -1.583   1.627  0.00  0.00    +0.044 C 
ENDBRANCH  15  21
ENDBRANCH   1  15
BRANCH   4  25
ATOM     25  C   UNL     1       0.183  -8.052   0.104  0.00  0.00    +0.171 C 
BRANCH  25  26
ATOM     26  C   UNL     1       0.030  -8.614   1.494  0.00  0.00    +0.060 A 
ATOM     27  C   UNL     1      -0.938  -9.569   1.742  0.00  0.00    +0.025 A 
ATOM     28  C   UNL     1      -1.070 -10.080   3.024  0.00  0.00    +0.003 A 
ATOM     29  C   UNL     1      -0.220  -9.609   4.013  0.00  0.00    +0.020 A 
ATOM     30  C   UNL     1       0.725  -8.653   3.690  0.00  0.00    +0.111 A 
ATOM     31  N   UNL     1       0.826  -8.194   2.458  0.00  0.00    -0.258 NA
ENDBRANCH  25  26
ENDBRANCH   4  25
TORSDOF 5
