REMARK  Name = ZINC09071817
REMARK  3 active torsions:
REMARK  status: ('A' for Active; 'I' for Inactive)
REMARK    1  A    between atoms: C_16  and  C_19
REMARK    2  A    between atoms: C_22  and  N_25
REMARK    3  A    between atoms: N_30  and  C_33
REMARK                            x       y       z     vdW  Elec       q    Type
REMARK                         _______ _______ _______ _____ _____    ______ ____
ROOT
ATOM      1  C   UNL     1      -0.017   1.422  -0.226  0.00  0.00    +0.001 A 
ATOM      2  C   UNL     1       1.171   2.131  -0.208  0.00  0.00    +0.001 A 
ATOM      3  C   UNL     1       2.382   1.467  -0.170  0.00  0.00    +0.012 A 
ATOM      4  C   UNL     1       2.415   0.071  -0.150  0.00  0.00    +0.031 A 
ATOM      5  C   UNL     1       1.206  -0.651  -0.166  0.00  0.00    +0.031 A 
ATOM      6  C   UNL     1      -0.007   0.040  -0.205  0.00  0.00    +0.012 A 
ATOM      7  C   UNL     1       1.488  -2.100  -0.139  0.00  0.00    +0.204 C 
ATOM      8  O   UNL     1       0.670  -2.995  -0.141  0.00  0.00    -0.288 OA
ATOM      9  C   UNL     1       2.982  -2.255  -0.107  0.00  0.00    +0.206 C 
ATOM     10  C   UNL     1       3.555  -0.865  -0.111  0.00  0.00    +0.204 C 
ATOM     11  O   UNL     1       4.731  -0.569  -0.086  0.00  0.00    -0.288 OA
ATOM     12  C   UNL     1       3.481  -3.058  -1.319  0.00  0.00    +0.138 C 
ATOM     13  C   UNL     1       4.669  -3.884  -0.747  0.00  0.00    +0.125 C 
ATOM     14  C   UNL     1       4.745  -3.449   0.733  0.00  0.00    +0.163 C 
ATOM     15  O   UNL     1       3.405  -2.988   1.052  0.00  0.00    -0.348 OA
ATOM     16  C   UNL     1       4.178  -5.310  -0.840  0.00  0.00    +0.233 C 
ATOM     17  O   UNL     1       4.799  -6.289  -0.487  0.00  0.00    -0.274 OA
ATOM     18  N   UNL     1       2.950  -5.324  -1.373  0.00  0.00    -0.210 N 
ATOM     19  C   UNL     1       2.455  -4.104  -1.690  0.00  0.00    +0.234 C 
ATOM     20  O   UNL     1       1.372  -3.878  -2.186  0.00  0.00    -0.274 OA
ENDROOT
BRANCH  18  21
ATOM     21  C   UNL     1       2.233  -6.509  -1.593  0.00  0.00    +0.044 A 
ATOM     22  C   UNL     1       1.080  -6.769  -0.865  0.00  0.00    +0.025 A 
ATOM     23  C   UNL     1       0.375  -7.937  -1.084  0.00  0.00    +0.022 A 
ATOM     24  C   UNL     1       0.818  -8.847  -2.028  0.00  0.00    +0.041 A 
ATOM     25  C   UNL     1       1.968  -8.590  -2.754  0.00  0.00    +0.022 A 
ATOM     26  C   UNL     1       2.672  -7.421  -2.543  0.00  0.00    +0.025 A 
ATOM     27 CL   UNL     1      -0.070 -10.314  -2.301  0.00  0.00    -0.084 Cl
ENDBRANCH  18  21
BRANCH  14  28
ATOM     28  C   UNL     1       5.100  -4.625   1.606  0.00  0.00    -0.018 A 
ATOM     29  C   UNL     1       4.125  -5.537   1.966  0.00  0.00    +0.008 A 
ATOM     30  C   UNL     1       4.451  -6.615   2.767  0.00  0.00    +0.033 A 
ATOM     31  C   UNL     1       5.750  -6.782   3.208  0.00  0.00    +0.126 A 
ATOM     32  C   UNL     1       6.725  -5.871   2.847  0.00  0.00    +0.033 A 
ATOM     33  C   UNL     1       6.401  -4.794   2.042  0.00  0.00    +0.008 A 
BRANCH  31  34
ATOM     34  N   UNL     1       6.098  -7.937   4.066  0.00  0.00    +0.056 N 
ATOM     35  O   UNL     1       5.246  -8.734   4.382  0.00  0.00    -0.126 OA
ATOM     36  O   UNL     1       7.235  -8.082   4.452  0.00  0.00    -0.126 OA
ENDBRANCH  31  34
ENDBRANCH  14  28
TORSDOF 3
