REMARK  Name = ZINC62868825
REMARK  7 active torsions:
REMARK  status: ('A' for Active; 'I' for Inactive)
REMARK    1  A    between atoms: C_1  and  C_2
REMARK    2  A    between atoms: C_2  and  C_3
REMARK    3  A    between atoms: C_2  and  C_4
REMARK    4  A    between atoms: C_4  and  C_6
REMARK    5  A    between atoms: C_4  and  N_18
REMARK    6  A    between atoms: C_12  and  C_14
REMARK    7  A    between atoms: C_12  and  C_15
REMARK                            x       y       z     vdW  Elec       q    Type
REMARK                         _______ _______ _______ _____ _____    ______ ____
ROOT
ATOM      1  C   UNL     1      -2.195  -0.061  -1.198  0.00  0.00    +0.236 C 
ATOM      2  O   UNL     1      -3.135   0.694  -1.067  0.00  0.00    -0.274 OA
ATOM      3  N   UNL     1      -1.822  -0.465  -2.429  0.00  0.00    -0.299 N 
ATOM      4  C   UNL     1      -0.751  -1.456  -2.599  0.00  0.00    +0.108 C 
ATOM      5  C   UNL     1      -1.274  -2.605  -3.466  0.00  0.00    +0.020 C 
ATOM      6  C   UNL     1      -1.821  -2.040  -4.779  0.00  0.00    +0.021 C 
ATOM      7  C   UNL     1      -2.984  -1.090  -4.482  0.00  0.00    +0.085 C 
ATOM      8  C   UNL     1      -2.484   0.072  -3.626  0.00  0.00    +0.125 C 
ATOM      9  C   UNL     1      -4.079  -1.844  -3.723  0.00  0.00    +0.024 C 
ENDROOT
BRANCH   7  10
ATOM     10  C   UNL     1      -3.543  -0.559  -5.777  0.00  0.00    +0.363 C 
ATOM     11  O   UNL     1      -3.997  -1.329  -6.606  0.00  0.00    -0.246 OA
ATOM     12  O   UNL     1      -3.542   0.640  -5.995  0.00  0.00    -0.246 OA
ENDBRANCH   7  10
BRANCH   1  13
ATOM     13  C   UNL     1      -1.443  -0.546   0.014  0.00  0.00    +0.163 C 
BRANCH  13  14
ATOM     14  N   UNL     1      -2.245  -0.302   1.216  0.00  0.00    -0.288 N 
ATOM     15  C   UNL     1      -2.057  -1.058   2.316  0.00  0.00    +0.298 C 
ATOM     16  O   UNL     1      -1.222  -1.942   2.311  0.00  0.00    -0.253 OA
ATOM     17  N   UNL     1      -2.795  -0.835   3.421  0.00  0.00    -0.313 N 
ATOM     18  H   UNL     1      -2.911   0.403   1.220  0.00  0.00    +0.151 HD
ATOM     19  H   UNL     1      -3.461  -0.130   3.425  0.00  0.00    +0.146 HD
ATOM     20  H   UNL     1      -2.659  -1.379   4.213  0.00  0.00    +0.146 HD
ENDBRANCH  13  14
BRANCH  13  22
ATOM     21  C   UNL     1      -0.390   1.688   0.398  0.00  0.00    +0.009 C 
ATOM     22  C   UNL     1      -0.115   0.207   0.126  0.00  0.00    +0.012 C 
ATOM     23  C   UNL     1       0.708  -0.378   1.275  0.00  0.00    +0.009 C 
ENDBRANCH  13  22
ENDBRANCH   1  13
TORSDOF 4
