REMARK  Name = ZINC12281062
REMARK  10 active torsions:
REMARK  status: ('A' for Active; 'I' for Inactive)
REMARK    1  A    between atoms: C_1  and  C_2
REMARK    2  A    between atoms: C_2  and  C_4
REMARK    3  A    between atoms: C_2  and  N_11
REMARK    4  A    between atoms: C_20  and  C_22
REMARK    5  A    between atoms: C_22  and  N_59
REMARK    6  A    between atoms: C_23  and  C_24
REMARK    7  A    between atoms: C_23  and  N_59
REMARK    8  A    between atoms: C_24  and  O_25
REMARK    9  A    between atoms: C_26  and  C_27
REMARK   10  A    between atoms: C_26  and  N_59
REMARK                            x       y       z     vdW  Elec       q    Type
REMARK                         _______ _______ _______ _____ _____    ______ ____
ROOT
ATOM      1  N   UNL     1      -3.408   2.685  -0.821  0.00  0.00    -0.322 N 
ATOM      2  C   UNL     1      -2.215   3.366  -0.704  0.00  0.00    +0.130 A 
ATOM      3  C   UNL     1      -0.976   2.692  -0.837  0.00  0.00    +0.040 A 
ATOM      4  C   UNL     1      -0.900   1.319  -1.097  0.00  0.00    +0.013 A 
ATOM      5  C   UNL     1       0.322   0.724  -1.212  0.00  0.00    +0.001 A 
ATOM      6  C   UNL     1       1.493   1.465  -1.083  0.00  0.00    +0.002 A 
ATOM      7  C   UNL     1       1.452   2.805  -0.835  0.00  0.00    +0.028 A 
ATOM      8  C   UNL     1       0.214   3.448  -0.707  0.00  0.00    +0.076 A 
ATOM      9  N   UNL     1       0.118   4.764  -0.463  0.00  0.00    -0.234 NA
ATOM     10  C   UNL     1      -1.057   5.335  -0.348  0.00  0.00    +0.115 A 
ATOM     11  N   UNL     1      -2.196   4.670  -0.463  0.00  0.00    -0.219 NA
ATOM     12  H   UNL     1      -3.406   1.731  -0.997  0.00  0.00    +0.148 HD
ENDROOT
BRANCH   1  14
ATOM     13  C   UNL     1      -5.046   3.498   0.802  0.00  0.00    +0.033 C 
ATOM     14  C   UNL     1      -4.678   3.402  -0.679  0.00  0.00    +0.099 C 
BRANCH  14  15
ATOM     15  C   UNL     1      -5.759   2.659  -1.419  0.00  0.00    -0.027 A 
ATOM     16  C   UNL     1      -5.799   1.277  -1.381  0.00  0.00    +0.008 A 
ATOM     17  C   UNL     1      -6.794   0.595  -2.054  0.00  0.00    +0.038 A 
ATOM     18  C   UNL     1      -7.745   1.294  -2.778  0.00  0.00    +0.123 A 
ATOM     19  C   UNL     1      -7.701   2.677  -2.821  0.00  0.00    +0.038 A 
ATOM     20  C   UNL     1      -6.708   3.358  -2.141  0.00  0.00    +0.008 A 
ATOM     21  F   UNL     1      -8.714   0.628  -3.442  0.00  0.00    -0.205 F 
ENDBRANCH  14  15
ENDBRANCH   1  14
BRANCH  10  22
ATOM     22  C   UNL     1      -1.113   6.816  -0.075  0.00  0.00    -0.001 C 
BRANCH  22  23
ATOM     23  N   UNL     1      -1.120   7.539  -1.364  0.00  0.00    +0.389 N 
ATOM     24  H   UNL     1      -0.338   7.205  -1.938  0.00  0.00    -0.081 HD
BRANCH  23  25
ATOM     25  C   UNL     1      -2.386   7.281  -2.081  0.00  0.00    -0.050 C 
BRANCH  25  26
ATOM     26  C   UNL     1      -2.221   7.710  -3.540  0.00  0.00    +0.137 C 
BRANCH  26  27
ATOM     27  O   UNL     1      -1.211   6.911  -4.160  0.00  0.00    -0.397 OA
ATOM     28  H   UNL     1      -1.052   7.128  -5.089  0.00  0.00    +0.209 HD
ENDBRANCH  26  27
ENDBRANCH  25  26
ENDBRANCH  23  25
BRANCH  23  29
ATOM     29  C   UNL     1      -0.959   8.990  -1.130  0.00  0.00    -0.042 C 
BRANCH  29  30
ATOM     30  C   UNL     1       0.493   9.273  -0.841  0.00  0.00    -0.064 A 
ATOM     31  C   UNL     1       0.929   9.379   0.467  0.00  0.00    +0.002 A 
ATOM     32  C   UNL     1       2.262   9.634   0.732  0.00  0.00    +0.000 A 
ATOM     33  C   UNL     1       3.156   9.794  -0.310  0.00  0.00    +0.000 A 
ATOM     34  C   UNL     1       2.718   9.694  -1.617  0.00  0.00    +0.000 A 
ATOM     35  C   UNL     1       1.387   9.434  -1.883  0.00  0.00    +0.002 A 
ENDBRANCH  29  30
ENDBRANCH  23  29
ENDBRANCH  22  23
ENDBRANCH  10  22
TORSDOF 9
