REMARK  Name = ZINC12296229
REMARK  16 active torsions:
REMARK  status: ('A' for Active; 'I' for Inactive)
REMARK    1  A    between atoms: C_1  and  C_2
REMARK    2  A    between atoms: C_8  and  C_42
REMARK    3  A    between atoms: C_8  and  C_43
REMARK    4  A    between atoms: C_12  and  C_41
REMARK    5  A    between atoms: C_13  and  C_15
REMARK    6  A    between atoms: C_15  and  C_16
REMARK    7  A    between atoms: C_16  and  C_17
REMARK    8  A    between atoms: C_17  and  C_40
REMARK    9  A    between atoms: C_18  and  C_19
REMARK   10  A    between atoms: C_19  and  C_20
REMARK   11  A    between atoms: C_20  and  C_21
REMARK   12  A    between atoms: C_21  and  C_23
REMARK   13  A    between atoms: C_23  and  C_24
REMARK   14  A    between atoms: C_31  and  O_32
REMARK   15  A    between atoms: O_32  and  C_33
REMARK   16  A    between atoms: C_39  and  N_93
REMARK                            x       y       z     vdW  Elec       q    Type
REMARK                         _______ _______ _______ _____ _____    ______ ____
ROOT
ATOM      1  C   UNL     1      -1.594   6.976  -0.231  0.00  0.00    +0.078 C 
ENDROOT
BRANCH   1   2
ATOM      2  C   UNL     1      -1.180   5.607  -0.705  0.00  0.00    +0.132 C 
ATOM      3  O   UNL     1      -1.117   4.690   0.079  0.00  0.00    -0.297 OA
BRANCH   2   4
ATOM      4  C   UNL     1      -0.845   5.382  -2.157  0.00  0.00    +0.064 C 
BRANCH   4   5
ATOM      5  C   UNL     1      -0.598   3.891  -2.398  0.00  0.00    -0.027 C 
ATOM      6  C   UNL     1      -1.796   3.107  -1.933  0.00  0.00    -0.012 A 
ATOM      7  C   UNL     1      -1.666   1.927  -1.232  0.00  0.00    -0.040 A 
ATOM      8  C   UNL     1      -2.796   1.231  -0.830  0.00  0.00    +0.053 A 
ATOM      9  C   UNL     1      -4.061   1.714  -1.124  0.00  0.00    +0.170 A 
ATOM     10  C   UNL     1      -4.197   2.905  -1.829  0.00  0.00    +0.208 A 
ATOM     11  C   UNL     1      -3.063   3.598  -2.231  0.00  0.00    +0.167 A 
ATOM     12  O   UNL     1      -5.527   3.167  -1.993  0.00  0.00    -0.449 OA
ATOM     13  C   UNL     1      -6.203   2.337  -1.029  0.00  0.00    +0.467 C 
ATOM     14  O   UNL     1      -5.306   1.227  -0.846  0.00  0.00    -0.452 OA
ATOM     15  C   UNL     1      -0.314   1.360  -0.882  0.00  0.00    +0.017 C 
ATOM     16  C   UNL     1       0.766   2.015  -1.744  0.00  0.00    -0.074 C 
ATOM     17  C   UNL     1       1.796   4.165  -2.177  0.00  0.00    -0.095 C 
ATOM     18  N   UNL     1       0.598   3.478  -1.644  0.00  0.00    +0.383 N 
ATOM     19  H   UNL     1       0.477   3.735  -0.657  0.00  0.00    -0.081 HD
BRANCH  11  20
ATOM     20  O   UNL     1      -3.192   4.763  -2.920  0.00  0.00    -0.491 OA
ATOM     21  C   UNL     1      -3.364   4.665  -4.335  0.00  0.00    +0.277 C 
ENDBRANCH  11  20
ENDBRANCH   4   5
ENDBRANCH   2   4
ENDBRANCH   1   2
BRANCH   1  22
ATOM     22  C   UNL     1      -1.748   6.964   1.292  0.00  0.00    +0.034 C 
BRANCH  22  24
ATOM     23  C   UNL     1      -3.347   8.352   2.507  0.00  0.00    -0.077 C 
ATOM     24  C   UNL     1      -2.277   8.297   1.754  0.00  0.00    -0.027 C 
ATOM     25  C   UNL     1      -3.962   9.685   2.847  0.00  0.00    +0.039 C 
BRANCH  23  26
ATOM     26  C   UNL     1      -3.965   7.082   3.032  0.00  0.00    +0.030 C 
BRANCH  26  27
ATOM     27  C   UNL     1      -3.394   6.772   4.418  0.00  0.00    +0.008 C 
BRANCH  27  38
ATOM     28  C   UNL     1      -4.838   6.974   6.962  0.00  0.00    +0.008 C 
ATOM     29  C   UNL     1      -4.102   5.692   6.544  0.00  0.00    -0.010 C 
ATOM     30  C   UNL     1      -4.788   4.494   7.194  0.00  0.00    +0.004 C 
ATOM     31  C   UNL     1      -4.139   3.187   6.725  0.00  0.00    +0.005 C 
ATOM     32  C   UNL     1      -4.220   3.109   5.203  0.00  0.00    +0.001 C 
ATOM     33  C   UNL     1      -3.850   1.736   4.677  0.00  0.00    -0.032 C 
ATOM     34  C   UNL     1      -3.873   1.705   3.146  0.00  0.00    +0.007 C 
ATOM     35  C   UNL     1      -3.021   2.828   2.565  0.00  0.00    +0.001 C 
ATOM     36  C   UNL     1      -3.555   4.178   3.041  0.00  0.00    +0.007 C 
ATOM     37  C   UNL     1      -3.468   4.270   4.566  0.00  0.00    -0.026 C 
ATOM     38  C   UNL     1      -4.138   5.578   5.021  0.00  0.00    -0.002 C 
ATOM     39  C   UNL     1      -1.998   4.324   4.981  0.00  0.00    +0.012 C 
ATOM     40  C   UNL     1      -2.505   1.237   5.194  0.00  0.00    +0.011 C 
ATOM     41  C   UNL     1      -4.927   0.730   5.149  0.00  0.00    +0.011 C 
ENDBRANCH  27  38
ENDBRANCH  26  27
ENDBRANCH  23  26
ENDBRANCH  22  24
ENDBRANCH   1  22
TORSDOF 9
