REMARK  Name = ZINC08881708
REMARK  17 active torsions:
REMARK  status: ('A' for Active; 'I' for Inactive)
REMARK    1  A    between atoms: C_1  and  C_2
REMARK    2  A    between atoms: C_2  and  C_3
REMARK    3  A    between atoms: C_2  and  C_4
REMARK    4  A    between atoms: C_4  and  N_5
REMARK    5  A    between atoms: N_5  and  C_6
REMARK    6  A    between atoms: N_5  and  S_10
REMARK    7  A    between atoms: C_6  and  C_7
REMARK    8  A    between atoms: C_7  and  C_8
REMARK    9  A    between atoms: C_7  and  C_9
REMARK   10  A    between atoms: S_10  and  C_13
REMARK   11  A    between atoms: C_16  and  C_19
REMARK   12  A    between atoms: N_21  and  C_22
REMARK   13  A    between atoms: C_23  and  C_34
REMARK   14  A    between atoms: C_27  and  C_32
REMARK   15  A    between atoms: C_27  and  C_33
REMARK   16  A    between atoms: C_28  and  C_30
REMARK   17  A    between atoms: C_28  and  C_31
REMARK                            x       y       z     vdW  Elec       q    Type
REMARK                         _______ _______ _______ _____ _____    ______ ____
ROOT
ATOM      1  C   UNL     1      -6.759   0.596  -3.075  0.00  0.00    +0.249 C 
ATOM      2  O   UNL     1      -5.932   1.486  -3.101  0.00  0.00    -0.270 OA
ATOM      3  N   UNL     1      -6.616  -0.433  -2.215  0.00  0.00    -0.275 N 
ATOM      4  H   UNL     1      -7.277  -1.143  -2.195  0.00  0.00    +0.156 HD
ENDROOT
BRANCH   3   5
ATOM      5  C   UNL     1      -5.525  -0.475  -1.361  0.00  0.00    +0.090 A 
ATOM      6  C   UNL     1      -5.208  -1.443  -0.415  0.00  0.00    +0.084 A 
ATOM      7  C   UNL     1      -3.998  -1.250   0.357  0.00  0.00    -0.021 A 
ATOM      8  C   UNL     1      -3.295  -0.131   0.066  0.00  0.00    -0.015 A 
ATOM      9  S   UNL     1      -4.227   0.663  -1.212  0.00  0.00    -0.078 S 
ATOM     10  C   UNL     1      -2.015   0.310   0.698  0.00  0.00    -0.041 C 
ATOM     11  C   UNL     1      -1.967  -2.040   1.530  0.00  0.00    -0.069 C 
ATOM     12  C   UNL     1      -3.490  -2.181   1.449  0.00  0.00    +0.024 C 
ATOM     13  C   UNL     1      -1.335  -2.674   0.287  0.00  0.00    -0.010 C 
ATOM     14  C   UNL     1      -1.486  -2.837   2.759  0.00  0.00    -0.010 C 
ATOM     15  C   UNL     1      -2.269   1.658   1.402  0.00  0.00    -0.005 C 
ATOM     16  C   UNL     1      -0.954   0.537  -0.385  0.00  0.00    -0.005 C 
ATOM     17  N   UNL     1      -1.518  -0.639   1.733  0.00  0.00    +0.389 N 
ATOM     18  H   UNL     1      -1.854  -0.323   2.650  0.00  0.00    -0.084 HD
ATOM     19  H   UNL     1      -0.492  -0.624   1.720  0.00  0.00    -0.084 HD
BRANCH   6  20
ATOM     20  C   UNL     1      -6.055  -2.581  -0.218  0.00  0.00    +0.102 C 
ATOM     21  N   UNL     1      -6.726  -3.484  -0.062  0.00  0.00    -0.191 NA
ENDBRANCH   6  20
ENDBRANCH   3   5
BRANCH   1  25
ATOM     22  C   UNL     1     -10.102   0.726  -5.692  0.00  0.00    +0.106 A 
ATOM     23  C   UNL     1      -9.162   1.741  -5.724  0.00  0.00    +0.029 A 
ATOM     24  C   UNL     1      -8.074   1.705  -4.876  0.00  0.00    +0.015 A 
ATOM     25  C   UNL     1      -7.923   0.641  -3.985  0.00  0.00    +0.037 A 
ATOM     26  C   UNL     1      -8.872  -0.382  -3.962  0.00  0.00    +0.015 A 
ATOM     27  C   UNL     1      -9.957  -0.331  -4.811  0.00  0.00    +0.029 A 
BRANCH  22  28
ATOM     28  S   UNL     1     -11.488   0.780  -6.778  0.00  0.00    +0.061 S 
ATOM     29  O   UNL     1     -12.507  -0.005  -6.175  0.00  0.00    -0.153 OA
ATOM     30  O   UNL     1     -11.682   2.145  -7.122  0.00  0.00    -0.153 OA
BRANCH  28  31
ATOM     31  N   UNL     1     -11.050  -0.001  -8.171  0.00  0.00    -0.176 NA
BRANCH  31  32
ATOM     32  C   UNL     1     -11.277  -1.442  -8.305  0.00  0.00    +0.112 C 
BRANCH  32  34
ATOM     33  C   UNL     1     -12.572  -1.175 -10.425  0.00  0.00    +0.008 C 
ATOM     34  C   UNL     1     -12.627  -1.685  -8.983  0.00  0.00    -0.001 C 
ATOM     35  C   UNL     1     -12.935  -3.184  -8.984  0.00  0.00    +0.008 C 
ENDBRANCH  32  34
ENDBRANCH  31  32
BRANCH  31  36
ATOM     36  C   UNL     1     -10.436   0.749  -9.269  0.00  0.00    +0.112 C 
BRANCH  36  37
ATOM     37  C   UNL     1      -8.913   0.670  -9.152  0.00  0.00    -0.001 C 
ATOM     38  C   UNL     1      -8.460  -0.776  -9.362  0.00  0.00    +0.008 C 
ATOM     39  C   UNL     1      -8.272   1.564 -10.214  0.00  0.00    +0.008 C 
ENDBRANCH  36  37
ENDBRANCH  31  36
ENDBRANCH  28  31
ENDBRANCH  22  28
ENDBRANCH   1  25
TORSDOF 9
