REMARK  Name = ZINC57280492
REMARK  6 active torsions:
REMARK  status: ('A' for Active; 'I' for Inactive)
REMARK    1  A    between atoms: C_1  and  C_2
REMARK    2  A    between atoms: C_6  and  C_7
REMARK    3  A    between atoms: N_9  and  C_10
REMARK    4  A    between atoms: C_16  and  C_21
REMARK    5  A    between atoms: C_16  and  C_22
REMARK    6  A    between atoms: N_19  and  C_20
REMARK                            x       y       z     vdW  Elec       q    Type
REMARK                         _______ _______ _______ _____ _____    ______ ____
ROOT
ATOM      1  C   UNL     1       0.149  -0.784   4.912  0.00  0.00    +0.034 A 
ATOM      2  C   UNL     1       0.123   0.563   5.249  0.00  0.00    +0.025 A 
ATOM      3  C   UNL     1       0.218   0.952   6.568  0.00  0.00    +0.025 A 
ATOM      4  C   UNL     1       0.343  -0.004   7.574  0.00  0.00    +0.040 A 
ATOM      5  C   UNL     1       0.369  -1.349   7.228  0.00  0.00    -0.010 A 
ATOM      6  C   UNL     1       0.268  -1.742   5.912  0.00  0.00    +0.029 A 
ATOM      7  C   UNL     1       0.510  -2.119   8.520  0.00  0.00    +0.068 C 
ATOM      8  C   UNL     1       0.556  -1.045   9.586  0.00  0.00    +0.230 C 
ATOM      9  O   UNL     1       0.665  -1.221  10.781  0.00  0.00    -0.274 OA
ATOM     10  N   UNL     1       0.455   0.139   8.959  0.00  0.00    -0.273 N 
ATOM     11  C   UNL     1       0.460   1.431   9.649  0.00  0.00    +0.138 C 
ATOM     12  C   UNL     1      -0.697  -3.034   8.734  0.00  0.00    +0.025 C 
ATOM     13  C   UNL     1       1.807  -2.932   8.521  0.00  0.00    +0.025 C 
ENDROOT
BRANCH   1  16
ATOM     14  C   UNL     1       0.617  -0.424   2.606  0.00  0.00    +0.255 C 
ATOM     15  O   UNL     1       1.139   0.638   2.890  0.00  0.00    -0.269 OA
ATOM     16  N   UNL     1       0.052  -1.176   3.571  0.00  0.00    -0.281 N 
ATOM     17  H   UNL     1      -0.423  -1.989   3.337  0.00  0.00    +0.155 HD
BRANCH  14  23
ATOM     18  C   UNL     1       1.826   1.060   0.149  0.00  0.00    +0.045 C 
ATOM     19  C   UNL     1       1.122  -0.271   0.086  0.00  0.00    -0.031 A 
ATOM     20  C   UNL     1       0.960  -0.956  -1.095  0.00  0.00    +0.011 A 
ATOM     21  C   UNL     1       0.317  -2.150  -1.080  0.00  0.00    +0.046 A 
ATOM     22  S   UNL     1      -0.088  -2.381   0.534  0.00  0.00    -0.092 S 
ATOM     23  C   UNL     1       0.603  -0.885   1.215  0.00  0.00    +0.077 A 
ENDBRANCH  14  23
ENDBRANCH   1  16
TORSDOF 2
