REMARK  Name = ZINC65329469
REMARK  4 active torsions:
REMARK  status: ('A' for Active; 'I' for Inactive)
REMARK    1  A    between atoms: C_1  and  C_2
REMARK    2  A    between atoms: C_4  and  C_35
REMARK    3  A    between atoms: N_14  and  C_15
REMARK    4  A    between atoms: C_18  and  C_21
REMARK                            x       y       z     vdW  Elec       q    Type
REMARK                         _______ _______ _______ _____ _____    ______ ____
ROOT
ATOM      1  C   UNL     1       1.049   3.367   3.464  0.00  0.00    +0.035 A 
ATOM      2  C   UNL     1       1.246   3.962   2.222  0.00  0.00    +0.024 A 
ATOM      3  C   UNL     1       1.559   5.300   2.139  0.00  0.00    +0.015 A 
ATOM      4  C   UNL     1       1.679   6.061   3.305  0.00  0.00    +0.037 A 
ATOM      5  C   UNL     1       1.480   5.461   4.551  0.00  0.00    +0.015 A 
ATOM      6  C   UNL     1       1.162   4.123   4.627  0.00  0.00    +0.024 A 
ENDROOT
BRANCH   1  20
ATOM      7  C   UNL     1      -1.219   1.890   0.843  0.00  0.00    +0.046 C 
ATOM      8  C   UNL     1      -1.344   0.403   0.629  0.00  0.00    -0.025 A 
ATOM      9  C   UNL     1      -2.111  -0.098  -0.413  0.00  0.00    +0.028 A 
ATOM     10  C   UNL     1      -2.208  -1.464  -0.584  0.00  0.00    +0.040 A 
ATOM     11  N   UNL     1      -1.586  -2.292   0.232  0.00  0.00    -0.244 NA
ATOM     12  C   UNL     1      -0.843  -1.859   1.242  0.00  0.00    +0.119 A 
ATOM     13  C   UNL     1      -0.688  -0.492   1.470  0.00  0.00    +0.072 A 
ATOM     14  N   UNL     1       0.102   0.022   2.499  0.00  0.00    -0.252 N 
ATOM     15  C   UNL     1       0.508  -0.767   3.658  0.00  0.00    +0.126 C 
ATOM     16  C   UNL     1       1.197  -2.049   3.166  0.00  0.00    +0.095 C 
ATOM     17  S   UNL     1      -0.055  -3.041   2.291  0.00  0.00    -0.103 S 
ATOM     18  C   UNL     1       0.508   1.304   2.419  0.00  0.00    +0.311 C 
ATOM     19  O   UNL     1       0.673   1.823   1.332  0.00  0.00    -0.252 OA
ATOM     20  N   UNL     1       0.732   2.012   3.544  0.00  0.00    -0.269 N 
ATOM     21  C   UNL     1      -3.035  -2.015  -1.717  0.00  0.00    +0.065 C 
ATOM     22  H   UNL     1       0.671   1.578   4.410  0.00  0.00    +0.156 HD
ENDBRANCH   1  20
BRANCH   4  23
ATOM     23  C   UNL     1       2.015   7.495   3.220  0.00  0.00    +0.247 C 
ATOM     24  O   UNL     1       1.579   8.169   2.307  0.00  0.00    -0.270 OA
ATOM     25  N   UNL     1       2.806   8.059   4.155  0.00  0.00    -0.295 N 
ATOM     26  C   UNL     1       3.466   7.231   5.174  0.00  0.00    +0.127 C 
ATOM     27  C   UNL     1       4.975   7.501   5.123  0.00  0.00    +0.127 C 
ATOM     28  N   UNL     1       5.193   8.954   5.142  0.00  0.00    -0.297 N 
ATOM     29  C   UNL     1       4.533   9.782   4.123  0.00  0.00    +0.127 C 
ATOM     30  C   UNL     1       3.028   9.511   4.170  0.00  0.00    +0.127 C 
ATOM     31  C   UNL     1       6.005   9.532   6.102  0.00  0.00    +0.218 A 
ATOM     32  N   UNL     1       6.590   8.759   7.005  0.00  0.00    -0.223 NA
ATOM     33  C   UNL     1       7.372   9.280   7.936  0.00  0.00    +0.116 A 
ATOM     34  C   UNL     1       7.576  10.651   7.959  0.00  0.00    +0.039 A 
ATOM     35  C   UNL     1       6.948  11.430   7.000  0.00  0.00    +0.116 A 
ATOM     36  N   UNL     1       6.182  10.845   6.093  0.00  0.00    -0.223 NA
ENDBRANCH   4  23
TORSDOF 2
