REMARK  Name = ZINC45236310
REMARK  12 active torsions:
REMARK  status: ('A' for Active; 'I' for Inactive)
REMARK    1  A    between atoms: C_1  and  C_2
REMARK    2  A    between atoms: C_2  and  C_4
REMARK    3  A    between atoms: C_2  and  N_12
REMARK    4  A    between atoms: C_13  and  C_15
REMARK    5  A    between atoms: C_15  and  S_16
REMARK    6  A    between atoms: S_16  and  C_17
REMARK    7  A    between atoms: C_20  and  C_29
REMARK    8  A    between atoms: N_21  and  C_22
REMARK    9  A    between atoms: C_29  and  C_31
REMARK   10  A    between atoms: C_29  and  N_32
REMARK   11  A    between atoms: N_32  and  C_33
REMARK   12  A    between atoms: N_32  and  C_34
REMARK                            x       y       z     vdW  Elec       q    Type
REMARK                         _______ _______ _______ _____ _____    ______ ____
ROOT
ATOM      1  C   UNL     1      -5.484  -2.017  -3.039  0.00  0.00    +0.197 A 
ATOM      2  N   UNL     1      -6.171  -2.289  -1.954  0.00  0.00    -0.122 NA
ATOM      3  N   UNL     1      -7.337  -2.725  -2.272  0.00  0.00    -0.135 NA
ATOM      4  C   UNL     1      -7.466  -2.758  -3.568  0.00  0.00    +0.125 A 
ATOM      5  N   UNL     1      -6.291  -2.303  -4.106  0.00  0.00    -0.275 N 
ENDROOT
BRANCH   5   6
ATOM      6  C   UNL     1      -5.980  -2.162  -5.466  0.00  0.00    +0.050 A 
ATOM      7  C   UNL     1      -6.667  -1.240  -6.245  0.00  0.00    +0.028 A 
ATOM      8  C   UNL     1      -6.359  -1.102  -7.584  0.00  0.00    +0.022 A 
ATOM      9  C   UNL     1      -5.366  -1.882  -8.150  0.00  0.00    +0.041 A 
ATOM     10  C   UNL     1      -4.680  -2.802  -7.376  0.00  0.00    +0.022 A 
ATOM     11  C   UNL     1      -4.981  -2.939  -6.035  0.00  0.00    +0.028 A 
ATOM     12 CL   UNL     1      -4.982  -1.708  -9.834  0.00  0.00    -0.084 Cl
ENDBRANCH   5   6
BRANCH   4  13
ATOM     13  C   UNL     1      -8.683  -3.209  -4.334  0.00  0.00    -0.003 C 
ATOM     14  C   UNL     1      -8.780  -4.735  -4.286  0.00  0.00    -0.005 C 
BRANCH  13  15
ATOM     15  N   UNL     1      -9.887  -2.623  -3.729  0.00  0.00    +0.382 N 
ATOM     16  C   UNL     1      -9.794  -1.157  -3.775  0.00  0.00    -0.096 C 
ATOM     17  C   UNL     1     -11.073  -3.062  -4.475  0.00  0.00    -0.096 C 
ATOM     18  H   UNL     1      -9.962  -2.925  -2.769  0.00  0.00    -0.082 HD
ENDBRANCH  13  15
ENDBRANCH   4  13
BRANCH   1  19
ATOM     19  S   UNL     1      -3.836  -1.396  -3.109  0.00  0.00    -0.076 S 
BRANCH  19  20
ATOM     20  C   UNL     1      -3.351  -1.243  -1.367  0.00  0.00    +0.173 C 
BRANCH  20  22
ATOM     21  N   UNL     1      -1.367  -0.518  -0.080  0.00  0.00    -0.308 N 
ATOM     22  C   UNL     1      -1.943  -0.714  -1.283  0.00  0.00    +0.224 C 
ATOM     23  O   UNL     1      -1.327  -0.464  -2.298  0.00  0.00    -0.275 OA
ATOM     24  H   UNL     1      -1.860  -0.718   0.731  0.00  0.00    +0.149 HD
BRANCH  21  26
ATOM     25  C   UNL     1      -0.026   1.526  -0.016  0.00  0.00    +0.033 C 
ATOM     26  C   UNL     1       0.002  -0.004   0.002  0.00  0.00    +0.103 C 
BRANCH  26  27
ATOM     27  C   UNL     1       0.641  -0.479   1.281  0.00  0.00    +0.008 A 
ATOM     28  C   UNL     1      -0.145  -0.766   2.381  0.00  0.00    +0.011 A 
ATOM     29  C   UNL     1       0.440  -1.202   3.555  0.00  0.00    +0.039 A 
ATOM     30  C   UNL     1       1.815  -1.353   3.630  0.00  0.00    +0.126 A 
ATOM     31  C   UNL     1       2.603  -1.066   2.529  0.00  0.00    +0.077 A 
ATOM     32  C   UNL     1       2.015  -0.634   1.352  0.00  0.00    +0.131 A 
ATOM     33  F   UNL     1       2.783  -0.360   0.275  0.00  0.00    -0.205 F 
ATOM     34  F   UNL     1       2.386  -1.779   4.778  0.00  0.00    -0.205 F 
ENDBRANCH  26  27
ENDBRANCH  21  26
ENDBRANCH  20  22
ENDBRANCH  19  20
ENDBRANCH   1  19
TORSDOF 8
