REMARK  Name = ZINC36345130
REMARK  9 active torsions:
REMARK  status: ('A' for Active; 'I' for Inactive)
REMARK    1  A    between atoms: C_1  and  C_2
REMARK    2  A    between atoms: C_5  and  C_38
REMARK    3  A    between atoms: C_6  and  C_8
REMARK    4  A    between atoms: C_11  and  C_14
REMARK    5  A    between atoms: C_17  and  O_20
REMARK    6  A    between atoms: O_20  and  C_21
REMARK    7  A    between atoms: C_22  and  C_24
REMARK    8  A    between atoms: C_24  and  N_25
REMARK    9  A    between atoms: N_28  and  C_31
REMARK                            x       y       z     vdW  Elec       q    Type
REMARK                         _______ _______ _______ _____ _____    ______ ____
ROOT
ATOM      1  C   UNL     1       0.515  -2.651   2.511  0.00  0.00    +0.069 C 
ATOM      2  N   UNL     1       0.637  -3.920   2.696  0.00  0.00    -0.181 NA
ATOM      3  N   UNL     1       0.874  -4.282   4.021  0.00  0.00    -0.187 N 
ATOM      4  C   UNL     1       0.915  -3.064   4.846  0.00  0.00    +0.137 C 
ATOM      5  C   UNL     1       0.677  -1.930   3.830  0.00  0.00    +0.087 C 
ATOM      6  C   UNL     1       1.038  -5.541   4.472  0.00  0.00    +0.219 C 
ATOM      7  O   UNL     1       1.239  -5.741   5.651  0.00  0.00    -0.276 OA
ENDROOT
BRANCH   1  13
ATOM      8  C   UNL     1       0.013   1.496  -0.214  0.00  0.00    +0.044 C 
ATOM      9  C   UNL     1       0.018  -0.007  -0.105  0.00  0.00    -0.050 A 
ATOM     10  C   UNL     1      -0.216  -0.781  -1.228  0.00  0.00    +0.003 A 
ATOM     11  C   UNL     1      -0.213  -2.161  -1.138  0.00  0.00    +0.004 A 
ATOM     12  C   UNL     1       0.023  -2.776   0.074  0.00  0.00    -0.042 A 
ATOM     13  C   UNL     1       0.261  -2.001   1.212  0.00  0.00    +0.001 A 
ATOM     14  C   UNL     1       0.262  -0.608   1.112  0.00  0.00    +0.013 A 
ATOM     15  C   UNL     1       0.025  -4.280   0.171  0.00  0.00    +0.044 C 
ENDBRANCH   1  13
BRANCH   4  16
ATOM     16  C   UNL     1       2.264  -2.913   5.501  0.00  0.00    -0.024 A 
ATOM     17  C   UNL     1       3.411  -3.240   4.802  0.00  0.00    +0.009 A 
ATOM     18  C   UNL     1       4.649  -3.103   5.400  0.00  0.00    +0.046 A 
ATOM     19  C   UNL     1       4.740  -2.635   6.703  0.00  0.00    +0.120 A 
ATOM     20  C   UNL     1       3.588  -2.308   7.402  0.00  0.00    +0.046 A 
ATOM     21  C   UNL     1       2.353  -2.442   6.798  0.00  0.00    +0.009 A 
BRANCH  19  22
ATOM     22  O   UNL     1       5.957  -2.500   7.293  0.00  0.00    -0.495 OA
ATOM     23  C   UNL     1       5.975  -2.013   8.637  0.00  0.00    +0.277 C 
ENDBRANCH  19  22
ENDBRANCH   4  16
BRANCH   6  24
ATOM     24  C   UNL     1       0.970  -6.700   3.511  0.00  0.00    +0.021 C 
BRANCH  24  25
ATOM     25  N   UNL     1       1.178  -7.956   4.245  0.00  0.00    +0.387 N 
ATOM     26  C   UNL     1       0.073  -8.158   5.190  0.00  0.00    -0.059 C 
ATOM     27  C   UNL     1       0.346  -9.406   6.035  0.00  0.00    +0.086 C 
ATOM     28  N   UNL     1       0.584 -10.540   5.128  0.00  0.00    -0.331 N 
ATOM     29  C   UNL     1       1.562 -10.367   4.044  0.00  0.00    +0.086 C 
ATOM     30  C   UNL     1       1.232  -9.073   3.293  0.00  0.00    -0.059 C 
ATOM     31  H   UNL     1       2.048  -7.907   4.753  0.00  0.00    -0.081 HD
BRANCH  28  32
ATOM     32  C   UNL     1      -0.102 -11.748   5.293  0.00  0.00    +0.065 A 
ATOM     33  C   UNL     1      -1.312 -11.954   4.645  0.00  0.00    +0.026 A 
ATOM     34  C   UNL     1      -1.987 -13.149   4.809  0.00  0.00    +0.002 A 
ATOM     35  C   UNL     1      -1.459 -14.139   5.617  0.00  0.00    +0.003 A 
ATOM     36  C   UNL     1      -0.254 -13.938   6.264  0.00  0.00    +0.040 A 
ATOM     37  C   UNL     1       0.430 -12.747   6.100  0.00  0.00    +0.144 A 
ATOM     38  F   UNL     1       1.611 -12.553   6.728  0.00  0.00    -0.204 F 
ENDBRANCH  28  32
ENDBRANCH  24  25
ENDBRANCH   6  24
TORSDOF 6
