REMARK  Name = ZINC39344333
REMARK  9 active torsions:
REMARK  status: ('A' for Active; 'I' for Inactive)
REMARK    1  A    between atoms: C_1  and  C_2
REMARK    2  A    between atoms: C_4  and  C_9
REMARK    3  A    between atoms: C_5  and  O_8
REMARK    4  A    between atoms: C_9  and  C_11
REMARK    5  A    between atoms: C_9  and  C_21
REMARK    6  A    between atoms: C_14  and  O_19
REMARK    7  A    between atoms: C_16  and  O_17
REMARK    8  A    between atoms: C_23  and  C_28
REMARK    9  A    between atoms: C_26  and  O_27
REMARK                            x       y       z     vdW  Elec       q    Type
REMARK                         _______ _______ _______ _____ _____    ______ ____
ROOT
ATOM      1  C   UNL     1       0.184  -0.331  -2.674  0.00  0.00    +0.093 C 
ENDROOT
BRANCH   1   2
ATOM      2  C   UNL     1       0.179   1.171  -2.797  0.00  0.00    +0.008 A 
ATOM      3  C   UNL     1      -0.967   1.826  -3.207  0.00  0.00    +0.027 A 
ATOM      4  C   UNL     1      -0.975   3.203  -3.321  0.00  0.00    +0.061 A 
ATOM      5  C   UNL     1       0.169   3.932  -3.024  0.00  0.00    +0.148 A 
ATOM      6  C   UNL     1       1.319   3.277  -2.613  0.00  0.00    +0.102 A 
ATOM      7  C   UNL     1       1.323   1.895  -2.495  0.00  0.00    +0.138 A 
ATOM      8 BR   UNL     1       2.879   4.266  -2.208  0.00  0.00    -0.043 Br
ATOM      9 BR   UNL     1      -2.545   4.096  -3.882  0.00  0.00    -0.046 Br
BRANCH   7  10
ATOM     10  O   UNL     1       2.448   1.250  -2.087  0.00  0.00    -0.505 OA
ATOM     11  H   UNL     1       3.039   0.995  -2.808  0.00  0.00    +0.292 HD
ENDBRANCH   7  10
BRANCH   5  12
ATOM     12  O   UNL     1       0.160   5.287  -3.136  0.00  0.00    -0.504 OA
ATOM     13  H   UNL     1      -0.104   5.747  -2.328  0.00  0.00    +0.292 HD
ENDBRANCH   5  12
ENDBRANCH   1   2
BRANCH   1  14
ATOM     14  C   UNL     1      -1.231  -0.845  -2.728  0.00  0.00    +0.047 A 
ATOM     15  C   UNL     1      -1.712  -1.766  -3.595  0.00  0.00    +0.041 A 
ATOM     16  N   UNL     1      -3.019  -1.952  -3.317  0.00  0.00    -0.278 N 
ATOM     17  N   UNL     1      -3.357  -1.118  -2.243  0.00  0.00    -0.136 NA
ATOM     18  C   UNL     1      -2.283  -0.457  -1.885  0.00  0.00    +0.236 A 
ATOM     19  C   UNL     1      -0.927  -2.459  -4.678  0.00  0.00    +0.065 C 
ATOM     20  H   UNL     1      -3.620  -2.557  -3.780  0.00  0.00    +0.189 HD
BRANCH  18  22
ATOM     21  H   UNL     1      -2.471   1.344  -1.125  0.00  0.00    +0.294 HD
ATOM     22  O   UNL     1      -2.204   0.449  -0.874  0.00  0.00    -0.491 OA
ENDBRANCH  18  22
ENDBRANCH   1  14
BRANCH   1  25
ATOM     23  C   UNL     1       0.350   1.132   0.259  0.00  0.00    +0.039 C 
ATOM     24  C   UNL     1       0.341  -0.382   0.041  0.00  0.00    +0.157 C 
ATOM     25  C   UNL     1       0.812  -0.725  -1.361  0.00  0.00    +0.031 C 
ATOM     26  C   UNL     1       1.914  -1.460  -1.161  0.00  0.00    +0.234 C 
ATOM     27  N   UNL     1       2.160  -1.599   0.164  0.00  0.00    -0.116 NA
ATOM     28  N   UNL     1       1.341  -1.038   0.901  0.00  0.00    -0.176 NA
BRANCH  26  29
ATOM     29  O   UNL     1       2.679  -1.993  -2.150  0.00  0.00    -0.491 OA
ATOM     30  H   UNL     1       3.440  -2.497  -1.830  0.00  0.00    +0.294 HD
ENDBRANCH  26  29
ENDBRANCH   1  25
TORSDOF 7
