REMARK  Name = ZINC26387308
REMARK  9 active torsions:
REMARK  status: ('A' for Active; 'I' for Inactive)
REMARK    1  A    between atoms: C_1  and  C_2
REMARK    2  A    between atoms: C_2  and  C_3
REMARK    3  A    between atoms: C_2  and  C_4
REMARK    4  A    between atoms: C_4  and  C_5
REMARK    5  A    between atoms: N_7  and  C_8
REMARK    6  A    between atoms: C_11  and  N_14
REMARK    7  A    between atoms: C_15  and  C_17
REMARK    8  A    between atoms: N_26  and  C_29
REMARK    9  A    between atoms: C_29  and  C_30
REMARK                            x       y       z     vdW  Elec       q    Type
REMARK                         _______ _______ _______ _____ _____    ______ ____
ROOT
ATOM      1  N   UNL     1      -4.433   3.767   0.734  0.00  0.00    -0.282 N 
ATOM      2  C   UNL     1      -4.475   5.113   0.775  0.00  0.00    +0.248 C 
ATOM      3  O   UNL     1      -3.444   5.755   0.732  0.00  0.00    -0.270 OA
ATOM      4  H   UNL     1      -5.359   3.184   0.850  0.00  0.00    +0.155 HD
ENDROOT
BRANCH   2   5
ATOM      5  C   UNL     1      -5.777   5.810   0.874  0.00  0.00    +0.039 A 
ATOM      6  C   UNL     1      -6.961   5.069   0.924  0.00  0.00    +0.014 A 
ATOM      7  C   UNL     1      -8.178   5.708   1.016  0.00  0.00    +0.016 A 
ATOM      8  C   UNL     1      -8.225   7.100   1.059  0.00  0.00    +0.065 A 
ATOM      9  C   UNL     1      -7.038   7.851   1.009  0.00  0.00    +0.080 A 
ATOM     10  C   UNL     1      -5.816   7.202   0.922  0.00  0.00    +0.041 A 
ATOM     11  N   UNL     1      -7.121   9.235   1.054  0.00  0.00    -0.222 NA
ATOM     12  C   UNL     1      -8.313   9.848   1.144  0.00  0.00    +0.183 A 
ATOM     13  S   UNL     1      -8.354  11.559   1.196  0.00  0.00    -0.011 SA
ATOM     14  N   UNL     1      -9.475   9.177   1.194  0.00  0.00    -0.283 N 
ATOM     15  C   UNL     1      -9.506   7.827   1.157  0.00  0.00    +0.263 A 
ATOM     16  O   UNL     1     -10.562   7.227   1.203  0.00  0.00    -0.267 OA
BRANCH  14  17
ATOM     17  C   UNL     1     -10.732   9.922   1.291  0.00  0.00    +0.154 C 
BRANCH  17  18
ATOM     18  C   UNL     1     -11.248  10.219  -0.094  0.00  0.00    -0.013 C 
ATOM     19  C   UNL     1     -12.460   9.854  -0.433  0.00  0.00    +0.005 C 
ENDBRANCH  17  18
ENDBRANCH  14  17
ENDBRANCH   2   5
BRANCH   1  23
ATOM     20  C   UNL     1      -0.796   1.810   0.166  0.00  0.00    +0.033 A 
ATOM     21  C   UNL     1      -0.845   2.984   0.907  0.00  0.00    +0.025 A 
ATOM     22  C   UNL     1      -2.048   3.635   1.091  0.00  0.00    +0.025 A 
ATOM     23  C   UNL     1      -3.212   3.110   0.543  0.00  0.00    +0.034 A 
ATOM     24  C   UNL     1      -3.163   1.933  -0.194  0.00  0.00    +0.025 A 
ATOM     25  C   UNL     1      -1.959   1.286  -0.381  0.00  0.00    +0.025 A 
BRANCH  20  28
ATOM     26  C   UNL     1       0.675   0.515  -1.185  0.00  0.00    +0.217 C 
ATOM     27  O   UNL     1      -0.188   0.444  -2.034  0.00  0.00    -0.275 OA
ATOM     28  N   UNL     1       0.426   1.153  -0.024  0.00  0.00    -0.285 N 
ATOM     29  H   UNL     1       1.183   1.157   0.775  0.00  0.00    +0.155 HD
BRANCH  26  30
ATOM     30  C   UNL     1       2.025  -0.108  -1.428  0.00  0.00    +0.099 C 
BRANCH  30  32
ATOM     31  C   UNL     1       1.896   0.316  -3.887  0.00  0.00    +0.008 C 
ATOM     32  C   UNL     1       2.044  -0.762  -2.811  0.00  0.00    -0.008 C 
ATOM     33  C   UNL     1       3.369  -1.501  -3.008  0.00  0.00    +0.008 C 
ENDBRANCH  30  32
ENDBRANCH  26  30
ENDBRANCH  20  28
ENDBRANCH   1  23
TORSDOF 7
