REMARK  Name = ZINC35597328
REMARK  7 active torsions:
REMARK  status: ('A' for Active; 'I' for Inactive)
REMARK    1  A    between atoms: C_1  and  C_2
REMARK    2  A    between atoms: C_4  and  C_31
REMARK    3  A    between atoms: C_9  and  N_14
REMARK    4  A    between atoms: C_11  and  C_13
REMARK    5  A    between atoms: N_22  and  C_23
REMARK    6  A    between atoms: C_27  and  S_29
REMARK    7  A    between atoms: S_29  and  C_30
REMARK                            x       y       z     vdW  Elec       q    Type
REMARK                         _______ _______ _______ _____ _____    ______ ____
ROOT
ATOM      1  N   UNL     1       1.581  -4.435   4.512  0.00  0.00    -0.312 N 
ATOM      2  C   UNL     1       1.833  -5.714   5.191  0.00  0.00    +0.125 C 
ATOM      3  C   UNL     1       3.258  -5.696   5.757  0.00  0.00    +0.128 C 
ATOM      4  N   UNL     1       3.450  -4.447   6.507  0.00  0.00    -0.282 N 
ATOM      5  C   UNL     1       3.198  -3.168   5.828  0.00  0.00    +0.128 C 
ATOM      6  C   UNL     1       1.778  -3.185   5.260  0.00  0.00    +0.125 C 
ATOM      7  C   UNL     1       3.849  -4.473   7.794  0.00  0.00    +0.307 C 
ATOM      8  O   UNL     1       4.179  -5.525   8.307  0.00  0.00    -0.252 OA
ATOM      9  N   UNL     1       3.882  -3.333   8.513  0.00  0.00    -0.269 N 
ATOM     10  H   UNL     1       3.494  -2.521   8.152  0.00  0.00    +0.156 HD
ENDROOT
BRANCH   1  19
ATOM     11  C   UNL     1      -0.726   1.498   0.356  0.00  0.00    +0.067 C 
ATOM     12  C   UNL     1      -0.316   0.060   0.171  0.00  0.00    +0.061 A 
ATOM     13  C   UNL     1      -0.047  -0.564  -1.052  0.00  0.00    +0.048 A 
ATOM     14  C   UNL     1       0.287  -1.850  -0.800  0.00  0.00    +0.044 A 
ATOM     15  N   UNL     1       0.231  -2.033   0.545  0.00  0.00    -0.219 N 
ATOM     16  N   UNL     1      -0.145  -0.816   1.127  0.00  0.00    -0.170 NA
ATOM     17  C   UNL     1       0.503  -3.221   1.226  0.00  0.00    +0.159 A 
ATOM     18  C   UNL     1       0.911  -3.195   2.553  0.00  0.00    +0.092 A 
ATOM     19  C   UNL     1       1.171  -4.408   3.188  0.00  0.00    +0.127 A 
ATOM     20  N   UNL     1       1.019  -5.540   2.505  0.00  0.00    -0.218 NA
ATOM     21  C   UNL     1       0.629  -5.521   1.246  0.00  0.00    +0.130 A 
ATOM     22  N   UNL     1       0.370  -4.395   0.614  0.00  0.00    -0.213 NA
ATOM     23  C   UNL     1       0.471  -6.827   0.511  0.00  0.00    +0.088 C 
ATOM     24  C   UNL     1       0.654  -2.892  -1.826  0.00  0.00    +0.066 C 
ENDBRANCH   1  19
BRANCH   9  25
ATOM     25  C   UNL     1       4.477  -3.322   9.779  0.00  0.00    +0.036 A 
ATOM     26  C   UNL     1       4.577  -4.499  10.511  0.00  0.00    +0.023 A 
ATOM     27  C   UNL     1       5.165  -4.489  11.762  0.00  0.00    +0.003 A 
ATOM     28  C   UNL     1       5.654  -3.310  12.289  0.00  0.00    +0.015 A 
ATOM     29  C   UNL     1       5.558  -2.129  11.562  0.00  0.00    +0.009 A 
ATOM     30  C   UNL     1       4.973  -2.137  10.303  0.00  0.00    +0.038 A 
BRANCH  29  31
ATOM     31  S   UNL     1       6.182  -0.625  12.236  0.00  0.00    -0.129 S 
ATOM     32  C   UNL     1       6.840  -1.109  13.855  0.00  0.00    +0.090 C 
ENDBRANCH  29  31
ENDBRANCH   9  25
TORSDOF 3
