REMARK  Name = ZINC64109171
REMARK  8 active torsions:
REMARK  status: ('A' for Active; 'I' for Inactive)
REMARK    1  A    between atoms: C_1  and  C_2
REMARK    2  A    between atoms: C_5  and  C_8
REMARK    3  A    between atoms: C_8  and  O_9
REMARK    4  A    between atoms: O_9  and  C_10
REMARK    5  A    between atoms: C_14  and  C_16
REMARK    6  A    between atoms: C_17  and  C_18
REMARK    7  A    between atoms: N_20  and  C_21
REMARK    8  A    between atoms: C_24  and  C_29
REMARK                            x       y       z     vdW  Elec       q    Type
REMARK                         _______ _______ _______ _____ _____    ______ ____
ROOT
ATOM      1  C   UNL     1      -8.325  -0.963  -1.824  0.00  0.00    +0.013 C 
ATOM      2  C   UNL     1      -9.612  -1.361  -1.857  0.00  0.00    +0.068 C 
ENDROOT
BRANCH   1   7
ATOM      3  C   UNL     1      -5.170  -1.773   0.044  0.00  0.00    +0.122 A 
ATOM      4  C   UNL     1      -5.616  -2.774   0.898  0.00  0.00    +0.046 A 
ATOM      5  C   UNL     1      -6.937  -3.182   0.865  0.00  0.00    +0.004 A 
ATOM      6  C   UNL     1      -7.822  -2.598  -0.017  0.00  0.00    +0.008 A 
ATOM      7  C   UNL     1      -7.384  -1.589  -0.881  0.00  0.00    -0.021 A 
ATOM      8  C   UNL     1      -6.049  -1.175  -0.841  0.00  0.00    +0.053 A 
BRANCH   3   9
ATOM      9  O   UNL     1      -3.870  -1.378   0.082  0.00  0.00    -0.486 OA
BRANCH   9  10
ATOM     10  C   UNL     1      -3.018  -2.038   1.020  0.00  0.00    +0.280 C 
BRANCH  10  14
ATOM     11  C   UNL     1      -0.019   1.526   0.010  0.00  0.00    +0.044 C 
ATOM     12  C   UNL     1       0.002  -0.004   0.002  0.00  0.00    +0.159 C 
ATOM     13  N   UNL     1      -1.364  -0.557   0.099  0.00  0.00    -0.275 NA
ATOM     14  C   UNL     1      -1.626  -1.472   0.919  0.00  0.00    +0.062 C 
ATOM     15  C   UNL     1      -0.508  -1.996   1.810  0.00  0.00    +0.125 C 
ATOM     16  S   UNL     1       0.753  -0.670   1.552  0.00  0.00    -0.129 S 
ENDBRANCH  10  14
ENDBRANCH   9  10
ENDBRANCH   3   9
ENDBRANCH   1   7
BRANCH   2  17
ATOM     17  C   UNL     1     -10.548  -0.738  -2.795  0.00  0.00    +0.238 C 
ATOM     18  O   UNL     1     -10.163   0.140  -3.545  0.00  0.00    -0.271 OA
ATOM     19  N   UNL     1     -11.835  -1.136  -2.827  0.00  0.00    -0.297 N 
ATOM     20  H   UNL     1     -12.141  -1.836  -2.229  0.00  0.00    +0.150 HD
BRANCH  19  21
ATOM     21  C   UNL     1     -12.771  -0.513  -3.766  0.00  0.00    +0.185 C 
ATOM     22  C   UNL     1     -14.160  -0.584  -3.160  0.00  0.00    +0.018 C 
ATOM     23  C   UNL     1     -15.108  -1.219  -3.866  0.00  0.00    +0.069 C 
ATOM     24  C   UNL     1     -14.819  -1.795  -5.118  0.00  0.00    +0.113 C 
ATOM     25  N   UNL     1     -13.644  -1.764  -5.685  0.00  0.00    -0.186 NA
ATOM     26  C   UNL     1     -12.586  -1.171  -5.119  0.00  0.00    +0.260 C 
ATOM     27  O   UNL     1     -11.507  -1.160  -5.675  0.00  0.00    -0.271 OA
BRANCH  23  28
ATOM     28  C   UNL     1     -16.505  -1.318  -3.309  0.00  0.00    +0.418 C 
ATOM     29  F   UNL     1     -17.286  -0.277  -3.822  0.00  0.00    -0.166 F 
ATOM     30  F   UNL     1     -17.067  -2.546  -3.674  0.00  0.00    -0.166 F 
ATOM     31  F   UNL     1     -16.459  -1.222  -1.914  0.00  0.00    -0.166 F 
ENDBRANCH  23  28
ENDBRANCH  19  21
ENDBRANCH   2  17
TORSDOF 7
