REMARK  Name = ZINC37012175
REMARK  4 active torsions:
REMARK  status: ('A' for Active; 'I' for Inactive)
REMARK    1  A    between atoms: C_2  and  C_3
REMARK    2  A    between atoms: N_5  and  C_6
REMARK    3  A    between atoms: C_9  and  S_13
REMARK    4  A    between atoms: S_13  and  N_16
REMARK                            x       y       z     vdW  Elec       q    Type
REMARK                         _______ _______ _______ _____ _____    ______ ____
ROOT
ATOM      1  C   UNL     1       2.494  -2.797  -0.127  0.00  0.00    +0.048 A 
ATOM      2  C   UNL     1       3.716  -2.138  -0.124  0.00  0.00    +0.026 A 
ATOM      3  C   UNL     1       4.889  -2.859  -0.228  0.00  0.00    +0.030 A 
ATOM      4  C   UNL     1       4.848  -4.237  -0.336  0.00  0.00    +0.106 A 
ATOM      5  C   UNL     1       3.633  -4.898  -0.340  0.00  0.00    +0.045 A 
ATOM      6  C   UNL     1       2.456  -4.183  -0.230  0.00  0.00    +0.041 A 
ATOM      7 BR   UNL     1       0.795  -5.087  -0.228  0.00  0.00    -0.048 Br
ENDROOT
BRANCH   1  10
ATOM      8  C   UNL     1       1.207  -0.851  -0.588  0.00  0.00    +0.241 C 
ATOM      9  O   UNL     1       2.178  -0.348  -1.120  0.00  0.00    -0.271 OA
ATOM     10  N   UNL     1       1.304  -2.070  -0.021  0.00  0.00    -0.281 N 
ATOM     11  H   UNL     1       0.548  -2.442   0.460  0.00  0.00    +0.155 HD
BRANCH   8  13
ATOM     12  C   UNL     1      -0.169   1.076  -1.122  0.00  0.00    +0.013 C 
ATOM     13  C   UNL     1      -0.074  -0.128  -0.563  0.00  0.00    +0.060 C 
ENDBRANCH   8  13
ENDBRANCH   1  10
BRANCH   4  14
ATOM     14  S   UNL     1       6.347  -5.153  -0.469  0.00  0.00    +0.056 S 
ATOM     15  O   UNL     1       6.018  -6.380  -1.106  0.00  0.00    -0.153 OA
ATOM     16  O   UNL     1       7.323  -4.262  -0.991  0.00  0.00    -0.153 OA
BRANCH  14  17
ATOM     17  N   UNL     1       6.827  -5.533   1.070  0.00  0.00    -0.204 NA
ATOM     18  H   UNL     1       7.330  -6.346   1.234  0.00  0.00    +0.144 HD
ATOM     19  H   UNL     1       6.605  -4.942   1.807  0.00  0.00    +0.144 HD
ENDBRANCH  14  17
ENDBRANCH   4  14
TORSDOF 4
