REMARK  Name = ZINC17012269
REMARK  4 active torsions:
REMARK  status: ('A' for Active; 'I' for Inactive)
REMARK    1  A    between atoms: C_1  and  C_2
REMARK    2  A    between atoms: C_4  and  N_23
REMARK    3  A    between atoms: C_14  and  C_16
REMARK    4  A    between atoms: N_26  and  C_29
REMARK                            x       y       z     vdW  Elec       q    Type
REMARK                         _______ _______ _______ _____ _____    ______ ____
ROOT
ATOM      1  C   UNL     1      -0.267   1.526   0.113  0.00  0.00    +0.066 C 
ATOM      2  C   UNL     1      -0.489   0.035   0.111  0.00  0.00    +0.045 A 
ATOM      3  C   UNL     1      -0.647  -0.645  -1.081  0.00  0.00    +0.066 A 
ATOM      4  C   UNL     1      -0.851  -2.026  -1.037  0.00  0.00    +0.126 A 
ATOM      5  N   UNL     1      -0.884  -2.636   0.143  0.00  0.00    -0.199 NA
ATOM      6  C   UNL     1      -0.728  -1.947   1.263  0.00  0.00    +0.220 A 
ATOM      7  N   UNL     1      -0.529  -0.637   1.252  0.00  0.00    -0.219 NA
ATOM      8  N   UNL     1      -0.769  -2.612   2.476  0.00  0.00    -0.297 N 
ATOM      9  C   UNL     1      -0.976  -4.066   2.525  0.00  0.00    +0.127 C 
ATOM     10  C   UNL     1       0.176  -4.700   3.314  0.00  0.00    +0.127 C 
ATOM     11  N   UNL     1       0.340  -3.965   4.577  0.00  0.00    -0.295 N 
ATOM     12  C   UNL     1       0.548  -2.511   4.528  0.00  0.00    +0.127 C 
ATOM     13  C   UNL     1      -0.599  -1.878   3.738  0.00  0.00    +0.127 C 
ATOM     14  C   UNL     1       0.301  -4.613   5.758  0.00  0.00    +0.247 C 
ATOM     15  O   UNL     1       0.331  -3.984   6.797  0.00  0.00    -0.270 OA
ENDROOT
BRANCH   4  16
ATOM     16  N   UNL     1      -1.015  -2.749  -2.207  0.00  0.00    -0.319 N 
ATOM     17  C   UNL     1      -1.023  -4.220  -2.192  0.00  0.00    +0.088 C 
ATOM     18  C   UNL     1      -2.261  -4.707  -2.954  0.00  0.00    -0.060 C 
ATOM     19  N   UNL     1      -2.272  -4.114  -4.297  0.00  0.00    +0.380 N 
ATOM     20  C   UNL     1      -2.416  -2.656  -4.199  0.00  0.00    -0.060 C 
ATOM     21  C   UNL     1      -1.192  -2.068  -3.499  0.00  0.00    +0.088 C 
ATOM     22  C   UNL     1      -3.397  -4.665  -5.064  0.00  0.00    -0.096 C 
ATOM     23  H   UNL     1      -1.407  -4.335  -4.768  0.00  0.00    -0.082 HD
ENDBRANCH   4  16
BRANCH  14  24
ATOM     24  C   UNL     1       0.222  -6.088   5.789  0.00  0.00    +0.037 A 
ATOM     25  C   UNL     1       1.000  -6.851   4.916  0.00  0.00    +0.014 A 
ATOM     26  C   UNL     1       0.922  -8.227   4.949  0.00  0.00    +0.016 A 
ATOM     27  C   UNL     1       0.073  -8.853   5.847  0.00  0.00    +0.018 A 
ATOM     28  C   UNL     1      -0.701  -8.103   6.715  0.00  0.00    +0.016 A 
ATOM     29  C   UNL     1      -0.628  -6.726   6.695  0.00  0.00    +0.014 A 
ATOM     30 BR   UNL     1      -0.029 -10.741   5.886  0.00  0.00    -0.050 Br
ENDBRANCH  14  24
TORSDOF 2
