REMARK  Name = ZINC64952224
REMARK  5 active torsions:
REMARK  status: ('A' for Active; 'I' for Inactive)
REMARK    1  A    between atoms: C_1  and  C_2
REMARK    2  A    between atoms: C_12  and  S_15
REMARK    3  A    between atoms: S_15  and  N_18
REMARK    4  A    between atoms: N_18  and  C_19
REMARK    5  A    between atoms: C_22  and  C_25
REMARK                            x       y       z     vdW  Elec       q    Type
REMARK                         _______ _______ _______ _____ _____    ______ ____
ROOT
ATOM      1  S   UNL     1      -3.988   2.266  -3.059  0.00  0.00    +0.072 S 
ATOM      2  O   UNL     1      -4.868   2.364  -4.170  0.00  0.00    -0.150 OA
ATOM      3  O   UNL     1      -3.892   1.092  -2.264  0.00  0.00    -0.150 OA
ENDROOT
BRANCH   1  15
ATOM      4  C   UNL     1       0.877   3.169  -1.002  0.00  0.00    +0.109 C 
ATOM      5  C   UNL     1       1.555   2.035  -1.726  0.00  0.00    +0.217 C 
ATOM      6  O   UNL     1       2.508   1.478  -1.223  0.00  0.00    -0.276 OA
ATOM      7  N   UNL     1       1.103   1.640  -2.933  0.00  0.00    -0.270 N 
ATOM      8  C   UNL     1       1.749   0.530  -3.653  0.00  0.00    +0.114 C 
ATOM      9  C   UNL     1       2.857   1.030  -4.543  0.00  0.00    +0.030 C 
ATOM     10  C   UNL     1       2.414   1.882  -5.721  0.00  0.00    +0.076 C 
ATOM     11  S   UNL     1       1.823   3.498  -5.138  0.00  0.00    -0.123 S 
ATOM     12  C   UNL     1       0.165   3.141  -4.605  0.00  0.00    +0.029 A 
ATOM     13  C   UNL     1       0.006   2.270  -3.528  0.00  0.00    +0.051 A 
ATOM     14  C   UNL     1      -1.275   2.015  -3.051  0.00  0.00    +0.053 A 
ATOM     15  C   UNL     1      -2.368   2.594  -3.669  0.00  0.00    +0.110 A 
ATOM     16  C   UNL     1      -2.205   3.428  -4.760  0.00  0.00    +0.030 A 
ATOM     17  C   UNL     1      -0.920   3.712  -5.236  0.00  0.00    +0.018 A 
ENDBRANCH   1  15
BRANCH   1  18
ATOM     18  N   UNL     1      -4.384   3.502  -2.031  0.00  0.00    -0.216 N 
ATOM     19  H   UNL     1      -5.110   4.105  -2.254  0.00  0.00    +0.174 HD
BRANCH  18  20
ATOM     20  C   UNL     1      -3.673   3.677  -0.844  0.00  0.00    +0.048 A 
ATOM     21  C   UNL     1      -3.889   2.816   0.227  0.00  0.00    +0.025 A 
ATOM     22  C   UNL     1      -3.189   2.986   1.401  0.00  0.00    +0.013 A 
ATOM     23  C   UNL     1      -2.260   4.023   1.515  0.00  0.00    +0.020 A 
ATOM     24  C   UNL     1      -2.045   4.885   0.437  0.00  0.00    +0.013 A 
ATOM     25  C   UNL     1      -2.745   4.707  -0.736  0.00  0.00    +0.025 A 
BRANCH  23  26
ATOM     26  C   UNL     1      -1.507   4.207   2.772  0.00  0.00    +0.167 A 
ATOM     27  C   UNL     1      -0.581   5.175   3.019  0.00  0.00    +0.072 A 
ATOM     28  C   UNL     1      -0.107   4.997   4.327  0.00  0.00    +0.157 A 
ATOM     29  N   UNL     1      -0.718   3.969   4.847  0.00  0.00    -0.086 NA
ATOM     30  O   UNL     1      -1.617   3.453   3.882  0.00  0.00    -0.355 OA
ENDBRANCH  23  26
ENDBRANCH  18  20
ENDBRANCH   1  18
TORSDOF 4
