REMARK  Name = ZINC20722207
REMARK  5 active torsions:
REMARK  status: ('A' for Active; 'I' for Inactive)
REMARK    1  A    between atoms: C_1  and  C_2
REMARK    2  A    between atoms: C_4  and  C_24
REMARK    3  A    between atoms: C_6  and  S_10
REMARK    4  A    between atoms: C_7  and  C_8
REMARK    5  A    between atoms: S_10  and  C_11
REMARK                            x       y       z     vdW  Elec       q    Type
REMARK                         _______ _______ _______ _____ _____    ______ ____
ROOT
ATOM      1  C   UNL     1       0.078  -4.794   2.067  0.00  0.00    +0.139 C 
ATOM      2  C   UNL     1       0.249  -5.702   3.261  0.00  0.00    +0.028 C 
ATOM      3  C   UNL     1       0.611  -7.108   2.895  0.00  0.00    +0.038 C 
ATOM      4  C   UNL     1      -0.512  -7.959   2.398  0.00  0.00    -0.026 A 
ATOM      5  C   UNL     1      -0.457  -9.303   2.771  0.00  0.00    +0.005 A 
ATOM      6  C   UNL     1      -1.433 -10.195   2.390  0.00  0.00    +0.000 A 
ATOM      7  C   UNL     1      -2.495  -9.754   1.621  0.00  0.00    +0.002 A 
ATOM      8  C   UNL     1      -2.557  -8.435   1.245  0.00  0.00    +0.023 A 
ATOM      9  C   UNL     1      -1.561  -7.517   1.622  0.00  0.00    +0.037 A 
ATOM     10  N   UNL     1      -1.743  -6.239   1.146  0.00  0.00    -0.284 N 
ATOM     11  C   UNL     1      -1.184  -5.078   1.333  0.00  0.00    +0.231 C 
ATOM     12  O   UNL     1      -1.755  -4.122   0.852  0.00  0.00    -0.274 OA
ATOM     13  H   UNL     1      -2.474  -6.190   0.510  0.00  0.00    +0.155 HD
ENDROOT
BRANCH   1  14
ATOM     14  S   UNL     1       0.057  -3.071   2.633  0.00  0.00    -0.092 S 
BRANCH  14  20
ATOM     15  C   UNL     1      -0.018   1.503   0.010  0.00  0.00    +0.045 C 
ATOM     16  C   UNL     1       0.002  -0.004   0.002  0.00  0.00    -0.029 A 
ATOM     17  C   UNL     1       0.006  -0.707  -1.191  0.00  0.00    +0.027 A 
ATOM     18  C   UNL     1       0.025  -2.089  -1.167  0.00  0.00    +0.040 A 
ATOM     19  N   UNL     1       0.040  -2.754  -0.028  0.00  0.00    -0.244 NA
ATOM     20  C   UNL     1       0.037  -2.133   1.142  0.00  0.00    +0.116 A 
ATOM     21  C   UNL     1       0.023  -0.727   1.200  0.00  0.00    +0.086 A 
ATOM     22  C   UNL     1       0.029  -2.851  -2.467  0.00  0.00    +0.065 C 
BRANCH  21  23
ATOM     23  C   UNL     1       0.026  -0.049   2.461  0.00  0.00    +0.102 C 
ATOM     24  N   UNL     1       0.028   0.489   3.462  0.00  0.00    -0.191 NA
ENDBRANCH  21  23
ENDBRANCH  14  20
ENDBRANCH   1  14
TORSDOF 3
