REMARK  Name = ZINC44477585
REMARK  3 active torsions:
REMARK  status: ('A' for Active; 'I' for Inactive)
REMARK    1  A    between atoms: C_1  and  C_2
REMARK    2  A    between atoms: C_7  and  C_9
REMARK    3  A    between atoms: C_7  and  C_10
REMARK                            x       y       z     vdW  Elec       q    Type
REMARK                         _______ _______ _______ _____ _____    ______ ____
ROOT
ATOM      1  C   UNL     1      -0.331   1.317   0.296  0.00  0.00    +0.039 C 
ATOM      2  C   UNL     1      -0.111  -0.194   0.198  0.00  0.00    +0.133 C 
ATOM      3  C   UNL     1       0.522  -0.533  -1.156  0.00  0.00    +0.138 C 
ATOM      4  N   UNL     1       0.894  -1.957  -1.151  0.00  0.00    -0.309 N 
ATOM      5  C   UNL     1       1.683  -2.462  -0.016  0.00  0.00    +0.141 C 
ATOM      6  C   UNL     1       0.994  -2.028   1.283  0.00  0.00    +0.080 C 
ATOM      7  O   UNL     1       0.764  -0.618   1.247  0.00  0.00    -0.368 OA
ATOM      8  C   UNL     1       1.890  -2.370   2.475  0.00  0.00    +0.043 C 
ATOM      9  C   UNL     1      -0.343  -2.760   1.421  0.00  0.00    +0.043 C 
ATOM     10  C   UNL     1       0.510  -2.800  -2.187  0.00  0.00    +0.141 A 
ATOM     11  C   UNL     1      -0.046  -2.271  -3.349  0.00  0.00    +0.154 A 
ATOM     12  N   UNL     1      -0.408  -3.074  -4.331  0.00  0.00    -0.257 NA
ATOM     13  C   UNL     1      -0.244  -4.381  -4.214  0.00  0.00    +0.151 A 
ATOM     14  C   UNL     1       0.308  -4.911  -3.061  0.00  0.00    +0.149 A 
ATOM     15  N   UNL     1       0.678  -4.112  -2.074  0.00  0.00    -0.218 NA
ATOM     16 CL   UNL     1       0.521  -6.628  -2.913  0.00  0.00    -0.060 Cl
ENDROOT
TORSDOF 0
