REMARK  Name = ZINC39688513
REMARK  7 active torsions:
REMARK  status: ('A' for Active; 'I' for Inactive)
REMARK    1  A    between atoms: C_1  and  C_2
REMARK    2  A    between atoms: C_2  and  C_4
REMARK    3  A    between atoms: C_2  and  N_12
REMARK    4  A    between atoms: C_4  and  C_5
REMARK    5  A    between atoms: C_13  and  C_15
REMARK    6  A    between atoms: C_26  and  C_28
REMARK    7  A    between atoms: C_30  and  C_35
REMARK                            x       y       z     vdW  Elec       q    Type
REMARK                         _______ _______ _______ _____ _____    ______ ____
ROOT
ATOM      1  C   UNL     1       3.309  -0.987   2.343  0.00  0.00    +0.100 C 
ATOM      2  C   UNL     1       2.555  -2.326   2.181  0.00  0.00    +0.121 C 
ATOM      3  N   UNL     1       3.619  -3.324   1.919  0.00  0.00    -0.296 N 
ATOM      4  C   UNL     1       4.729  -2.924   2.816  0.00  0.00    +0.115 C 
ATOM      5  C   UNL     1       4.734  -1.383   2.763  0.00  0.00    -0.004 C 
ATOM      6  C   UNL     1       5.058  -0.809   4.139  0.00  0.00    -0.010 C 
ATOM      7  C   UNL     1       6.500  -1.167   4.509  0.00  0.00    -0.082 C 
ATOM      8  N   UNL     1       7.417  -0.622   3.501  0.00  0.00    +0.379 N 
ATOM      9  C   UNL     1       7.159  -1.249   2.199  0.00  0.00    -0.082 C 
ATOM     10  C   UNL     1       5.745  -0.894   1.730  0.00  0.00    -0.010 C 
ATOM     11  C   UNL     1       3.584  -4.362   1.059  0.00  0.00    +0.247 C 
ATOM     12  O   UNL     1       4.615  -4.779   0.568  0.00  0.00    -0.270 OA
ATOM     13  H   UNL     1       7.278   0.375   3.426  0.00  0.00    -0.086 HD
ATOM     14  H   UNL     1       8.369  -0.806   3.779  0.00  0.00    -0.086 HD
ENDROOT
BRANCH  11  15
ATOM     15  C   UNL     1       2.293  -4.993   0.714  0.00  0.00    +0.040 A 
ATOM     16  C   UNL     1       2.268  -6.211   0.032  0.00  0.00    +0.025 A 
ATOM     17  C   UNL     1       1.060  -6.796  -0.287  0.00  0.00    +0.058 A 
ATOM     18  C   UNL     1      -0.127  -6.179   0.067  0.00  0.00    +0.050 A 
ATOM     19  C   UNL     1      -0.110  -4.970   0.743  0.00  0.00    +0.125 A 
ATOM     20  C   UNL     1       1.094  -4.377   1.074  0.00  0.00    +0.051 A 
ATOM     21  F   UNL     1      -1.273  -4.373   1.085  0.00  0.00    -0.205 F 
BRANCH  17  22
ATOM     22  C   UNL     1       1.033  -8.110  -1.024  0.00  0.00    +0.418 C 
ATOM     23  F   UNL     1       1.033  -9.162  -0.102  0.00  0.00    -0.166 F 
ATOM     24  F   UNL     1      -0.122  -8.180  -1.811  0.00  0.00    -0.166 F 
ATOM     25  F   UNL     1       2.163  -8.209  -1.844  0.00  0.00    -0.166 F 
ENDBRANCH  17  22
ENDBRANCH  11  15
BRANCH   1  27
ATOM     26  N   UNL     1       3.554   1.091   1.023  0.00  0.00    -0.312 N 
ATOM     27  C   UNL     1       3.336  -0.239   1.035  0.00  0.00    +0.218 C 
ATOM     28  O   UNL     1       3.163  -0.834  -0.008  0.00  0.00    -0.275 OA
ATOM     29  H   UNL     1       3.621   1.579   1.859  0.00  0.00    +0.149 HD
BRANCH  26  31
ATOM     30  C   UNL     1       5.107   1.609  -0.793  0.00  0.00    +0.028 C 
ATOM     31  C   UNL     1       3.689   1.800  -0.251  0.00  0.00    +0.074 C 
BRANCH  31  32
ATOM     32  C   UNL     1       3.422   3.292  -0.036  0.00  0.00    +0.057 C 
BRANCH  32  33
ATOM     33  C   UNL     1       1.985   3.490   0.374  0.00  0.00    -0.045 A 
ATOM     34  C   UNL     1       0.998   3.582  -0.589  0.00  0.00    +0.006 A 
ATOM     35  C   UNL     1      -0.319   3.764  -0.214  0.00  0.00    +0.038 A 
ATOM     36  C   UNL     1      -0.651   3.855   1.127  0.00  0.00    +0.123 A 
ATOM     37  C   UNL     1       0.339   3.763   2.091  0.00  0.00    +0.038 A 
ATOM     38  C   UNL     1       1.655   3.576   1.714  0.00  0.00    +0.006 A 
ATOM     39  F   UNL     1      -1.938   4.033   1.495  0.00  0.00    -0.205 F 
ENDBRANCH  32  33
ENDBRANCH  31  32
ENDBRANCH  26  31
ENDBRANCH   1  27
TORSDOF 6
