REMARK  Name = ZINC08832785
REMARK  11 active torsions:
REMARK  status: ('A' for Active; 'I' for Inactive)
REMARK    1  A    between atoms: C_1  and  C_2
REMARK    2  A    between atoms: C_4  and  N_20
REMARK    3  A    between atoms: C_7  and  N_8
REMARK    4  A    between atoms: C_9  and  C_11
REMARK    5  A    between atoms: N_20  and  C_21
REMARK    6  A    between atoms: C_21  and  N_23
REMARK    7  A    between atoms: C_24  and  C_26
REMARK    8  A    between atoms: C_28  and  O_34
REMARK    9  A    between atoms: C_30  and  O_32
REMARK   10  A    between atoms: O_32  and  C_33
REMARK   11  A    between atoms: O_34  and  C_35
REMARK                            x       y       z     vdW  Elec       q    Type
REMARK                         _______ _______ _______ _____ _____    ______ ____
ROOT
ATOM      1  C   UNL     1      -7.207   1.143   0.119  0.00  0.00    +0.046 C 
ATOM      2  C   UNL     1      -5.876   1.848   0.062  0.00  0.00    -0.027 A 
ATOM      3  C   UNL     1      -4.705   1.119   0.139  0.00  0.00    +0.028 A 
ATOM      4  C   UNL     1      -3.479   1.769   0.086  0.00  0.00    +0.033 A 
ATOM      5  C   UNL     1      -3.429   3.151  -0.038  0.00  0.00    +0.025 A 
ATOM      6  C   UNL     1      -4.599   3.879  -0.120  0.00  0.00    +0.025 A 
ATOM      7  C   UNL     1      -5.826   3.230  -0.068  0.00  0.00    +0.037 A 
ENDROOT
BRANCH   7   8
ATOM      8  N   UNL     1      -7.013   3.968  -0.146  0.00  0.00    -0.279 N 
ATOM      9  C   UNL     1      -7.054   5.102  -0.873  0.00  0.00    +0.284 C 
ATOM     10  O   UNL     1      -6.047   5.511  -1.420  0.00  0.00    -0.266 OA
ATOM     11  H   UNL     1      -7.806   3.664   0.323  0.00  0.00    +0.155 HD
BRANCH   9  12
ATOM     12  C   UNL     1      -8.316   5.844  -1.006  0.00  0.00    +0.191 A 
ATOM     13  C   UNL     1      -8.476   6.994  -1.712  0.00  0.00    +0.063 A 
ATOM     14  C   UNL     1      -9.882   7.367  -1.565  0.00  0.00    +0.021 A 
ATOM     15  C   UNL     1     -10.664   8.424  -2.038  0.00  0.00    +0.011 A 
ATOM     16  C   UNL     1     -11.989   8.485  -1.711  0.00  0.00    +0.001 A 
ATOM     17  C   UNL     1     -12.563   7.504  -0.913  0.00  0.00    +0.004 A 
ATOM     18  C   UNL     1     -11.809   6.453  -0.437  0.00  0.00    +0.047 A 
ATOM     19  C   UNL     1     -10.458   6.370  -0.756  0.00  0.00    +0.136 A 
ATOM     20  O   UNL     1      -9.492   5.482  -0.452  0.00  0.00    -0.450 OA
ENDBRANCH   9  12
ENDBRANCH   7   8
BRANCH   4  21
ATOM     21  N   UNL     1      -2.292   1.030   0.164  0.00  0.00    -0.297 N 
ATOM     22  H   UNL     1      -1.562   1.342   0.722  0.00  0.00    +0.154 HD
BRANCH  21  23
ATOM     23  C   UNL     1      -2.163  -0.115  -0.536  0.00  0.00    +0.141 C 
ATOM     24  S   UNL     1      -3.483  -0.714  -1.447  0.00  0.00    -0.018 S 
BRANCH  23  25
ATOM     25  N   UNL     1      -0.996  -0.788  -0.518  0.00  0.00    -0.264 N 
ATOM     26  C   UNL     1      -0.869  -1.935  -1.214  0.00  0.00    +0.250 C 
ATOM     27  O   UNL     1      -1.806  -2.360  -1.861  0.00  0.00    -0.270 OA
ATOM     28  H   UNL     1      -0.248  -0.448  -0.002  0.00  0.00    +0.157 HD
BRANCH  26  29
ATOM     29  C   UNL     1       0.410  -2.676  -1.190  0.00  0.00    +0.044 A 
ATOM     30  C   UNL     1       1.489  -2.187  -0.452  0.00  0.00    +0.059 A 
ATOM     31  C   UNL     1       2.683  -2.888  -0.428  0.00  0.00    +0.124 A 
ATOM     32  C   UNL     1       2.811  -4.069  -1.145  0.00  0.00    +0.091 A 
ATOM     33  C   UNL     1       1.743  -4.556  -1.884  0.00  0.00    +0.124 A 
ATOM     34  C   UNL     1       0.543  -3.865  -1.909  0.00  0.00    +0.059 A 
BRANCH  33  35
ATOM     35  O   UNL     1       1.874  -5.713  -2.584  0.00  0.00    -0.495 OA
ATOM     36  C   UNL     1       3.139  -6.375  -2.513  0.00  0.00    +0.277 C 
ENDBRANCH  33  35
BRANCH  31  37
ATOM     37  O   UNL     1       3.733  -2.415   0.294  0.00  0.00    -0.495 OA
ATOM     38  C   UNL     1       4.936  -3.185   0.270  0.00  0.00    +0.277 C 
ENDBRANCH  31  37
ENDBRANCH  26  29
ENDBRANCH  23  25
ENDBRANCH  21  23
ENDBRANCH   4  21
TORSDOF 8
