REMARK  Name = ZINC08796878
REMARK  6 active torsions:
REMARK  status: ('A' for Active; 'I' for Inactive)
REMARK    1  A    between atoms: C_1  and  C_2
REMARK    2  A    between atoms: N_8  and  S_9
REMARK    3  A    between atoms: S_9  and  C_12
REMARK    4  A    between atoms: C_15  and  C_18
REMARK    5  A    between atoms: C_18  and  N_20
REMARK    6  A    between atoms: N_22  and  C_32
REMARK                            x       y       z     vdW  Elec       q    Type
REMARK                         _______ _______ _______ _____ _____    ______ ____
ROOT
ATOM      1  C   UNL     1       0.133   0.149   3.579  0.00  0.00    +0.106 A 
ATOM      2  C   UNL     1      -0.811   1.160   3.562  0.00  0.00    +0.029 A 
ATOM      3  C   UNL     1      -1.669   1.326   4.630  0.00  0.00    +0.015 A 
ATOM      4  C   UNL     1      -1.583   0.470   5.728  0.00  0.00    +0.039 A 
ATOM      5  C   UNL     1      -0.629  -0.547   5.740  0.00  0.00    +0.015 A 
ATOM      6  C   UNL     1       0.219  -0.706   4.663  0.00  0.00    +0.029 A 
ENDROOT
BRANCH   1   7
ATOM      7  S   UNL     1       1.225  -0.055   2.212  0.00  0.00    +0.061 S 
ATOM      8  O   UNL     1       2.372  -0.733   2.705  0.00  0.00    -0.153 OA
ATOM      9  O   UNL     1       1.307   1.208   1.565  0.00  0.00    -0.153 OA
BRANCH   7  16
ATOM     10  C   UNL     1      -0.537   0.945   0.235  0.00  0.00    +0.026 C 
ATOM     11  C   UNL     1      -0.492  -0.583   0.174  0.00  0.00    +0.077 C 
ATOM     12  C   UNL     1      -0.071  -1.029  -1.230  0.00  0.00    +0.020 C 
ATOM     13  C   UNL     1       0.107  -2.549  -1.247  0.00  0.00    +0.003 C 
ATOM     14  C   UNL     1       1.210  -2.945  -0.263  0.00  0.00    +0.017 C 
ATOM     15  C   UNL     1       0.804  -2.521   1.152  0.00  0.00    +0.110 C 
ATOM     16  N   UNL     1       0.488  -1.086   1.146  0.00  0.00    -0.174 NA
ENDBRANCH   7  16
ENDBRANCH   1   7
BRANCH   4  17
ATOM     17  C   UNL     1      -2.500   0.643   6.878  0.00  0.00    +0.269 C 
ATOM     18  O   UNL     1      -3.332   1.533   6.866  0.00  0.00    -0.268 OA
BRANCH  17  19
ATOM     19  N   UNL     1      -2.416  -0.178   7.930  0.00  0.00    -0.152 NA
ATOM     20  C   UNL     1      -1.619   0.126   8.948  0.00  0.00    +0.167 A 
ATOM     21  N   UNL     1      -0.829   1.222   9.089  0.00  0.00    -0.322 N 
ATOM     22  C   UNL     1      -0.060   1.373  10.230  0.00  0.00    +0.093 A 
ATOM     23  C   UNL     1       0.816   2.413  10.577  0.00  0.00    +0.151 A 
ATOM     24  C   UNL     1       1.501   2.384  11.771  0.00  0.00    +0.078 A 
ATOM     25  C   UNL     1       1.347   1.332  12.661  0.00  0.00    +0.127 A 
ATOM     26  C   UNL     1       0.488   0.293  12.340  0.00  0.00    +0.055 A 
ATOM     27  C   UNL     1      -0.196   0.322  11.147  0.00  0.00    +0.044 A 
ATOM     28  S   UNL     1      -1.365  -0.754  10.357  0.00  0.00    -0.052 S 
ATOM     29  F   UNL     1       2.027   1.319  13.828  0.00  0.00    -0.205 F 
ATOM     30  F   UNL     1       0.988   3.453   9.731  0.00  0.00    -0.203 F 
ATOM     31  C   UNL     1      -0.792   2.241   8.037  0.00  0.00    +0.151 C 
ENDBRANCH  17  19
ENDBRANCH   4  17
TORSDOF 4
