REMARK  Name = ZINC39685801
REMARK  12 active torsions:
REMARK  status: ('A' for Active; 'I' for Inactive)
REMARK    1  A    between atoms: C_1  and  C_2
REMARK    2  A    between atoms: C_6  and  C_9
REMARK    3  A    between atoms: C_13  and  C_22
REMARK    4  A    between atoms: N_24  and  C_25
REMARK    5  A    between atoms: C_25  and  C_27
REMARK    6  A    between atoms: C_25  and  C_30
REMARK    7  A    between atoms: C_27  and  C_28
REMARK    8  A    between atoms: C_27  and  C_29
REMARK    9  A    between atoms: N_32  and  C_33
REMARK   10  A    between atoms: C_33  and  C_34
REMARK   11  A    between atoms: C_33  and  C_35
REMARK   12  A    between atoms: C_33  and  C_36
REMARK                            x       y       z     vdW  Elec       q    Type
REMARK                         _______ _______ _______ _____ _____    ______ ____
ROOT
ATOM      1  C   UNL     1       0.177  -2.529   1.292  0.00  0.00    +0.252 C 
ATOM      2  O   UNL     1       1.155  -2.631   2.007  0.00  0.00    -0.270 OA
ATOM      3  N   UNL     1      -1.058  -2.591   1.827  0.00  0.00    -0.296 N 
ATOM      4  C   UNL     1      -2.359  -2.495   1.123  0.00  0.00    +0.121 C 
ATOM      5  C   UNL     1      -3.261  -3.535   1.827  0.00  0.00    +0.100 C 
ATOM      6  C   UNL     1      -2.643  -3.709   3.224  0.00  0.00    -0.004 C 
ATOM      7  C   UNL     1      -1.423  -2.776   3.252  0.00  0.00    +0.115 C 
ATOM      8  C   UNL     1      -2.199  -5.154   3.429  0.00  0.00    -0.010 C 
ATOM      9  C   UNL     1      -1.640  -5.316   4.845  0.00  0.00    -0.082 C 
ATOM     10  N   UNL     1      -2.673  -4.956   5.824  0.00  0.00    +0.379 N 
ATOM     11  C   UNL     1      -3.027  -3.539   5.681  0.00  0.00    -0.082 C 
ATOM     12  C   UNL     1      -3.645  -3.303   4.300  0.00  0.00    -0.010 C 
ATOM     13  H   UNL     1      -3.492  -5.524   5.670  0.00  0.00    -0.086 HD
ATOM     14  H   UNL     1      -2.323  -5.122   6.756  0.00  0.00    -0.086 HD
ENDROOT
BRANCH   1  20
ATOM     15  C   UNL     1       0.679   0.508  -2.638  0.00  0.00    +0.047 C 
ATOM     16  C   UNL     1       0.585  -0.880  -2.059  0.00  0.00    -0.014 A 
ATOM     17  C   UNL     1       0.653  -1.981  -2.894  0.00  0.00    +0.009 A 
ATOM     18  C   UNL     1       0.568  -3.259  -2.373  0.00  0.00    +0.039 A 
ATOM     19  C   UNL     1       0.413  -3.447  -1.013  0.00  0.00    +0.138 A 
ATOM     20  C   UNL     1       0.343  -2.339  -0.162  0.00  0.00    +0.107 A 
ATOM     21  C   UNL     1       0.436  -1.049  -0.696  0.00  0.00    +0.141 A 
ATOM     22  F   UNL     1       0.375   0.027   0.118  0.00  0.00    -0.204 F 
ATOM     23  F   UNL     1       0.329  -4.697  -0.506  0.00  0.00    -0.205 F 
ENDBRANCH   1  20
BRANCH   5  24
ATOM     24  C   UNL     1      -3.241  -4.840   1.075  0.00  0.00    +0.219 C 
ATOM     25  O   UNL     1      -2.277  -5.138   0.401  0.00  0.00    -0.275 OA
ATOM     26  N   UNL     1      -4.294  -5.678   1.152  0.00  0.00    -0.303 N 
ATOM     27  H   UNL     1      -5.073  -5.431   1.674  0.00  0.00    +0.149 HD
BRANCH  26  28
ATOM     28  C   UNL     1      -4.262  -6.962   0.446  0.00  0.00    +0.161 C 
BRANCH  28  29
ATOM     29  C   UNL     1      -5.652  -7.315  -0.018  0.00  0.00    +0.234 C 
ATOM     30  O   UNL     1      -6.615  -6.787   0.497  0.00  0.00    -0.274 OA
ATOM     31  N   UNL     1      -5.824  -8.217  -1.004  0.00  0.00    -0.309 N 
ATOM     32  H   UNL     1      -5.059  -8.693  -1.365  0.00  0.00    +0.149 HD
BRANCH  31  33
ATOM     33  C   UNL     1      -7.166  -8.480  -1.530  0.00  0.00    +0.026 C 
ATOM     34  C   UNL     1      -7.750  -7.188  -2.104  0.00  0.00    +0.031 C 
ATOM     35  C   UNL     1      -7.083  -9.537  -2.633  0.00  0.00    +0.031 C 
ATOM     36  C   UNL     1      -8.065  -8.989  -0.402  0.00  0.00    +0.031 C 
ENDBRANCH  31  33
ENDBRANCH  28  29
BRANCH  28  37
ATOM     37  C   UNL     1      -3.747  -8.050   1.390  0.00  0.00    +0.012 C 
ATOM     38  C   UNL     1      -2.275  -7.789   1.715  0.00  0.00    +0.009 C 
ATOM     39  C   UNL     1      -4.566  -8.033   2.683  0.00  0.00    +0.009 C 
ENDBRANCH  28  37
ENDBRANCH  26  28
ENDBRANCH   5  24
TORSDOF 6
