REMARK  Name = ZINC08852656
REMARK  9 active torsions:
REMARK  status: ('A' for Active; 'I' for Inactive)
REMARK    1  A    between atoms: C_1  and  C_2
REMARK    2  A    between atoms: N_4  and  C_5
REMARK    3  A    between atoms: C_8  and  N_11
REMARK    4  A    between atoms: C_12  and  C_14
REMARK    5  A    between atoms: C_14  and  C_15
REMARK    6  A    between atoms: C_18  and  S_20
REMARK    7  A    between atoms: S_20  and  C_21
REMARK    8  A    between atoms: C_21  and  C_22
REMARK    9  A    between atoms: N_24  and  C_25
REMARK                            x       y       z     vdW  Elec       q    Type
REMARK                         _______ _______ _______ _____ _____    ______ ____
ROOT
ATOM      1  C   UNL     1      -5.920   8.417   1.207  0.00  0.00    +0.058 A 
ATOM      2  C   UNL     1      -6.558   9.357   0.471  0.00  0.00    +0.071 A 
ATOM      3  S   UNL     1      -5.870  10.851   1.169  0.00  0.00    -0.069 S 
ATOM      4  C   UNL     1      -4.830  10.097   2.337  0.00  0.00    +0.135 A 
ATOM      5  N   UNL     1      -5.068   8.814   2.134  0.00  0.00    -0.237 NA
ENDROOT
BRANCH   1   6
ATOM      6  C   UNL     1      -6.180   6.950   0.978  0.00  0.00    +0.152 C 
BRANCH   6   8
ATOM      7  N   UNL     1      -4.865   4.918   0.472  0.00  0.00    -0.285 N 
ATOM      8  C   UNL     1      -4.877   6.245   0.707  0.00  0.00    +0.223 C 
ATOM      9  O   UNL     1      -3.838   6.871   0.700  0.00  0.00    -0.275 OA
ATOM     10  H   UNL     1      -5.685   4.405   0.543  0.00  0.00    +0.155 HD
BRANCH   7  14
ATOM     11  C   UNL     1      -1.302   3.015  -0.563  0.00  0.00    +0.033 A 
ATOM     12  C   UNL     1      -1.288   4.071   0.339  0.00  0.00    +0.025 A 
ATOM     13  C   UNL     1      -2.467   4.705   0.677  0.00  0.00    +0.025 A 
ATOM     14  C   UNL     1      -3.668   4.279   0.124  0.00  0.00    +0.034 A 
ATOM     15  C   UNL     1      -3.682   3.220  -0.774  0.00  0.00    +0.025 A 
ATOM     16  C   UNL     1      -2.502   2.590  -1.117  0.00  0.00    +0.025 A 
BRANCH  11  20
ATOM     17  C   UNL     1       1.394   1.308  -2.563  0.00  0.00    +0.109 C 
ATOM     18  C   UNL     1       0.071   1.907  -2.162  0.00  0.00    +0.214 C 
ATOM     19  O   UNL     1      -0.836   1.969  -2.965  0.00  0.00    -0.276 OA
ATOM     20  N   UNL     1      -0.105   2.375  -0.910  0.00  0.00    -0.286 N 
ATOM     21  H   UNL     1       0.596   2.266  -0.248  0.00  0.00    +0.155 HD
ENDBRANCH  11  20
ENDBRANCH   7  14
ENDBRANCH   6   8
ENDBRANCH   1   6
BRANCH   4  22
ATOM     22  S   UNL     1      -3.744  10.850   3.502  0.00  0.00    -0.089 S 
BRANCH  22  23
ATOM     23  C   UNL     1      -4.032  12.595   3.118  0.00  0.00    +0.172 C 
BRANCH  23  24
ATOM     24  C   UNL     1      -3.183  13.454   4.019  0.00  0.00    +0.227 C 
ATOM     25  O   UNL     1      -2.453  12.938   4.839  0.00  0.00    -0.275 OA
ATOM     26  N   UNL     1      -3.233  14.797   3.912  0.00  0.00    -0.285 N 
ATOM     27  H   UNL     1      -3.872  15.213   3.312  0.00  0.00    +0.155 HD
BRANCH  26  28
ATOM     28  C   UNL     1      -2.364  15.592   4.668  0.00  0.00    +0.033 A 
ATOM     29  C   UNL     1      -2.788  16.824   5.148  0.00  0.00    +0.025 A 
ATOM     30  C   UNL     1      -1.929  17.605   5.897  0.00  0.00    +0.022 A 
ATOM     31  C   UNL     1      -0.645  17.164   6.162  0.00  0.00    +0.041 A 
ATOM     32  C   UNL     1      -0.218  15.939   5.681  0.00  0.00    +0.022 A 
ATOM     33  C   UNL     1      -1.074  15.152   4.935  0.00  0.00    +0.025 A 
ATOM     34 CL   UNL     1       0.434  18.150   7.099  0.00  0.00    -0.084 Cl
ENDBRANCH  26  28
ENDBRANCH  23  24
ENDBRANCH  22  23
ENDBRANCH   4  22
TORSDOF 8
