REMARK  Name = ZINC43668554
REMARK  5 active torsions:
REMARK  status: ('A' for Active; 'I' for Inactive)
REMARK    1  A    between atoms: C_1  and  C_2
REMARK    2  A    between atoms: C_4  and  N_18
REMARK    3  A    between atoms: N_5  and  C_7
REMARK    4  A    between atoms: C_7  and  C_9
REMARK    5  A    between atoms: C_7  and  C_10
REMARK                            x       y       z     vdW  Elec       q    Type
REMARK                         _______ _______ _______ _____ _____    ______ ____
ROOT
ATOM      1  C   UNL     1      -0.018   1.503   0.010  0.00  0.00    +0.069 C 
ATOM      2  C   UNL     1       0.002  -0.004   0.002  0.00  0.00    +0.076 A 
ATOM      3  C   UNL     1       0.008  -0.815  -1.136  0.00  0.00    +0.080 A 
ATOM      4  C   UNL     1       0.027  -2.113  -0.724  0.00  0.00    +0.129 A 
ATOM      5  N   UNL     1       0.034  -2.109   0.634  0.00  0.00    -0.243 N 
ATOM      6  N   UNL     1       0.023  -0.775   1.059  0.00  0.00    -0.173 NA
ATOM      7 BR   UNL     1      -0.009  -0.216  -2.930  0.00  0.00    -0.045 Br
ENDROOT
BRANCH   4   8
ATOM      8  N   UNL     1       0.039  -3.238  -1.545  0.00  0.00    -0.342 N 
ATOM      9  H   UNL     1       0.033  -3.135  -2.510  0.00  0.00    +0.144 HD
ATOM     10  H   UNL     1       0.052  -4.125  -1.152  0.00  0.00    +0.144 HD
ENDBRANCH   4   8
BRANCH   5  11
ATOM     11  C   UNL     1       0.053  -3.291   1.500  0.00  0.00    +0.136 C 
ATOM     12  C   UNL     1      -1.192  -3.293   2.389  0.00  0.00    +0.038 C 
BRANCH  11  13
ATOM     13  C   UNL     1       1.288  -3.259   2.365  0.00  0.00    -0.022 A 
ATOM     14  C   UNL     1       1.493  -2.207   3.238  0.00  0.00    +0.007 A 
ATOM     15  C   UNL     1       2.624  -2.176   4.031  0.00  0.00    +0.022 A 
ATOM     16  C   UNL     1       3.552  -3.199   3.951  0.00  0.00    +0.059 A 
ATOM     17  C   UNL     1       3.347  -4.253   3.077  0.00  0.00    +0.060 A 
ATOM     18  C   UNL     1       2.211  -4.285   2.288  0.00  0.00    +0.027 A 
ATOM     19 CL   UNL     1       4.510  -5.537   2.976  0.00  0.00    -0.082 Cl
ATOM     20 CL   UNL     1       4.974  -3.161   4.947  0.00  0.00    -0.082 Cl
ENDBRANCH  11  13
ENDBRANCH   5  11
TORSDOF 3
