REMARK  Name = ZINC32810105
REMARK  7 active torsions:
REMARK  status: ('A' for Active; 'I' for Inactive)
REMARK    1  A    between atoms: C_1  and  C_2
REMARK    2  A    between atoms: N_13  and  C_22
REMARK    3  A    between atoms: C_14  and  C_16
REMARK    4  A    between atoms: C_16  and  N_17
REMARK    5  A    between atoms: C_22  and  C_23
REMARK    6  A    between atoms: C_23  and  C_25
REMARK    7  A    between atoms: C_23  and  O_32
REMARK                            x       y       z     vdW  Elec       q    Type
REMARK                         _______ _______ _______ _____ _____    ______ ____
ROOT
ATOM      1  C   UNL     1       0.162   7.779   0.127  0.00  0.00    +0.008 C 
ATOM      2  C   UNL     1       0.487   6.311   0.405  0.00  0.00    -0.009 C 
ATOM      3  C   UNL     1       1.685   5.880  -0.445  0.00  0.00    +0.008 C 
ATOM      4  C   UNL     1       2.173   4.502   0.005  0.00  0.00    +0.037 C 
ATOM      5  C   UNL     1       0.990   3.538   0.011  0.00  0.00    -0.023 A 
ATOM      6  C   UNL     1      -0.277   4.003   0.025  0.00  0.00    -0.004 A 
ATOM      7  S   UNL     1      -1.298   2.553   0.021  0.00  0.00    -0.073 S 
ATOM      8  C   UNL     1      -0.016   1.326   0.009  0.00  0.00    +0.116 A 
ATOM      9  C   UNL     1       1.164   2.087   0.002  0.00  0.00    +0.076 A 
ATOM     10  C   UNL     1       2.385   1.337  -0.014  0.00  0.00    +0.263 A 
ATOM     11  O   UNL     1       3.463   1.907  -0.020  0.00  0.00    -0.267 OA
ATOM     12  N   UNL     1       2.323  -0.008  -0.021  0.00  0.00    -0.295 N 
ATOM     13  C   UNL     1       1.132  -0.660  -0.013  0.00  0.00    +0.097 A 
ATOM     14  N   UNL     1       0.002  -0.004   0.002  0.00  0.00    -0.228 NA
ATOM     15  C   UNL     1      -0.719   5.434   0.037  0.00  0.00    +0.046 C 
ENDROOT
BRANCH  13  16
ATOM     16  C   UNL     1       1.113  -2.167  -0.020  0.00  0.00    -0.003 C 
BRANCH  16  17
ATOM     17  N   UNL     1      -0.279  -2.639  -0.009  0.00  0.00    +0.384 N 
ATOM     18  C   UNL     1      -1.064  -2.007  -1.099  0.00  0.00    -0.078 C 
ATOM     19  C   UNL     1      -2.269  -2.966  -1.270  0.00  0.00    -0.020 C 
ATOM     20  C   UNL     1      -1.635  -4.359  -1.056  0.00  0.00    -0.020 C 
ATOM     21  C   UNL     1      -0.346  -4.096  -0.256  0.00  0.00    -0.078 C 
ATOM     22  H   UNL     1      -0.674  -2.380   0.984  0.00  0.00    -0.081 HD
ENDBRANCH  16  17
ENDBRANCH  13  16
BRANCH  12  23
ATOM     23  C   UNL     1       3.565  -0.784  -0.038  0.00  0.00    +0.162 C 
BRANCH  23  24
ATOM     24  C   UNL     1       3.983  -1.046  -1.486  0.00  0.00    +0.167 C 
BRANCH  24  25
ATOM     25  C   UNL     1       5.191  -1.946  -1.506  0.00  0.00    +0.018 A 
ATOM     26  C   UNL     1       6.459  -1.401  -1.586  0.00  0.00    +0.009 A 
ATOM     27  C   UNL     1       7.567  -2.227  -1.603  0.00  0.00    +0.001 A 
ATOM     28  C   UNL     1       7.409  -3.599  -1.540  0.00  0.00    +0.003 A 
ATOM     29  C   UNL     1       6.143  -4.146  -1.460  0.00  0.00    +0.039 A 
ATOM     30  C   UNL     1       5.032  -3.320  -1.438  0.00  0.00    +0.129 A 
ATOM     31  F   UNL     1       3.794  -3.854  -1.354  0.00  0.00    -0.205 F 
ENDBRANCH  24  25
BRANCH  24  32
ATOM     32  O   UNL     1       4.303   0.194  -2.121  0.00  0.00    -0.385 OA
ATOM     33  H   UNL     1       4.627   0.206  -3.172  0.00  0.00    +0.210 HD
ENDBRANCH  24  32
ENDBRANCH  23  24
ENDBRANCH  12  23
TORSDOF 6
