REMARK  Name = ZINC12807981
REMARK  4 active torsions:
REMARK  status: ('A' for Active; 'I' for Inactive)
REMARK    1  A    between atoms: C_1  and  C_2
REMARK    2  A    between atoms: C_13  and  C_15
REMARK    3  A    between atoms: C_15  and  C_16
REMARK    4  A    between atoms: C_21  and  C_24
REMARK                            x       y       z     vdW  Elec       q    Type
REMARK                         _______ _______ _______ _____ _____    ______ ____
ROOT
ATOM      1  C   UNL     1      -0.014   1.209   0.009  0.00  0.00    +0.221 C 
ATOM      2  O   UNL     1       0.002  -0.004   0.002  0.00  0.00    -0.275 OA
ATOM      3  N   UNL     1       1.143   1.898   0.001  0.00  0.00    -0.265 N 
ATOM      4  C   UNL     1       2.356   1.220  -0.014  0.00  0.00    +0.165 A 
ATOM      5  N   UNL     1       3.584   1.704  -0.023  0.00  0.00    -0.225 NA
ATOM      6  C   UNL     1       4.639   0.904  -0.037  0.00  0.00    +0.080 A 
ATOM      7  C   UNL     1       4.453  -0.451  -0.042  0.00  0.00    +0.076 A 
ATOM      8  S   UNL     1       2.667  -0.540  -0.018  0.00  0.00    -0.060 S 
ATOM      9  H   UNL     1       1.130   2.868   0.007  0.00  0.00    +0.157 HD
ENDROOT
BRANCH   6  10
ATOM     10  C   UNL     1       6.009   1.471  -0.048  0.00  0.00    +0.001 A 
ATOM     11  C   UNL     1       7.117   0.625  -0.057  0.00  0.00    +0.010 A 
ATOM     12  C   UNL     1       8.389   1.159  -0.071  0.00  0.00    +0.001 A 
ATOM     13  C   UNL     1       8.567   2.531  -0.066  0.00  0.00    +0.000 A 
ATOM     14  C   UNL     1       7.472   3.375  -0.052  0.00  0.00    +0.001 A 
ATOM     15  C   UNL     1       6.194   2.853  -0.042  0.00  0.00    +0.010 A 
ENDBRANCH   6  10
BRANCH   1  16
ATOM     16  C   UNL     1      -1.330   1.944   0.019  0.00  0.00    +0.123 C 
BRANCH  16  29
ATOM     17  C   UNL     1      -1.996  -1.854  -2.564  0.00  0.00    +0.109 C 
ATOM     18  C   UNL     1      -2.003  -1.083  -1.269  0.00  0.00    +0.217 C 
ATOM     19  O   UNL     1      -1.589  -1.599  -0.253  0.00  0.00    -0.276 OA
ATOM     20  N   UNL     1      -2.471   0.181  -1.240  0.00  0.00    -0.270 N 
ATOM     21  C   UNL     1      -2.949   0.778  -2.403  0.00  0.00    +0.079 C 
ATOM     22  C   UNL     1      -3.936   1.679  -2.328  0.00  0.00    +0.023 C 
ATOM     23  C   UNL     1      -4.480   2.044  -1.007  0.00  0.00    -0.019 A 
ATOM     24  C   UNL     1      -5.683   2.742  -0.899  0.00  0.00    +0.008 A 
ATOM     25  C   UNL     1      -6.192   3.037   0.349  0.00  0.00    +0.001 A 
ATOM     26  C   UNL     1      -5.513   2.644   1.489  0.00  0.00    +0.000 A 
ATOM     27  C   UNL     1      -4.314   1.960   1.389  0.00  0.00    +0.006 A 
ATOM     28  C   UNL     1      -3.792   1.664   0.148  0.00  0.00    -0.019 A 
ATOM     29  C   UNL     1      -2.479   0.934   0.019  0.00  0.00    +0.120 C 
ENDBRANCH  16  29
ENDBRANCH   1  16
TORSDOF 3
