REMARK  Name = ZINC67286506
REMARK  5 active torsions:
REMARK  status: ('A' for Active; 'I' for Inactive)
REMARK    1  A    between atoms: N_4  and  C_6
REMARK    2  A    between atoms: C_9  and  N_13
REMARK    3  A    between atoms: N_16  and  C_17
REMARK    4  A    between atoms: N_20  and  C_23
REMARK    5  A    between atoms: C_23  and  C_24
REMARK                            x       y       z     vdW  Elec       q    Type
REMARK                         _______ _______ _______ _____ _____    ______ ____
ROOT
ATOM      1  N   UNL     1       2.499  -7.067  -0.041  0.00  0.00    -0.269 N 
ATOM      2  C   UNL     1       3.844  -7.074  -0.118  0.00  0.00    +0.304 C 
ATOM      3  O   UNL     1       4.465  -6.034  -0.015  0.00  0.00    -0.253 OA
ATOM      4  N   UNL     1       4.502  -8.235  -0.308  0.00  0.00    -0.296 N 
ATOM      5  H   UNL     1       2.008  -7.904  -0.045  0.00  0.00    +0.156 HD
ATOM      6  H   UNL     1       4.007  -9.066  -0.390  0.00  0.00    +0.151 HD
ENDROOT
BRANCH   1  10
ATOM      7  C   UNL     1       0.444  -3.447   0.215  0.00  0.00    +0.084 A 
ATOM      8  C   UNL     1      -0.049  -4.573   0.860  0.00  0.00    +0.031 A 
ATOM      9  C   UNL     1       0.630  -5.772   0.775  0.00  0.00    +0.025 A 
ATOM     10  C   UNL     1       1.809  -5.852   0.044  0.00  0.00    +0.036 A 
ATOM     11  C   UNL     1       2.303  -4.726  -0.602  0.00  0.00    +0.045 A 
ATOM     12  C   UNL     1       1.620  -3.528  -0.521  0.00  0.00    +0.068 A 
ATOM     13 CL   UNL     1       2.234  -2.122  -1.334  0.00  0.00    -0.081 Cl
BRANCH   7  17
ATOM     14  C   UNL     1      -1.734  -0.713   0.814  0.00  0.00    +0.041 A 
ATOM     15  C   UNL     1      -0.760  -0.115   0.008  0.00  0.00    +0.135 A 
ATOM     16  N   UNL     1       0.131  -1.022  -0.300  0.00  0.00    -0.175 NA
ATOM     17  N   UNL     1      -0.247  -2.229   0.302  0.00  0.00    -0.238 N 
ATOM     18  C   UNL     1      -1.396  -2.013   0.981  0.00  0.00    +0.114 A 
ENDBRANCH   7  17
ENDBRANCH   1  10
BRANCH   4  19
ATOM     19  C   UNL     1       5.965  -8.243  -0.392  0.00  0.00    +0.071 C 
ATOM     20  C   UNL     1       6.397  -7.943  -1.829  0.00  0.00    +0.004 C 
ATOM     21  C   UNL     1       7.922  -8.031  -1.927  0.00  0.00    -0.077 C 
ATOM     22  N   UNL     1       8.362  -9.381  -1.553  0.00  0.00    +0.383 N 
ATOM     23  C   UNL     1       8.014  -9.649  -0.153  0.00  0.00    -0.077 C 
ATOM     24  C   UNL     1       6.493  -9.623   0.013  0.00  0.00    +0.004 C 
ATOM     25  H   UNL     1       7.908 -10.058  -2.147  0.00  0.00    -0.082 HD
BRANCH  22  26
ATOM     26  C   UNL     1       9.818  -9.484  -1.723  0.00  0.00    -0.006 C 
BRANCH  26  27
ATOM     27  C   UNL     1      10.165  -9.395  -3.210  0.00  0.00    +0.325 C 
ATOM     28  F   UNL     1       9.424 -10.346  -3.920  0.00  0.00    -0.211 F 
ATOM     29  F   UNL     1       9.859  -8.116  -3.686  0.00  0.00    -0.211 F 
ENDBRANCH  26  27
ENDBRANCH  22  26
ENDBRANCH   4  19
TORSDOF 5
