REMARK  Name = ZINC09952510
REMARK  6 active torsions:
REMARK  status: ('A' for Active; 'I' for Inactive)
REMARK    1  A    between atoms: C_6  and  C_7
REMARK    2  A    between atoms: C_12  and  S_16
REMARK    3  A    between atoms: S_16  and  C_17
REMARK    4  A    between atoms: C_17  and  C_18
REMARK    5  A    between atoms: N_20  and  C_21
REMARK    6  A    between atoms: C_22  and  C_26
REMARK                            x       y       z     vdW  Elec       q    Type
REMARK                         _______ _______ _______ _____ _____    ______ ____
ROOT
ATOM      1  C   UNL     1      -7.819   0.272   0.040  0.00  0.00    +0.022 A 
ATOM      2  C   UNL     1      -7.728   1.629   0.047  0.00  0.00    +0.044 A 
ATOM      3  C   UNL     1      -6.468   2.245   0.045  0.00  0.00    +0.083 A 
ATOM      4  C   UNL     1      -5.362   1.367   0.035  0.00  0.00    +0.070 A 
ATOM      5  S   UNL     1      -6.109  -0.240   0.029  0.00  0.00    -0.084 S 
ATOM      6  C   UNL     1      -4.064   1.851   0.031  0.00  0.00    +0.115 A 
ATOM      7  N   UNL     1      -3.882   3.173   0.043  0.00  0.00    -0.228 NA
ATOM      8  C   UNL     1      -4.925   3.984   0.047  0.00  0.00    +0.223 A 
ATOM      9  N   UNL     1      -6.165   3.569   0.051  0.00  0.00    -0.235 NA
ENDROOT
BRANCH   1  15
ATOM     10  C   UNL     1     -10.297   0.023   0.057  0.00  0.00    +0.012 A 
ATOM     11  C   UNL     1     -11.428  -0.767   0.053  0.00  0.00    +0.039 A 
ATOM     12  C   UNL     1     -11.310  -2.148   0.045  0.00  0.00    +0.123 A 
ATOM     13  C   UNL     1     -10.059  -2.742   0.035  0.00  0.00    +0.039 A 
ATOM     14  C   UNL     1      -8.922  -1.961   0.033  0.00  0.00    +0.012 A 
ATOM     15  C   UNL     1      -9.034  -0.570   0.041  0.00  0.00    -0.011 A 
ATOM     16  F   UNL     1     -12.421  -2.918   0.046  0.00  0.00    -0.205 F 
ENDBRANCH   1  15
BRANCH   6  17
ATOM     17  S   UNL     1      -2.689   0.750   0.019  0.00  0.00    -0.095 S 
BRANCH  17  18
ATOM     18  C   UNL     1      -1.330   1.944   0.019  0.00  0.00    +0.172 C 
BRANCH  18  19
ATOM     19  C   UNL     1      -0.014   1.209   0.009  0.00  0.00    +0.228 C 
ATOM     20  O   UNL     1       0.002  -0.004   0.002  0.00  0.00    -0.275 OA
ATOM     21  N   UNL     1       1.143   1.898   0.001  0.00  0.00    -0.279 N 
ATOM     22  H   UNL     1       1.130   2.868   0.007  0.00  0.00    +0.155 HD
BRANCH  21  23
ATOM     23  C   UNL     1       2.354   1.221  -0.014  0.00  0.00    +0.084 A 
ATOM     24  C   UNL     1       3.639   1.750  -0.029  0.00  0.00    +0.065 A 
ATOM     25  C   UNL     1       4.730   0.805  -0.039  0.00  0.00    +0.022 A 
ATOM     26  C   UNL     1       4.410  -0.501  -0.044  0.00  0.00    +0.048 A 
ATOM     27  S   UNL     1       2.630  -0.488  -0.026  0.00  0.00    -0.081 S 
BRANCH  24  28
ATOM     28  C   UNL     1       3.875   3.198  -0.031  0.00  0.00    +0.244 C 
ATOM     29  O   UNL     1       2.932   3.968  -0.019  0.00  0.00    -0.270 OA
ATOM     30  N   UNL     1       5.135   3.675  -0.045  0.00  0.00    -0.325 N 
ATOM     31  H   UNL     1       5.886   3.061  -0.055  0.00  0.00    +0.145 HD
ATOM     32  H   UNL     1       5.291   4.632  -0.047  0.00  0.00    +0.145 HD
ENDBRANCH  24  28
ENDBRANCH  21  23
ENDBRANCH  18  19
ENDBRANCH  17  18
ENDBRANCH   6  17
TORSDOF 6
