REMARK  Name = ZINC46552434
REMARK  7 active torsions:
REMARK  status: ('A' for Active; 'I' for Inactive)
REMARK    1  A    between atoms: C_1  and  C_2
REMARK    2  A    between atoms: C_2  and  C_4
REMARK    3  A    between atoms: C_2  and  N_15
REMARK    4  A    between atoms: N_6  and  C_7
REMARK    5  A    between atoms: C_8  and  C_12
REMARK    6  A    between atoms: N_18  and  S_21
REMARK    7  A    between atoms: S_21  and  C_24
REMARK                            x       y       z     vdW  Elec       q    Type
REMARK                         _______ _______ _______ _____ _____    ______ ____
ROOT
ATOM      1  N   UNL     1       0.877  -0.571   1.037  0.00  0.00    -0.289 NA
ATOM      2  C   UNL     1       1.052  -2.017   0.845  0.00  0.00    +0.102 C 
ATOM      3  C   UNL     1       2.108  -2.535   1.827  0.00  0.00    +0.125 C 
ATOM      4  N   UNL     1       1.720  -2.131   3.187  0.00  0.00    -0.174 NA
ATOM      5  C   UNL     1       1.395  -0.716   3.426  0.00  0.00    +0.125 C 
ATOM      6  C   UNL     1       0.367  -0.269   2.381  0.00  0.00    +0.102 C 
ENDROOT
BRANCH   4   7
ATOM      7  S   UNL     1       1.651  -3.238   4.416  0.00  0.00    +0.062 S 
ATOM      8  O   UNL     1       0.754  -2.714   5.385  0.00  0.00    -0.153 OA
ATOM      9  O   UNL     1       1.458  -4.508   3.808  0.00  0.00    -0.153 OA
BRANCH   7  10
ATOM     10  C   UNL     1       3.242  -3.278   5.171  0.00  0.00    +0.125 A 
ATOM     11  C   UNL     1       3.395  -2.868   6.482  0.00  0.00    +0.050 A 
ATOM     12  C   UNL     1       4.645  -2.899   7.075  0.00  0.00    +0.043 A 
ATOM     13  C   UNL     1       5.741  -3.341   6.356  0.00  0.00    +0.021 A 
ATOM     14  C   UNL     1       5.588  -3.751   5.045  0.00  0.00    +0.023 A 
ATOM     15  C   UNL     1       4.337  -3.725   4.454  0.00  0.00    +0.067 A 
ATOM     16 CL   UNL     1       4.143  -4.247   2.809  0.00  0.00    -0.082 Cl
ATOM     17 CL   UNL     1       4.838  -2.384   8.721  0.00  0.00    -0.083 Cl
ENDBRANCH   7  10
ENDBRANCH   4   7
BRANCH   1  19
ATOM     18  C   UNL     1      -1.454  -0.354   0.318  0.00  0.00    +0.034 C 
ATOM     19  C   UNL     1       0.002  -0.004   0.002  0.00  0.00    +0.140 C 
BRANCH  19  20
ATOM     20  C   UNL     1       0.163   1.494  -0.027  0.00  0.00    +0.235 C 
ATOM     21  O   UNL     1       0.713   2.063   0.892  0.00  0.00    -0.274 OA
ATOM     22  N   UNL     1      -0.303   2.202  -1.075  0.00  0.00    -0.278 N 
ATOM     23  H   UNL     1      -0.743   1.747  -1.810  0.00  0.00    +0.155 HD
BRANCH  22  24
ATOM     24  C   UNL     1      -0.155   3.580  -1.102  0.00  0.00    +0.084 A 
ATOM     25  C   UNL     1      -0.574   4.464  -2.086  0.00  0.00    +0.065 A 
ATOM     26  C   UNL     1      -0.289   5.863  -1.861  0.00  0.00    +0.022 A 
ATOM     27  C   UNL     1       0.354   6.154  -0.715  0.00  0.00    +0.048 A 
ATOM     28  S   UNL     1       0.565   4.563   0.052  0.00  0.00    -0.081 S 
BRANCH  25  29
ATOM     29  C   UNL     1      -1.268   4.002  -3.292  0.00  0.00    +0.244 C 
ATOM     30  O   UNL     1      -1.491   2.816  -3.449  0.00  0.00    -0.270 OA
ATOM     31  N   UNL     1      -1.660   4.892  -4.226  0.00  0.00    -0.325 N 
ATOM     32  H   UNL     1      -1.482   5.837  -4.100  0.00  0.00    +0.145 HD
ATOM     33  H   UNL     1      -2.119   4.586  -5.023  0.00  0.00    +0.145 HD
ENDBRANCH  25  29
ENDBRANCH  22  24
ENDBRANCH  19  20
ENDBRANCH   1  19
TORSDOF 6
