REMARK  Name = ZINC05182519
REMARK  3 active torsions:
REMARK  status: ('A' for Active; 'I' for Inactive)
REMARK    1  A    between atoms: C_1  and  C_2
REMARK    2  A    between atoms: C_5  and  C_30
REMARK    3  A    between atoms: C_17  and  C_19
REMARK                            x       y       z     vdW  Elec       q    Type
REMARK                         _______ _______ _______ _____ _____    ______ ____
ROOT
ATOM      1  C   UNL     1      11.957  -1.477  -5.555  0.00  0.00    +0.046 C 
ATOM      2  C   UNL     1      12.306  -0.014  -5.639  0.00  0.00    -0.024 A 
ATOM      3  C   UNL     1      13.185   0.420  -6.597  0.00  0.00    +0.006 A 
ATOM      4  C   UNL     1      13.532   1.758  -6.709  0.00  0.00    +0.005 A 
ATOM      5  C   UNL     1      12.980   2.677  -5.834  0.00  0.00    -0.035 A 
ATOM      6  C   UNL     1      12.100   2.251  -4.872  0.00  0.00    +0.044 A 
ATOM      7  C   UNL     1      11.723   0.897  -4.728  0.00  0.00    +0.083 A 
ATOM      8  N   UNL     1      10.846   0.635  -3.733  0.00  0.00    -0.224 NA
ATOM      9  C   UNL     1      10.372   1.575  -2.947  0.00  0.00    +0.162 A 
ATOM     10  S   UNL     1      11.169   3.043  -3.582  0.00  0.00    -0.052 S 
ATOM     11  N   UNL     1       9.480   1.458  -1.900  0.00  0.00    -0.307 N 
ATOM     12  C   UNL     1       9.218   2.765  -1.284  0.00  0.00    +0.126 C 
ATOM     13  C   UNL     1       8.372   2.571  -0.021  0.00  0.00    +0.127 C 
ATOM     14  N   UNL     1       7.171   1.799  -0.378  0.00  0.00    -0.295 N 
ATOM     15  C   UNL     1       7.348   0.538  -1.114  0.00  0.00    +0.127 C 
ATOM     16  C   UNL     1       8.234   0.816  -2.339  0.00  0.00    +0.126 C 
ATOM     17  C   UNL     1       5.943   2.232  -0.033  0.00  0.00    +0.260 C 
ATOM     18  O   UNL     1       5.816   3.272   0.579  0.00  0.00    -0.271 OA
ATOM     19  C   UNL     1      13.345   4.136  -5.937  0.00  0.00    +0.045 C 
ENDROOT
BRANCH  17  20
ATOM     20  C   UNL     1       4.726   1.426  -0.408  0.00  0.00    +0.296 C 
ATOM     21  C   UNL     1       4.752   0.078   0.325  0.00  0.00    +0.283 C 
ATOM     22  O   UNL     1       3.579  -0.656  -0.043  0.00  0.00    -0.484 OA
ATOM     23  C   UNL     1       2.401   0.025  -0.022  0.00  0.00    +0.162 A 
ATOM     24  C   UNL     1       1.207  -0.681  -0.015  0.00  0.00    +0.049 A 
ATOM     25  C   UNL     1       0.002  -0.004   0.002  0.00  0.00    +0.004 A 
ATOM     26  C   UNL     1      -0.017   1.378   0.010  0.00  0.00    +0.004 A 
ATOM     27  C   UNL     1       1.169   2.088   0.002  0.00  0.00    +0.049 A 
ATOM     28  C   UNL     1       2.382   1.415  -0.012  0.00  0.00    +0.163 A 
ATOM     29  O   UNL     1       3.542   2.127  -0.015  0.00  0.00    -0.473 OA
ENDBRANCH  17  20
TORSDOF 1
