REMARK  Name = ZINC40728735
REMARK  8 active torsions:
REMARK  status: ('A' for Active; 'I' for Inactive)
REMARK    1  A    between atoms: C_1  and  C_2
REMARK    2  A    between atoms: C_3  and  C_22
REMARK    3  A    between atoms: N_5  and  C_8
REMARK    4  A    between atoms: C_6  and  C_7
REMARK    5  A    between atoms: C_8  and  C_10
REMARK    6  A    between atoms: C_8  and  C_11
REMARK    7  A    between atoms: N_13  and  C_14
REMARK    8  A    between atoms: C_16  and  N_21
REMARK                            x       y       z     vdW  Elec       q    Type
REMARK                         _______ _______ _______ _____ _____    ______ ____
ROOT
ATOM      1  C   UNL     1      -1.163  -4.121   1.220  0.00  0.00    +0.242 C 
ATOM      2  O   UNL     1      -1.972  -3.755   0.394  0.00  0.00    -0.273 OA
ATOM      3  N   UNL     1      -1.360  -5.272   1.892  0.00  0.00    -0.281 N 
ATOM      4  H   UNL     1      -0.683  -5.598   2.505  0.00  0.00    +0.155 HD
ENDROOT
BRANCH   3   5
ATOM      5  C   UNL     1      -2.543  -5.998   1.705  0.00  0.00    +0.071 A 
ATOM      6  C   UNL     1      -3.151  -6.027   0.459  0.00  0.00    +0.049 A 
ATOM      7  C   UNL     1      -4.323  -6.748   0.277  0.00  0.00    +0.026 A 
ATOM      8  C   UNL     1      -4.885  -7.439   1.344  0.00  0.00    +0.025 A 
ATOM      9  C   UNL     1      -4.278  -7.409   2.585  0.00  0.00    +0.042 A 
ATOM     10  C   UNL     1      -3.107  -6.696   2.768  0.00  0.00    +0.145 A 
ATOM     11  F   UNL     1      -2.513  -6.673   3.982  0.00  0.00    -0.204 F 
BRANCH   7  12
ATOM     12  N   UNL     1      -4.938  -6.779  -0.978  0.00  0.00    -0.358 N 
ATOM     13  H   UNL     1      -4.545  -6.296  -1.722  0.00  0.00    +0.142 HD
ATOM     14  H   UNL     1      -5.757  -7.283  -1.104  0.00  0.00    +0.142 HD
ENDBRANCH   7  12
ENDBRANCH   3   5
BRANCH   1  15
ATOM     15  C   UNL     1       0.063  -3.289   1.494  0.00  0.00    +0.190 C 
ATOM     16  C   UNL     1       1.317  -4.112   1.193  0.00  0.00    +0.042 C 
BRANCH  15  21
ATOM     17  C   UNL     1       0.009   1.488  -0.021  0.00  0.00    +0.047 C 
ATOM     18  C   UNL     1       0.021  -0.018  -0.024  0.00  0.00    -0.007 A 
ATOM     19  C   UNL     1       0.018  -0.839  -1.156  0.00  0.00    +0.063 A 
ATOM     20  N   UNL     1       0.032  -2.085  -0.758  0.00  0.00    -0.175 NA
ATOM     21  N   UNL     1       0.045  -2.097   0.643  0.00  0.00    -0.256 N 
ATOM     22  C   UNL     1       0.044  -0.817   1.069  0.00  0.00    +0.040 A 
ATOM     23  C   UNL     1       0.060  -0.358   2.504  0.00  0.00    +0.065 C 
ATOM     24  C   UNL     1       0.000  -0.369  -2.588  0.00  0.00    +0.068 C 
ENDBRANCH  15  21
ENDBRANCH   1  15
TORSDOF 4
