REMARK  Name = ZINC34948900
REMARK  8 active torsions:
REMARK  status: ('A' for Active; 'I' for Inactive)
REMARK    1  A    between atoms: C_1  and  C_2
REMARK    2  A    between atoms: C_2  and  C_3
REMARK    3  A    between atoms: C_6  and  N_9
REMARK    4  A    between atoms: N_12  and  C_13
REMARK    5  A    between atoms: C_13  and  C_14
REMARK    6  A    between atoms: C_14  and  N_15
REMARK    7  A    between atoms: N_15  and  C_16
REMARK    8  A    between atoms: N_24  and  C_25
REMARK                            x       y       z     vdW  Elec       q    Type
REMARK                         _______ _______ _______ _____ _____    ______ ____
ROOT
ATOM      1  N   UNL     1       8.065  -3.101  -7.754  0.00  0.00    -0.254 N 
ATOM      2  C   UNL     1       8.859  -2.075  -8.119  0.00  0.00    +0.311 C 
ATOM      3  O   UNL     1       8.468  -1.265  -8.937  0.00  0.00    -0.252 OA
ATOM      4  N   UNL     1      10.086  -1.946  -7.576  0.00  0.00    -0.269 N 
ATOM      5  H   UNL     1      10.437  -2.643  -7.000  0.00  0.00    +0.156 HD
ENDROOT
BRANCH   1   6
ATOM      6  C   UNL     1       8.551  -4.088  -6.889  0.00  0.00    +0.038 A 
ATOM      7  C   UNL     1       8.814  -3.782  -5.561  0.00  0.00    +0.023 A 
ATOM      8  C   UNL     1       9.293  -4.759  -4.710  0.00  0.00    +0.002 A 
ATOM      9  C   UNL     1       9.510  -6.041  -5.180  0.00  0.00    +0.000 A 
ATOM     10  C   UNL     1       9.250  -6.349  -6.502  0.00  0.00    +0.002 A 
ATOM     11  C   UNL     1       8.765  -5.378  -7.357  0.00  0.00    +0.023 A 
ENDBRANCH   1   6
BRANCH   4  12
ATOM     12  C   UNL     1      10.853  -0.807  -7.843  0.00  0.00    +0.035 A 
ATOM     13  C   UNL     1      10.233   0.423  -8.021  0.00  0.00    +0.023 A 
ATOM     14  C   UNL     1      10.993   1.546  -8.284  0.00  0.00    +0.002 A 
ATOM     15  C   UNL     1      12.370   1.446  -8.371  0.00  0.00    +0.000 A 
ATOM     16  C   UNL     1      12.990   0.223  -8.196  0.00  0.00    +0.002 A 
ATOM     17  C   UNL     1      12.236  -0.903  -7.926  0.00  0.00    +0.023 A 
ENDBRANCH   4  12
BRANCH   1  18
ATOM     18  C   UNL     1       6.694  -3.183  -8.262  0.00  0.00    +0.134 C 
BRANCH  18  19
ATOM     19  C   UNL     1       5.751  -2.449  -7.307  0.00  0.00    +0.125 C 
BRANCH  19  23
ATOM     20  N   UNL     1       2.110  -2.026  -7.601  0.00  0.00    -0.269 N 
ATOM     21  C   UNL     1       3.372  -1.951  -7.133  0.00  0.00    +0.304 C 
ATOM     22  O   UNL     1       3.601  -1.360  -6.096  0.00  0.00    -0.253 OA
ATOM     23  N   UNL     1       4.379  -2.530  -7.816  0.00  0.00    -0.298 N 
ATOM     24  H   UNL     1       1.913  -2.568  -8.381  0.00  0.00    +0.156 HD
ATOM     25  H   UNL     1       4.196  -3.002  -8.643  0.00  0.00    +0.150 HD
BRANCH  20  29
ATOM     26  C   UNL     1      -0.946   0.071  -5.699  0.00  0.00    -0.048 A 
ATOM     27  C   UNL     1       0.328   0.605  -5.751  0.00  0.00    +0.005 A 
ATOM     28  C   UNL     1       1.343  -0.088  -6.381  0.00  0.00    +0.023 A 
ATOM     29  C   UNL     1       1.083  -1.322  -6.962  0.00  0.00    +0.035 A 
ATOM     30  C   UNL     1      -0.197  -1.856  -6.907  0.00  0.00    +0.023 A 
ATOM     31  C   UNL     1      -1.207  -1.161  -6.271  0.00  0.00    +0.005 A 
BRANCH  26  33
ATOM     32  C   UNL     1      -2.096   0.437  -3.532  0.00  0.00    +0.009 C 
ATOM     33  C   UNL     1      -2.052   0.830  -5.011  0.00  0.00    +0.032 C 
ENDBRANCH  26  33
ENDBRANCH  20  29
ENDBRANCH  19  23
ENDBRANCH  18  19
ENDBRANCH   1  18
TORSDOF 7
