REMARK  Name = ZINC00705453
REMARK  6 active torsions:
REMARK  status: ('A' for Active; 'I' for Inactive)
REMARK    1  A    between atoms: C_1  and  C_2
REMARK    2  A    between atoms: C_2  and  C_29
REMARK    3  A    between atoms: C_6  and  C_21
REMARK    4  A    between atoms: C_8  and  C_19
REMARK    5  A    between atoms: C_9  and  N_18
REMARK    6  A    between atoms: N_10  and  C_11
REMARK                            x       y       z     vdW  Elec       q    Type
REMARK                         _______ _______ _______ _____ _____    ______ ____
ROOT
ATOM      1  C   UNL     1       1.027   4.486  -1.800  0.00  0.00    +0.011 C 
ATOM      2  C   UNL     1       1.988   3.861  -2.813  0.00  0.00    -0.023 C 
ATOM      3  C   UNL     1       3.412   3.887  -2.255  0.00  0.00    +0.058 C 
ATOM      4  C   UNL     1       3.475   3.073  -0.987  0.00  0.00    +0.025 C 
ATOM      5  C   UNL     1       2.666   2.010  -0.802  0.00  0.00    +0.026 C 
ATOM      6  C   UNL     1       2.732   1.193   0.464  0.00  0.00    +0.104 C 
ATOM      7  C   UNL     1       4.016   1.440   1.200  0.00  0.00    +0.077 C 
ATOM      8  C   UNL     1       4.776   2.534   0.938  0.00  0.00    +0.107 C 
ATOM      9  N   UNL     1       4.379   3.436  -0.024  0.00  0.00    -0.260 N 
ATOM     10  C   UNL     1       1.733   1.629  -1.784  0.00  0.00    +0.162 C 
ATOM     11  O   UNL     1       1.028   0.657  -1.594  0.00  0.00    -0.292 OA
ATOM     12  C   UNL     1       1.592   2.403  -3.066  0.00  0.00    +0.086 C 
ATOM     13  C   UNL     1       1.935   4.648  -4.124  0.00  0.00    +0.011 C 
ENDROOT
BRANCH   9  14
ATOM     14  C   UNL     1       4.904   4.734  -0.017  0.00  0.00    +0.040 A 
ATOM     15  C   UNL     1       6.069   5.017  -0.717  0.00  0.00    +0.025 A 
ATOM     16  C   UNL     1       6.581   6.300  -0.714  0.00  0.00    +0.022 A 
ATOM     17  C   UNL     1       5.940   7.300  -0.005  0.00  0.00    +0.041 A 
ATOM     18  C   UNL     1       4.782   7.020   0.698  0.00  0.00    +0.022 A 
ATOM     19  C   UNL     1       4.262   5.740   0.694  0.00  0.00    +0.025 A 
ATOM     20 CL   UNL     1       6.589   8.910   0.002  0.00  0.00    -0.084 Cl
ENDBRANCH   9  14
BRANCH   6  21
ATOM     21  C   UNL     1       1.573   1.564   1.353  0.00  0.00    +0.002 A 
ATOM     22  C   UNL     1       0.566   0.782   1.812  0.00  0.00    +0.012 A 
ATOM     23  C   UNL     1      -0.404   1.346   2.620  0.00  0.00    +0.008 A 
ATOM     24  C   UNL     1      -0.313   2.660   2.938  0.00  0.00    +0.045 A 
ATOM     25  S   UNL     1       1.171   3.147   2.073  0.00  0.00    -0.101 S 
ENDBRANCH   6  21
BRANCH   8  26
ATOM     26  N   UNL     1       5.944   2.741   1.633  0.00  0.00    -0.345 N 
ATOM     27  H   UNL     1       6.180   2.156   2.369  0.00  0.00    +0.144 HD
ATOM     28  H   UNL     1       6.531   3.473   1.387  0.00  0.00    +0.144 HD
ENDBRANCH   8  26
BRANCH   7  29
ATOM     29  C   UNL     1       4.446   0.506   2.197  0.00  0.00    +0.099 C 
ATOM     30  N   UNL     1       4.788  -0.235   2.987  0.00  0.00    -0.191 NA
ENDBRANCH   7  29
TORSDOF 4
