REMARK  Name = ZINC25555625
REMARK  9 active torsions:
REMARK  status: ('A' for Active; 'I' for Inactive)
REMARK    1  A    between atoms: C_1  and  C_2
REMARK    2  A    between atoms: C_5  and  S_9
REMARK    3  A    between atoms: C_6  and  C_8
REMARK    4  A    between atoms: S_9  and  N_12
REMARK    5  A    between atoms: N_15  and  C_18
REMARK    6  A    between atoms: C_18  and  C_20
REMARK    7  A    between atoms: C_18  and  C_21
REMARK    8  A    between atoms: N_23  and  C_24
REMARK    9  A    between atoms: C_24  and  C_25
REMARK                            x       y       z     vdW  Elec       q    Type
REMARK                         _______ _______ _______ _____ _____    ______ ____
ROOT
ATOM      1  N   UNL     1      -5.380   2.827   1.047  0.00  0.00    -0.180 NA
ATOM      2  C   UNL     1      -5.407   2.012  -0.177  0.00  0.00    +0.091 C 
ATOM      3  C   UNL     1      -4.509   0.788   0.033  0.00  0.00    -0.060 C 
ATOM      4  N   UNL     1      -3.174   1.231   0.456  0.00  0.00    +0.389 N 
ATOM      5  C   UNL     1      -3.227   1.925   1.749  0.00  0.00    -0.060 C 
ATOM      6  C   UNL     1      -4.072   3.196   1.609  0.00  0.00    +0.091 C 
ATOM      7  H   UNL     1      -2.807   1.948  -0.294  0.00  0.00    -0.081 HD
ENDROOT
BRANCH   1   8
ATOM      8  S   UNL     1      -6.786   3.316   1.773  0.00  0.00    +0.061 S 
ATOM      9  O   UNL     1      -6.498   4.543   2.429  0.00  0.00    -0.153 OA
ATOM     10  O   UNL     1      -7.810   3.197   0.796  0.00  0.00    -0.153 OA
BRANCH   8  15
ATOM     11  C   UNL     1      -8.055  -0.696   6.097  0.00  0.00    +0.044 C 
ATOM     12  C   UNL     1      -7.737   0.306   5.017  0.00  0.00    -0.050 A 
ATOM     13  C   UNL     1      -7.397   1.602   5.355  0.00  0.00    +0.005 A 
ATOM     14  C   UNL     1      -7.107   2.522   4.365  0.00  0.00    +0.029 A 
ATOM     15  C   UNL     1      -7.156   2.144   3.036  0.00  0.00    +0.108 A 
ATOM     16  C   UNL     1      -7.501   0.849   2.697  0.00  0.00    -0.024 A 
ATOM     17  C   UNL     1      -7.786  -0.071   3.688  0.00  0.00    +0.008 A 
ATOM     18  C   UNL     1      -7.560   0.440   1.248  0.00  0.00    +0.046 C 
ENDBRANCH   8  15
ENDBRANCH   1   8
BRANCH   4  19
ATOM     19  C   UNL     1      -2.234   0.102   0.502  0.00  0.00    +0.016 C 
ATOM     20  C   UNL     1      -2.675  -0.883   1.586  0.00  0.00    -0.004 C 
BRANCH  19  21
ATOM     21  C   UNL     1      -0.852   0.612   0.818  0.00  0.00    +0.200 C 
ATOM     22  O   UNL     1      -0.667   1.798   0.988  0.00  0.00    -0.278 OA
ATOM     23  N   UNL     1       0.179  -0.251   0.912  0.00  0.00    -0.306 N 
ATOM     24  H   UNL     1       0.011  -1.328   0.762  0.00  0.00    +0.150 HD
BRANCH  23  25
ATOM     25  C   UNL     1       1.524   0.245   1.213  0.00  0.00    +0.193 C 
BRANCH  25  26
ATOM     26  C   UNL     1       2.466  -0.885   1.254  0.00  0.00    -0.087 C 
ATOM     27  C   UNL     1       3.218  -1.787   1.287  0.00  0.00    +0.005 C 
ENDBRANCH  25  26
ENDBRANCH  23  25
ENDBRANCH  19  21
ENDBRANCH   4  19
TORSDOF 6
