REMARK  Name = ZINC35554354
REMARK  4 active torsions:
REMARK  status: ('A' for Active; 'I' for Inactive)
REMARK    1  A    between atoms: C_8  and  C_25
REMARK    2  A    between atoms: N_15  and  C_17
REMARK    3  A    between atoms: C_17  and  C_18
REMARK    4  A    between atoms: N_30  and  C_33
REMARK                            x       y       z     vdW  Elec       q    Type
REMARK                         _______ _______ _______ _____ _____    ______ ____
ROOT
ATOM      1  C   UNL     1      -0.076   1.312   0.050  0.00  0.00    +0.000 A 
ATOM      2  C   UNL     1       1.094   2.050   0.035  0.00  0.00    +0.002 A 
ATOM      3  C   UNL     1       2.315   1.407   0.006  0.00  0.00    +0.023 A 
ATOM      4  C   UNL     1       2.369   0.016  -0.011  0.00  0.00    +0.033 A 
ATOM      5  C   UNL     1       1.196  -0.719   0.001  0.00  0.00    -0.026 A 
ATOM      6  C   UNL     1      -0.025  -0.069   0.034  0.00  0.00    +0.005 A 
ATOM      7  C   UNL     1       1.228  -2.225  -0.028  0.00  0.00    +0.051 C 
ATOM      8  C   UNL     1       2.525  -2.694  -0.687  0.00  0.00    +0.098 C 
ATOM      9  C   UNL     1       3.721  -2.059   0.031  0.00  0.00    +0.069 C 
ATOM     10  N   UNL     1       3.626  -0.609  -0.035  0.00  0.00    -0.329 N 
ATOM     11  C   UNL     1       4.807   0.255  -0.096  0.00  0.00    +0.087 C 
ATOM     12  C   UNL     1       5.935  -0.432  -0.862  0.00  0.00    -0.059 C 
ATOM     13  N   UNL     1       6.157  -1.760  -0.272  0.00  0.00    +0.388 N 
ATOM     14  C   UNL     1       5.005  -2.609  -0.571  0.00  0.00    -0.055 C 
ATOM     15  H   UNL     1       6.261  -1.672   0.728  0.00  0.00    -0.081 HD
ENDROOT
BRANCH   8  16
ATOM     16  C   UNL     1       2.530  -2.279  -2.136  0.00  0.00    +0.221 C 
ATOM     17  O   UNL     1       2.918  -1.174  -2.449  0.00  0.00    -0.275 OA
ATOM     18  N   UNL     1       2.104  -3.137  -3.084  0.00  0.00    -0.298 N 
ATOM     19  C   UNL     1       1.512  -4.430  -2.711  0.00  0.00    +0.126 C 
ATOM     20  C   UNL     1       0.126  -4.538  -3.358  0.00  0.00    +0.124 C 
ATOM     21  N   UNL     1       0.244  -4.198  -4.783  0.00  0.00    -0.327 N 
ATOM     22  C   UNL     1       0.837  -2.905  -5.155  0.00  0.00    +0.124 C 
ATOM     23  C   UNL     1       2.218  -2.794  -4.508  0.00  0.00    +0.126 C 
BRANCH  21  24
ATOM     24  C   UNL     1      -0.197  -5.087  -5.765  0.00  0.00    +0.031 A 
ATOM     25  C   UNL     1      -0.864  -6.251  -5.402  0.00  0.00    +0.023 A 
ATOM     26  C   UNL     1      -1.300  -7.128  -6.375  0.00  0.00    +0.003 A 
ATOM     27  C   UNL     1      -1.073  -6.850  -7.711  0.00  0.00    +0.020 A 
ATOM     28  C   UNL     1      -0.410  -5.692  -8.077  0.00  0.00    +0.043 A 
ATOM     29  C   UNL     1       0.024  -4.807  -7.107  0.00  0.00    +0.043 A 
ATOM     30 CL   UNL     1      -0.127  -5.347  -9.755  0.00  0.00    -0.083 Cl
ENDBRANCH  21  24
ENDBRANCH   8  16
BRANCH  13  31
ATOM     31  C   UNL     1       7.370  -2.357  -0.845  0.00  0.00    +0.019 C 
BRANCH  31  32
ATOM     32  C   UNL     1       8.570  -1.539  -0.445  0.00  0.00    +0.199 C 
ATOM     33  O   UNL     1       8.429  -0.555   0.250  0.00  0.00    -0.278 OA
ATOM     34  N   UNL     1       9.801  -1.900  -0.859  0.00  0.00    -0.303 N 
ATOM     35  C   UNL     1      10.114  -3.060  -1.706  0.00  0.00    +0.108 C 
ATOM     36  C   UNL     1      11.645  -3.089  -1.896  0.00  0.00    +0.020 C 
ATOM     37  C   UNL     1      12.162  -2.272  -0.682  0.00  0.00    +0.020 C 
ATOM     38  C   UNL     1      11.056  -1.193  -0.542  0.00  0.00    +0.108 C 
ENDBRANCH  31  32
ENDBRANCH  13  31
TORSDOF 4
