REMARK  Name = ZINC06144656
REMARK  8 active torsions:
REMARK  status: ('A' for Active; 'I' for Inactive)
REMARK    1  A    between atoms: C_1  and  C_2
REMARK    2  A    between atoms: C_3  and  C_35
REMARK    3  A    between atoms: C_5  and  N_27
REMARK    4  A    between atoms: C_6  and  C_7
REMARK    5  A    between atoms: C_7  and  C_9
REMARK    6  A    between atoms: C_7  and  N_62
REMARK    7  A    between atoms: N_17  and  C_20
REMARK    8  A    between atoms: C_28  and  C_30
REMARK                            x       y       z     vdW  Elec       q    Type
REMARK                         _______ _______ _______ _____ _____    ______ ____
ROOT
ATOM      1  C   UNL     1      -2.453  -0.373   0.239  0.00  0.00    -0.003 C 
ENDROOT
BRANCH   1   7
ATOM      2  C   UNL     1      -2.347  -3.279   0.429  0.00  0.00    +0.045 C 
ATOM      3  C   UNL     1      -1.095  -2.484   0.162  0.00  0.00    -0.037 A 
ATOM      4  C   UNL     1       0.096  -3.110   0.007  0.00  0.00    -0.008 A 
ATOM      5  S   UNL     1       1.203  -1.740  -0.284  0.00  0.00    -0.078 S 
ATOM      6  C   UNL     1       0.007  -0.419  -0.171  0.00  0.00    +0.074 A 
ATOM      7  C   UNL     1      -1.146  -1.105   0.072  0.00  0.00    -0.025 A 
ATOM      8  C   UNL     1       0.406  -4.584   0.061  0.00  0.00    +0.052 C 
BRANCH   6   9
ATOM      9  N   UNL     1       0.200   0.957  -0.302  0.00  0.00    -0.273 N 
ATOM     10  C   UNL     1       1.408   1.436  -0.661  0.00  0.00    +0.284 C 
ATOM     11  O   UNL     1       2.329   0.669  -0.871  0.00  0.00    -0.266 OA
ATOM     12  H   UNL     1      -0.535   1.568  -0.139  0.00  0.00    +0.156 HD
BRANCH  10  13
ATOM     13  C   UNL     1       1.611   2.882  -0.800  0.00  0.00    +0.189 A 
ATOM     14  C   UNL     1       2.777   3.497  -1.155  0.00  0.00    +0.054 A 
ATOM     15  C   UNL     1       2.519   4.877  -1.163  0.00  0.00    +0.042 A 
ATOM     16  C   UNL     1       1.223   5.041  -0.816  0.00  0.00    +0.196 A 
ATOM     17  O   UNL     1       0.678   3.836  -0.604  0.00  0.00    -0.458 OA
ENDBRANCH  10  13
ENDBRANCH   6   9
ENDBRANCH   1   7
BRANCH   1  23
ATOM     18  C   UNL     1      -1.645   0.473   2.360  0.00  0.00    -0.058 C 
ATOM     19  C   UNL     1      -1.369   1.752   3.154  0.00  0.00    +0.086 C 
ATOM     20  N   UNL     1      -2.625   2.492   3.339  0.00  0.00    -0.331 N 
ATOM     21  C   UNL     1      -3.221   2.844   2.042  0.00  0.00    +0.086 C 
ATOM     22  C   UNL     1      -3.498   1.565   1.248  0.00  0.00    -0.058 C 
ATOM     23  N   UNL     1      -2.224   0.842   1.050  0.00  0.00    +0.389 N 
ATOM     24  H   UNL     1      -1.565   1.454   0.555  0.00  0.00    -0.080 HD
BRANCH  20  25
ATOM     25  C   UNL     1      -2.424   3.632   4.123  0.00  0.00    +0.065 A 
ATOM     26  C   UNL     1      -3.502   4.432   4.477  0.00  0.00    +0.026 A 
ATOM     27  C   UNL     1      -3.301   5.556   5.256  0.00  0.00    +0.002 A 
ATOM     28  C   UNL     1      -2.026   5.890   5.675  0.00  0.00    +0.003 A 
ATOM     29  C   UNL     1      -0.949   5.099   5.321  0.00  0.00    +0.040 A 
ATOM     30  C   UNL     1      -1.143   3.971   4.546  0.00  0.00    +0.144 A 
ATOM     31  F   UNL     1      -0.090   3.199   4.199  0.00  0.00    -0.204 F 
ENDBRANCH  20  25
ENDBRANCH   1  23
BRANCH   1  32
ATOM     32  C   UNL     1      -2.977   0.034  -1.114  0.00  0.00    -0.038 A 
ATOM     33  C   UNL     1      -3.890  -0.767  -1.783  0.00  0.00    +0.005 A 
ATOM     34  C   UNL     1      -4.344  -0.352  -3.026  0.00  0.00    +0.020 A 
ATOM     35  C   UNL     1      -3.876   0.837  -3.552  0.00  0.00    +0.111 A 
ATOM     36  N   UNL     1      -3.008   1.573  -2.887  0.00  0.00    -0.263 NA
ATOM     37  C   UNL     1      -2.558   1.213  -1.700  0.00  0.00    +0.113 A 
ENDBRANCH   1  32
TORSDOF 6
