REMARK  Name = ZINC13169259
REMARK  9 active torsions:
REMARK  status: ('A' for Active; 'I' for Inactive)
REMARK    1  A    between atoms: C_1  and  O_2
REMARK    2  A    between atoms: O_2  and  C_3
REMARK    3  A    between atoms: C_5  and  C_13
REMARK    4  A    between atoms: C_8  and  O_9
REMARK    5  A    between atoms: O_9  and  C_10
REMARK    6  A    between atoms: C_14  and  C_15
REMARK    7  A    between atoms: N_17  and  C_18
REMARK    8  A    between atoms: C_20  and  C_26
REMARK    9  A    between atoms: C_22  and  C_24
REMARK                            x       y       z     vdW  Elec       q    Type
REMARK                         _______ _______ _______ _____ _____    ______ ____
ROOT
ATOM      1  C   UNL     1      -1.260   3.408   0.128  0.00  0.00    +0.241 C 
ATOM      2  O   UNL     1      -0.217   4.035   0.127  0.00  0.00    -0.270 OA
ATOM      3  N   UNL     1      -1.238   2.064   0.019  0.00  0.00    -0.282 N 
ATOM      4  H   UNL     1      -2.070   1.570  -0.047  0.00  0.00    +0.155 HD
ENDROOT
BRANCH   3   5
ATOM      5  C   UNL     1      -0.017   1.384   0.001  0.00  0.00    +0.035 A 
ATOM      6  C   UNL     1       1.086   1.956  -0.617  0.00  0.00    +0.038 A 
ATOM      7  C   UNL     1       2.305   1.277  -0.642  0.00  0.00    +0.066 A 
ATOM      8  C   UNL     1       2.415   0.023  -0.044  0.00  0.00    +0.030 A 
ATOM      9  C   UNL     1       1.306  -0.549   0.576  0.00  0.00    +0.066 A 
ATOM     10  C   UNL     1       0.089   0.135   0.597  0.00  0.00    +0.038 A 
BRANCH   9  11
ATOM     11  C   UNL     1       1.417  -1.879   1.211  0.00  0.00    +0.387 C 
ATOM     12  O   UNL     1       0.450  -2.377   1.751  0.00  0.00    -0.241 OA
ATOM     13  O   UNL     1       2.592  -2.539   1.190  0.00  0.00    -0.241 OA
ENDBRANCH   9  11
BRANCH   7  14
ATOM     14  C   UNL     1       3.479   1.888  -1.301  0.00  0.00    +0.387 C 
ATOM     15  O   UNL     1       3.382   2.981  -1.821  0.00  0.00    -0.241 OA
ATOM     16  O   UNL     1       4.655   1.232  -1.325  0.00  0.00    -0.241 OA
ENDBRANCH   7  14
ENDBRANCH   3   5
BRANCH   1  18
ATOM     17  C   UNL     1      -2.558   5.456   0.358  0.00  0.00    +0.013 C 
ATOM     18  C   UNL     1      -2.537   4.111   0.248  0.00  0.00    +0.068 C 
BRANCH  17  21
ATOM     19  C   UNL     1      -5.075   8.216   0.706  0.00  0.00    +0.162 A 
ATOM     20  C   UNL     1      -3.866   7.557   0.598  0.00  0.00    +0.057 A 
ATOM     21  C   UNL     1      -3.842   6.163   0.478  0.00  0.00    -0.021 A 
ATOM     22  C   UNL     1      -5.042   5.443   0.480  0.00  0.00    +0.012 A 
ATOM     23  C   UNL     1      -6.243   6.108   0.594  0.00  0.00    +0.050 A 
ATOM     24  C   UNL     1      -6.267   7.492   0.707  0.00  0.00    +0.168 A 
BRANCH  19  26
ATOM     25  C   UNL     1      -3.845  10.249   0.808  0.00  0.00    +0.277 C 
ATOM     26  O   UNL     1      -5.103   9.571   0.816  0.00  0.00    -0.491 OA
ENDBRANCH  19  26
BRANCH  24  27
ATOM     27  O   UNL     1      -7.454   8.142   0.819  0.00  0.00    -0.431 OA
BRANCH  27  28
ATOM     28  C   UNL     1      -8.636   7.339   0.814  0.00  0.00    +0.541 C 
ATOM     29  F   UNL     1      -8.710   6.626  -0.388  0.00  0.00    -0.166 F 
ATOM     30  F   UNL     1      -8.596   6.442   1.887  0.00  0.00    -0.166 F 
ENDBRANCH  27  28
ENDBRANCH  24  27
ENDBRANCH  17  21
ENDBRANCH   1  18
TORSDOF 8
