REMARK  Name = ZINC22930303
REMARK  10 active torsions:
REMARK  status: ('A' for Active; 'I' for Inactive)
REMARK    1  A    between atoms: C_1  and  C_2
REMARK    2  A    between atoms: C_2  and  C_3
REMARK    3  A    between atoms: C_3  and  C_4
REMARK    4  A    between atoms: C_8  and  S_10
REMARK    5  A    between atoms: S_10  and  C_11
REMARK    6  A    between atoms: C_11  and  C_13
REMARK    7  A    between atoms: C_11  and  C_14
REMARK    8  A    between atoms: N_19  and  C_20
REMARK    9  A    between atoms: C_20  and  C_21
REMARK   10  A    between atoms: C_21  and  C_22
REMARK                            x       y       z     vdW  Elec       q    Type
REMARK                         _______ _______ _______ _____ _____    ______ ____
ROOT
ATOM      1  C   UNL     1       6.919  -0.301  -3.835  0.00  0.00    +0.233 C 
ATOM      2  O   UNL     1       6.337  -0.092  -4.878  0.00  0.00    -0.274 OA
ATOM      3  N   UNL     1       6.295  -0.085  -2.660  0.00  0.00    -0.239 N 
ATOM      4  C   UNL     1       5.024   0.363  -2.644  0.00  0.00    +0.306 C 
ATOM      5  O   UNL     1       4.441   0.573  -3.689  0.00  0.00    -0.252 OA
ATOM      6  N   UNL     1       4.401   0.579  -1.469  0.00  0.00    -0.299 N 
ATOM      7  H   UNL     1       6.823  -0.275  -1.714  0.00  0.00    +0.159 HD
ATOM      8  H   UNL     1       4.929   0.389  -0.523  0.00  0.00    +0.150 HD
ENDROOT
BRANCH   1   9
ATOM      9  C   UNL     1       8.340  -0.802  -3.853  0.00  0.00    +0.137 C 
ATOM     10  C   UNL     1       9.296   0.366  -3.604  0.00  0.00    +0.029 C 
BRANCH   9  11
ATOM     11  S   UNL     1       8.698  -1.542  -5.465  0.00  0.00    -0.073 S 
BRANCH  11  16
ATOM     12  C   UNL     1      12.175  -3.287  -5.942  0.00  0.00    +0.049 A 
ATOM     13  C   UNL     1      12.784  -3.118  -4.712  0.00  0.00    +0.095 A 
ATOM     14  C   UNL     1      12.088  -2.440  -3.712  0.00  0.00    +0.274 A 
ATOM     15  N   UNL     1      10.872  -1.976  -3.974  0.00  0.00    -0.183 NA
ATOM     16  C   UNL     1      10.320  -2.162  -5.164  0.00  0.00    +0.193 A 
ATOM     17  N   UNL     1      10.958  -2.803  -6.133  0.00  0.00    -0.227 NA
ATOM     18  O   UNL     1      12.647  -2.253  -2.492  0.00  0.00    -0.266 OA
BRANCH  12  19
ATOM     19  C   UNL     1      12.890  -4.013  -7.052  0.00  0.00    +0.055 C 
BRANCH  19  21
ATOM     20  C   UNL     1      12.740  -5.901  -8.682  0.00  0.00    +0.004 C 
ATOM     21  C   UNL     1      12.015  -5.163  -7.554  0.00  0.00    +0.003 C 
ENDBRANCH  19  21
ENDBRANCH  12  19
ENDBRANCH  11  16
ENDBRANCH   9  11
ENDBRANCH   1   9
BRANCH   6  22
ATOM     22  C   UNL     1       3.019   1.067  -1.451  0.00  0.00    +0.111 C 
BRANCH  22  23
ATOM     23  C   UNL     1       2.553   1.226  -0.003  0.00  0.00    +0.061 C 
BRANCH  23  24
ATOM     24  C   UNL     1       1.132   1.728   0.015  0.00  0.00    -0.009 A 
ATOM     25  C   UNL     1      -0.023   1.019   0.022  0.00  0.00    +0.011 A 
ATOM     26  C   UNL     1      -1.227   1.698   0.034  0.00  0.00    +0.008 A 
ATOM     27  C   UNL     1      -1.216   3.054   0.049  0.00  0.00    +0.045 A 
ATOM     28  S   UNL     1       0.533   3.409   0.034  0.00  0.00    -0.102 S 
ENDBRANCH  23  24
ENDBRANCH  22  23
ENDBRANCH   6  22
TORSDOF 8
