REMARK  Name = ZINC23358215
REMARK  15 active torsions:
REMARK  status: ('A' for Active; 'I' for Inactive)
REMARK    1  A    between atoms: C_1  and  C_2
REMARK    2  A    between atoms: C_5  and  N_9
REMARK    3  A    between atoms: C_6  and  C_8
REMARK    4  A    between atoms: C_13  and  C_15
REMARK    5  A    between atoms: C_15  and  N_16
REMARK    6  A    between atoms: N_16  and  C_17
REMARK    7  A    between atoms: N_16  and  C_21
REMARK    8  A    between atoms: C_17  and  C_18
REMARK    9  A    between atoms: C_18  and  C_19
REMARK   10  A    between atoms: C_18  and  C_20
REMARK   11  A    between atoms: C_22  and  N_34
REMARK   12  A    between atoms: N_23  and  C_30
REMARK   13  A    between atoms: C_30  and  C_31
REMARK   14  A    between atoms: C_31  and  C_32
REMARK   15  A    between atoms: C_31  and  C_33
REMARK                            x       y       z     vdW  Elec       q    Type
REMARK                         _______ _______ _______ _____ _____    ______ ____
ROOT
ATOM      1  N   UNL     1       0.967   1.463  -0.191  0.00  0.00    -0.314 N 
ENDROOT
BRANCH   1   2
ATOM      2  C   UNL     1       1.141   0.089   0.099  0.00  0.00    +0.134 A 
ATOM      3  C   UNL     1       0.967  -0.379   1.372  0.00  0.00    +0.127 A 
ATOM      4  N   UNL     1       1.142  -1.720   1.628  0.00  0.00    -0.280 N 
ATOM      5  C   UNL     1       1.480  -2.563   0.635  0.00  0.00    +0.331 A 
ATOM      6  O   UNL     1       1.630  -3.745   0.879  0.00  0.00    -0.246 OA
ATOM      7  N   UNL     1       1.656  -2.120  -0.623  0.00  0.00    -0.273 N 
ATOM      8  H   UNL     1       1.938  -2.823  -1.420  0.00  0.00    +0.173 HD
ATOM      9  C   UNL     1       1.489  -0.816  -0.920  0.00  0.00    +0.277 A 
ATOM     10  O   UNL     1       1.644  -0.422  -2.064  0.00  0.00    -0.266 OA
BRANCH   3  11
ATOM     11  N   UNL     1       0.620   0.482   2.389  0.00  0.00    -0.343 N 
ATOM     12  H   UNL     1       0.482   0.099   3.410  0.00  0.00    +0.144 HD
ATOM     13  H   UNL     1       0.482   1.553   2.179  0.00  0.00    +0.144 HD
ENDBRANCH   3  11
BRANCH   4  14
ATOM     14  C   UNL     1       0.958  -2.233   2.988  0.00  0.00    +0.131 C 
BRANCH  14  15
ATOM     15  C   UNL     1      -0.502  -2.646   3.184  0.00  0.00    +0.003 C 
ATOM     16  C   UNL     1      -0.828  -3.822   2.261  0.00  0.00    +0.009 C 
ATOM     17  C   UNL     1      -0.723  -3.064   4.639  0.00  0.00    +0.009 C 
ENDBRANCH  14  15
ENDBRANCH   4  14
ENDBRANCH   1   2
BRANCH   1  18
ATOM     18  C   UNL     1      -0.234   1.681  -1.009  0.00  0.00    +0.201 C 
BRANCH  18  23
ATOM     19  N   UNL     1      -3.094   5.320  -2.308  0.00  0.00    -0.269 N 
ATOM     20  C   UNL     1      -2.033   4.878  -1.604  0.00  0.00    +0.310 C 
ATOM     21  O   UNL     1      -1.390   5.653  -0.923  0.00  0.00    -0.252 OA
ATOM     22  N   UNL     1      -1.684   3.577  -1.655  0.00  0.00    -0.239 N 
ATOM     23  C   UNL     1      -0.623   3.135  -0.951  0.00  0.00    +0.238 C 
ATOM     24  O   UNL     1       0.018   3.908  -0.272  0.00  0.00    -0.274 OA
ATOM     25  H   UNL     1      -3.717   4.608  -2.869  0.00  0.00    +0.156 HD
ATOM     26  H   UNL     1      -2.266   2.876  -2.272  0.00  0.00    +0.159 HD
BRANCH  19  31
ATOM     27  C   UNL     1      -4.342  10.853  -2.384  0.00  0.00    +0.044 C 
ATOM     28  C   UNL     1      -4.011   9.383  -2.364  0.00  0.00    -0.050 A 
ATOM     29  C   UNL     1      -3.377   8.834  -1.264  0.00  0.00    +0.005 A 
ATOM     30  C   UNL     1      -3.071   7.488  -1.243  0.00  0.00    +0.024 A 
ATOM     31  C   UNL     1      -3.402   6.685  -2.327  0.00  0.00    +0.038 A 
ATOM     32  C   UNL     1      -4.034   7.240  -3.431  0.00  0.00    -0.029 A 
ATOM     33  C   UNL     1      -4.342   8.587  -3.444  0.00  0.00    +0.008 A 
ATOM     34  C   UNL     1      -4.390   6.374  -4.612  0.00  0.00    +0.045 C 
ENDBRANCH  19  31
ENDBRANCH  18  23
ENDBRANCH   1  18
BRANCH   1  35
ATOM     35  C   UNL     1       2.159   2.018  -0.847  0.00  0.00    +0.109 C 
BRANCH  35  36
ATOM     36  C   UNL     1       3.246   2.270   0.200  0.00  0.00    +0.000 C 
ATOM     37  C   UNL     1       3.722   0.933   0.772  0.00  0.00    +0.009 C 
ATOM     38  C   UNL     1       4.425   2.994  -0.453  0.00  0.00    +0.009 C 
ENDBRANCH  35  36
ENDBRANCH   1  35
TORSDOF 9
