REMARK  Name = ZINC36651900
REMARK  4 active torsions:
REMARK  status: ('A' for Active; 'I' for Inactive)
REMARK    1  A    between atoms: C_1  and  C_2
REMARK    2  A    between atoms: C_15  and  C_17
REMARK    3  A    between atoms: N_20  and  S_23
REMARK    4  A    between atoms: S_23  and  C_26
REMARK                            x       y       z     vdW  Elec       q    Type
REMARK                         _______ _______ _______ _____ _____    ______ ____
ROOT
ATOM      1  C   UNL     1      -0.018   1.503   0.010  0.00  0.00    +0.073 C 
ATOM      2  C   UNL     1       0.002  -0.004   0.002  0.00  0.00    +0.076 A 
ATOM      3  N   UNL     1      -1.014  -0.816   0.002  0.00  0.00    -0.243 NA
ATOM      4  C   UNL     1      -0.867  -2.157  -0.006  0.00  0.00    +0.094 A 
ATOM      5  C   UNL     1       0.485  -2.569  -0.014  0.00  0.00    +0.040 A 
ATOM      6  S   UNL     1       1.345  -1.018  -0.017  0.00  0.00    -0.072 S 
ATOM      7  C   UNL     1       0.838  -3.900  -0.022  0.00  0.00    +0.019 A 
ATOM      8  C   UNL     1      -0.107  -4.878  -0.024  0.00  0.00    +0.030 A 
ATOM      9  C   UNL     1      -1.488  -4.548  -0.016  0.00  0.00    +0.082 A 
ATOM     10  C   UNL     1      -1.821  -3.184  -0.007  0.00  0.00    +0.067 A 
ATOM     11  S   UNL     1      -3.597  -3.219   0.001  0.00  0.00    -0.050 S 
ATOM     12  C   UNL     1      -3.783  -4.997  -0.007  0.00  0.00    +0.166 A 
ATOM     13  N   UNL     1      -2.536  -5.405  -0.015  0.00  0.00    -0.224 NA
ATOM     14  N   UNL     1      -4.947  -5.751  -0.004  0.00  0.00    -0.264 N 
ATOM     15  C   UNL     1      -4.877  -7.097  -0.012  0.00  0.00    +0.222 C 
ATOM     16  O   UNL     1      -3.797  -7.648  -0.020  0.00  0.00    -0.275 OA
ATOM     17  H   UNL     1      -5.810  -5.309   0.002  0.00  0.00    +0.157 HD
ENDROOT
BRANCH  15  18
ATOM     18  C   UNL     1      -6.142  -7.916  -0.009  0.00  0.00    +0.078 C 
ATOM     19  C   UNL     1      -6.957  -7.593   1.246  0.00  0.00    +0.030 C 
ATOM     20  C   UNL     1      -8.257  -8.402   1.228  0.00  0.00    +0.110 C 
ATOM     21  N   UNL     1      -7.927  -9.825   1.072  0.00  0.00    -0.176 NA
ATOM     22  C   UNL     1      -7.073 -10.234  -0.051  0.00  0.00    +0.110 C 
ATOM     23  C   UNL     1      -5.785  -9.404  -0.019  0.00  0.00    +0.030 C 
BRANCH  21  24
ATOM     24  S   UNL     1      -8.506 -10.947   2.144  0.00  0.00    +0.064 S 
ATOM     25  O   UNL     1      -7.618 -12.055   2.091  0.00  0.00    -0.153 OA
ATOM     26  O   UNL     1      -8.784 -10.251   3.351  0.00  0.00    -0.153 OA
BRANCH  24  27
ATOM     27  C   UNL     1     -10.054 -11.513   1.520  0.00  0.00    +0.140 A 
ATOM     28  C   UNL     1     -10.203 -12.830   1.130  0.00  0.00    +0.031 A 
ATOM     29  C   UNL     1     -11.417 -13.274   0.641  0.00  0.00    +0.002 A 
ATOM     30  C   UNL     1     -12.484 -12.401   0.541  0.00  0.00    +0.003 A 
ATOM     31  C   UNL     1     -12.338 -11.083   0.931  0.00  0.00    +0.040 A 
ATOM     32  C   UNL     1     -11.123 -10.639   1.426  0.00  0.00    +0.150 A 
ATOM     33  F   UNL     1     -10.981  -9.352   1.812  0.00  0.00    -0.203 F 
ENDBRANCH  24  27
ENDBRANCH  21  24
ENDBRANCH  15  18
TORSDOF 3
