REMARK  Name = ZINC02753376
REMARK  4 active torsions:
REMARK  status: ('A' for Active; 'I' for Inactive)
REMARK    1  A    between atoms: C_4  and  C_7
REMARK    2  A    between atoms: C_10  and  C_35
REMARK    3  A    between atoms: C_15  and  C_17
REMARK    4  A    between atoms: C_25  and  C_27
REMARK                            x       y       z     vdW  Elec       q    Type
REMARK                         _______ _______ _______ _____ _____    ______ ____
ROOT
ATOM      1  C   UNL     1       8.719   7.823   2.915  0.00  0.00    +0.104 C 
ATOM      2  C   UNL     1       7.487   8.000   2.022  0.00  0.00    +0.063 C 
ATOM      3  C   UNL     1       6.596   6.756   2.150  0.00  0.00    +0.215 C 
ATOM      4  N   UNL     1       7.457   5.573   2.030  0.00  0.00    -0.237 N 
ATOM      5  C   UNL     1       8.816   5.601   2.138  0.00  0.00    +0.137 A 
ATOM      6  C   UNL     1       9.269   4.335   1.978  0.00  0.00    +0.112 A 
ATOM      7  C   UNL     1       8.150   3.503   1.756  0.00  0.00    +0.167 A 
ATOM      8  N   UNL     1       7.065   4.255   1.792  0.00  0.00    -0.163 NA
ATOM      9 CL   UNL     1      10.928   3.827   2.033  0.00  0.00    -0.078 Cl
ATOM     10  N   UNL     1       9.569   6.750   2.378  0.00  0.00    -0.321 N 
ATOM     11  H   UNL     1      10.644   6.925   2.221  0.00  0.00    +0.148 HD
ENDROOT
BRANCH   7  12
ATOM     12  C   UNL     1       8.187   2.044   1.528  0.00  0.00    +0.268 C 
ATOM     13  O   UNL     1       9.254   1.472   1.419  0.00  0.00    -0.268 OA
ATOM     14  N   UNL     1       7.036   1.347   1.441  0.00  0.00    -0.293 N 
ATOM     15  C   UNL     1       5.740   2.038   1.457  0.00  0.00    +0.127 C 
ATOM     16  C   UNL     1       4.883   1.447   2.584  0.00  0.00    +0.127 C 
ATOM     17  N   UNL     1       4.904  -0.018   2.471  0.00  0.00    -0.295 N 
ATOM     18  C   UNL     1       6.201  -0.710   2.460  0.00  0.00    +0.127 C 
ATOM     19  C   UNL     1       7.057  -0.118   1.327  0.00  0.00    +0.127 C 
ATOM     20  C   UNL     1       3.754  -0.716   2.384  0.00  0.00    +0.247 C 
ATOM     21  O   UNL     1       2.692  -0.129   2.298  0.00  0.00    -0.270 OA
BRANCH  20  22
ATOM     22  C   UNL     1       3.783  -2.194   2.392  0.00  0.00    +0.037 A 
ATOM     23  C   UNL     1       2.845  -2.918   1.655  0.00  0.00    +0.013 A 
ATOM     24  C   UNL     1       2.878  -4.297   1.667  0.00  0.00    +0.001 A 
ATOM     25  C   UNL     1       3.838  -4.962   2.408  0.00  0.00    +0.000 A 
ATOM     26  C   UNL     1       4.772  -4.251   3.141  0.00  0.00    +0.001 A 
ATOM     27  C   UNL     1       4.750  -2.871   3.137  0.00  0.00    +0.013 A 
ENDBRANCH  20  22
ENDBRANCH   7  12
BRANCH   1  31
ATOM     28  C   UNL     1       7.473   6.801   6.871  0.00  0.00    +0.000 A 
ATOM     29  C   UNL     1       8.362   5.987   6.195  0.00  0.00    +0.000 A 
ATOM     30  C   UNL     1       8.765   6.317   4.914  0.00  0.00    +0.005 A 
ATOM     31  C   UNL     1       8.279   7.462   4.311  0.00  0.00    -0.027 A 
ATOM     32  C   UNL     1       7.395   8.280   4.990  0.00  0.00    +0.005 A 
ATOM     33  C   UNL     1       6.988   7.947   6.268  0.00  0.00    +0.000 A 
ENDBRANCH   1  31
BRANCH   3  34
ATOM     34  C   UNL     1       5.550   6.751   1.034  0.00  0.00    +0.412 C 
ATOM     35  F   UNL     1       4.766   5.596   1.134  0.00  0.00    -0.168 F 
ATOM     36  F   UNL     1       4.733   7.880   1.155  0.00  0.00    -0.168 F 
ATOM     37  F   UNL     1       6.193   6.771  -0.209  0.00  0.00    -0.168 F 
ENDBRANCH   3  34
TORSDOF 4
