REMARK  Name = ZINC34813533
REMARK  4 active torsions:
REMARK  status: ('A' for Active; 'I' for Inactive)
REMARK    1  A    between atoms: C_1  and  C_2
REMARK    2  A    between atoms: C_9  and  C_11
REMARK    3  A    between atoms: C_33  and  O_34
REMARK    4  A    between atoms: O_34  and  C_35
REMARK                            x       y       z     vdW  Elec       q    Type
REMARK                         _______ _______ _______ _____ _____    ______ ____
ROOT
ATOM      1  C   UNL     1      -0.282   1.399   0.211  0.00  0.00    +0.029 C 
ATOM      2  C   UNL     1       0.413   0.100  -0.202  0.00  0.00    +0.091 C 
ATOM      3  C   UNL     1       1.243   0.341  -1.469  0.00  0.00    +0.128 C 
ATOM      4  N   UNL     1       2.099  -0.831  -1.699  0.00  0.00    -0.311 N 
ATOM      5  C   UNL     1       2.999  -1.272  -0.624  0.00  0.00    +0.125 C 
ATOM      6  C   UNL     1       2.169  -1.513   0.643  0.00  0.00    +0.127 C 
ATOM      7  N   UNL     1       1.310  -0.343   0.874  0.00  0.00    -0.292 N 
ATOM      8  C   UNL     1       1.347   0.315   2.050  0.00  0.00    +0.250 C 
ATOM      9  O   UNL     1       0.614   1.266   2.239  0.00  0.00    -0.270 OA
ATOM     10  C   UNL     1       2.059  -1.504  -2.899  0.00  0.00    +0.133 C 
ATOM     11  N   UNL     1       2.728  -2.602  -2.985  0.00  0.00    -0.228 NA
ATOM     12  C   UNL     1       2.840  -3.412  -4.075  0.00  0.00    +0.108 A 
ATOM     13  C   UNL     1       4.081  -3.990  -4.363  0.00  0.00    +0.031 A 
ATOM     14  C   UNL     1       4.216  -4.842  -5.440  0.00  0.00    +0.002 A 
ATOM     15  C   UNL     1       3.125  -5.132  -6.239  0.00  0.00    +0.004 A 
ATOM     16  C   UNL     1       1.895  -4.556  -5.971  0.00  0.00    +0.048 A 
ATOM     17  C   UNL     1       1.749  -3.686  -4.903  0.00  0.00    +0.154 A 
ATOM     18  O   UNL     1       0.552  -3.074  -4.711  0.00  0.00    -0.450 OA
ATOM     19  C   UNL     1       0.505  -1.725  -4.832  0.00  0.00    +0.180 A 
ATOM     20  C   UNL     1       1.251  -0.913  -3.979  0.00  0.00    +0.061 A 
ATOM     21  C   UNL     1       1.224   0.472  -4.152  0.00  0.00    +0.015 A 
ATOM     22  C   UNL     1       0.441   1.030  -5.141  0.00  0.00    +0.004 A 
ATOM     23  C   UNL     1      -0.323   0.222  -5.964  0.00  0.00    +0.049 A 
ATOM     24  C   UNL     1      -0.287  -1.147  -5.817  0.00  0.00    +0.163 A 
ENDROOT
BRANCH   8  25
ATOM     25  C   UNL     1       2.279  -0.120   3.109  0.00  0.00    +0.072 A 
ATOM     26  C   UNL     1       2.594  -1.474   3.254  0.00  0.00    +0.019 A 
ATOM     27  C   UNL     1       3.464  -1.874   4.244  0.00  0.00    +0.039 A 
ATOM     28  C   UNL     1       4.028  -0.937   5.098  0.00  0.00    +0.126 A 
ATOM     29  C   UNL     1       3.720   0.406   4.962  0.00  0.00    +0.077 A 
ATOM     30  C   UNL     1       2.854   0.822   3.969  0.00  0.00    +0.138 A 
ATOM     31  F   UNL     1       2.558   2.133   3.833  0.00  0.00    -0.205 F 
ATOM     32  F   UNL     1       4.880  -1.337   6.068  0.00  0.00    -0.205 F 
ENDBRANCH   8  25
BRANCH  24  33
ATOM     33  O   UNL     1      -1.041  -1.933  -6.631  0.00  0.00    -0.491 OA
ATOM     34  C   UNL     1      -1.832  -1.272  -7.621  0.00  0.00    +0.277 C 
ENDBRANCH  24  33
TORSDOF 2
