REMARK  Name = ZINC59886200
REMARK  9 active torsions:
REMARK  status: ('A' for Active; 'I' for Inactive)
REMARK    1  A    between atoms: C_1  and  N_2
REMARK    2  A    between atoms: N_2  and  C_3
REMARK    3  A    between atoms: N_2  and  C_4
REMARK    4  A    between atoms: C_4  and  C_6
REMARK    5  A    between atoms: C_4  and  C_21
REMARK    6  A    between atoms: C_6  and  N_7
REMARK    7  A    between atoms: C_8  and  C_10
REMARK    8  A    between atoms: C_10  and  N_11
REMARK    9  A    between atoms: C_12  and  C_14
REMARK                            x       y       z     vdW  Elec       q    Type
REMARK                         _______ _______ _______ _____ _____    ______ ____
ROOT
ATOM      1  N   UNL     1      -1.766   1.531  -1.169  0.00  0.00    -0.315 N 
ATOM      2  C   UNL     1      -2.260   2.263  -2.188  0.00  0.00    +0.230 C 
ATOM      3  O   UNL     1      -2.935   1.732  -3.045  0.00  0.00    -0.274 OA
ATOM      4  H   UNL     1      -1.227   1.956  -0.484  0.00  0.00    +0.149 HD
ENDROOT
BRANCH   1   5
ATOM      5  C   UNL     1      -2.044   0.095  -1.098  0.00  0.00    +0.093 C 
BRANCH   5   6
ATOM      6  C   UNL     1      -1.281  -0.514   0.081  0.00  0.00    -0.021 C 
BRANCH   6   7
ATOM      7  C   UNL     1      -1.799   0.070   1.370  0.00  0.00    -0.059 A 
ATOM      8  C   UNL     1      -2.967  -0.414   1.928  0.00  0.00    +0.005 A 
ATOM      9  C   UNL     1      -3.443   0.120   3.110  0.00  0.00    +0.038 A 
ATOM     10  C   UNL     1      -2.748   1.141   3.736  0.00  0.00    +0.123 A 
ATOM     11  C   UNL     1      -1.578   1.625   3.177  0.00  0.00    +0.038 A 
ATOM     12  C   UNL     1      -1.102   1.086   1.997  0.00  0.00    +0.005 A 
ATOM     13  F   UNL     1      -3.212   1.665   4.892  0.00  0.00    -0.205 F 
ENDBRANCH   6   7
BRANCH   6  15
ATOM     14  C   UNL     1      -0.970  -2.540  -1.166  0.00  0.00    -0.096 C 
ATOM     15  N   UNL     1      -1.476  -1.970   0.090  0.00  0.00    +0.382 N 
ATOM     16  C   UNL     1      -0.744  -2.555   1.222  0.00  0.00    -0.096 C 
ATOM     17  H   UNL     1      -2.459  -2.178   0.182  0.00  0.00    -0.082 HD
ENDBRANCH   6  15
ENDBRANCH   5   6
ENDBRANCH   1   5
BRANCH   2  18
ATOM     18  C   UNL     1      -1.974   3.741  -2.262  0.00  0.00    +0.200 C 
BRANCH  18  19
ATOM     19  N   UNL     1      -2.617   4.304  -3.451  0.00  0.00    -0.303 N 
ATOM     20  C   UNL     1      -2.497   5.618  -3.724  0.00  0.00    +0.245 C 
ATOM     21  O   UNL     1      -1.855   6.336  -2.983  0.00  0.00    -0.270 OA
ATOM     22  H   UNL     1      -3.130   3.731  -4.043  0.00  0.00    +0.150 HD
BRANCH  20  23
ATOM     23  C   UNL     1      -3.146   6.186  -4.925  0.00  0.00    +0.050 A 
ATOM     24  C   UNL     1      -3.889   5.365  -5.775  0.00  0.00    +0.014 A 
ATOM     25  C   UNL     1      -4.492   5.901  -6.893  0.00  0.00    +0.001 A 
ATOM     26  C   UNL     1      -4.362   7.250  -7.174  0.00  0.00    +0.001 A 
ATOM     27  C   UNL     1      -3.627   8.070  -6.337  0.00  0.00    +0.015 A 
ATOM     28  C   UNL     1      -3.023   7.547  -5.211  0.00  0.00    +0.025 A 
ATOM     29  I   UNL     1      -1.917   8.792  -3.939  0.00  0.00    -0.043 I 
ENDBRANCH  20  23
ENDBRANCH  18  19
ENDBRANCH   2  18
TORSDOF 7
