REMARK  Name = ZINC16557091
REMARK  12 active torsions:
REMARK  status: ('A' for Active; 'I' for Inactive)
REMARK    1  A    between atoms: C_1  and  C_2
REMARK    2  A    between atoms: C_2  and  N_3
REMARK    3  A    between atoms: N_3  and  C_4
REMARK    4  A    between atoms: N_3  and  C_18
REMARK    5  A    between atoms: C_4  and  C_5
REMARK    6  A    between atoms: N_7  and  C_8
REMARK    7  A    between atoms: C_11  and  N_14
REMARK    8  A    between atoms: C_15  and  C_17
REMARK    9  A    between atoms: C_18  and  C_19
REMARK   10  A    between atoms: N_24  and  C_25
REMARK   11  A    between atoms: C_28  and  C_32
REMARK   12  A    between atoms: C_30  and  C_31
REMARK                            x       y       z     vdW  Elec       q    Type
REMARK                         _______ _______ _______ _____ _____    ______ ____
ROOT
ATOM      1  N   UNL     1       0.370  -0.533  -1.355  0.00  0.00    +0.391 N 
ATOM      2  H   UNL     1      -0.042  -0.008  -2.112  0.00  0.00    -0.080 HD
ENDROOT
BRANCH   1   4
ATOM      3  C   UNL     1      -0.051   1.430   0.049  0.00  0.00    -0.017 C 
ATOM      4  C   UNL     1      -0.207  -0.087  -0.079  0.00  0.00    -0.081 C 
ENDBRANCH   1   4
BRANCH   1   5
ATOM      5  C   UNL     1       0.095  -1.963  -1.543  0.00  0.00    +0.020 C 
BRANCH   5   6
ATOM      6  C   UNL     1      -1.391  -2.175  -1.682  0.00  0.00    +0.201 C 
ATOM      7  O   UNL     1      -2.146  -1.227  -1.629  0.00  0.00    -0.278 OA
ATOM      8  N   UNL     1      -1.880  -3.417  -1.865  0.00  0.00    -0.287 N 
ATOM      9  H   UNL     1      -1.274  -4.166  -1.975  0.00  0.00    +0.155 HD
BRANCH   8  10
ATOM     10  C   UNL     1      -3.265  -3.627  -1.897  0.00  0.00    +0.033 A 
ATOM     11  C   UNL     1      -4.099  -2.671  -2.461  0.00  0.00    +0.025 A 
ATOM     12  C   UNL     1      -5.464  -2.877  -2.493  0.00  0.00    +0.025 A 
ATOM     13  C   UNL     1      -6.002  -4.041  -1.960  0.00  0.00    +0.033 A 
ATOM     14  C   UNL     1      -5.168  -4.997  -1.395  0.00  0.00    +0.025 A 
ATOM     15  C   UNL     1      -3.803  -4.793  -1.369  0.00  0.00    +0.025 A 
BRANCH  13  16
ATOM     16  N   UNL     1      -7.387  -4.250  -1.991  0.00  0.00    -0.286 N 
ATOM     17  C   UNL     1      -7.993  -4.904  -0.980  0.00  0.00    +0.214 C 
ATOM     18  O   UNL     1      -7.355  -5.232  -0.002  0.00  0.00    -0.276 OA
ATOM     19  C   UNL     1      -9.462  -5.227  -1.065  0.00  0.00    +0.109 C 
ATOM     20  H   UNL     1      -7.910  -3.925  -2.740  0.00  0.00    +0.155 HD
ENDBRANCH  13  16
ENDBRANCH   8  10
ENDBRANCH   5   6
ENDBRANCH   1   5
BRANCH   1  21
ATOM     21  C   UNL     1       1.822  -0.311  -1.339  0.00  0.00    +0.020 C 
BRANCH  21  22
ATOM     22  C   UNL     1       2.392  -0.618  -2.700  0.00  0.00    +0.204 C 
ATOM     23  O   UNL     1       1.650  -0.886  -3.621  0.00  0.00    -0.277 OA
ATOM     24  N   UNL     1       3.725  -0.595  -2.893  0.00  0.00    -0.241 N 
ATOM     25  C   UNL     1       4.235  -0.869  -4.110  0.00  0.00    +0.310 C 
ATOM     26  O   UNL     1       3.492  -1.138  -5.034  0.00  0.00    -0.252 OA
ATOM     27  N   UNL     1       5.569  -0.846  -4.303  0.00  0.00    -0.269 N 
ATOM     28  H   UNL     1       4.319  -0.381  -2.156  0.00  0.00    +0.159 HD
ATOM     29  H   UNL     1       6.165  -0.692  -3.554  0.00  0.00    +0.156 HD
BRANCH  27  30
ATOM     30  C   UNL     1       6.093  -1.045  -5.585  0.00  0.00    +0.038 A 
ATOM     31  C   UNL     1       5.375  -1.771  -6.527  0.00  0.00    +0.024 A 
ATOM     32  C   UNL     1       5.896  -1.965  -7.791  0.00  0.00    +0.005 A 
ATOM     33  C   UNL     1       7.131  -1.437  -8.120  0.00  0.00    -0.050 A 
ATOM     34  C   UNL     1       7.848  -0.714  -7.185  0.00  0.00    +0.008 A 
ATOM     35  C   UNL     1       7.330  -0.510  -5.921  0.00  0.00    -0.029 A 
ATOM     36  C   UNL     1       8.110   0.284  -4.905  0.00  0.00    +0.045 C 
ATOM     37  C   UNL     1       7.697  -1.651  -9.501  0.00  0.00    +0.044 C 
ENDBRANCH  27  30
ENDBRANCH  21  22
ENDBRANCH   1  21
TORSDOF 8
