REMARK  Name = ZINC23353929
REMARK  5 active torsions:
REMARK  status: ('A' for Active; 'I' for Inactive)
REMARK    1  A    between atoms: C_1  and  C_2
REMARK    2  A    between atoms: C_2  and  N_3
REMARK    3  A    between atoms: C_6  and  C_8
REMARK    4  A    between atoms: C_17  and  N_21
REMARK    5  A    between atoms: N_24  and  C_27
REMARK                            x       y       z     vdW  Elec       q    Type
REMARK                         _______ _______ _______ _____ _____    ______ ____
ROOT
ATOM      1  N   UNL     1       0.720  -0.247  -1.298  0.00  0.00    -0.268 N 
ATOM      2  C   UNL     1       0.087  -0.762  -2.365  0.00  0.00    +0.043 A 
ATOM      3  C   UNL     1       1.033  -1.306  -3.170  0.00  0.00    +0.007 A 
ATOM      4  C   UNL     1       2.261  -1.085  -2.525  0.00  0.00    +0.151 A 
ATOM      5  N   UNL     1       1.990  -0.437  -1.405  0.00  0.00    -0.166 NA
ATOM      6  C   UNL     1       0.750  -1.995  -4.476  0.00  0.00    +0.058 C 
ATOM      7  C   UNL     1      -0.746  -2.330  -4.530  0.00  0.00    +0.061 C 
ATOM      8  C   UNL     1      -1.562  -1.086  -4.169  0.00  0.00    +0.025 C 
ATOM      9  C   UNL     1      -1.388  -0.769  -2.679  0.00  0.00    +0.057 C 
ENDROOT
BRANCH   4  10
ATOM     10  C   UNL     1       3.597  -1.492  -3.007  0.00  0.00    +0.267 C 
ATOM     11  O   UNL     1       3.721  -1.978  -4.114  0.00  0.00    -0.268 OA
ATOM     12  N   UNL     1       4.677  -1.325  -2.219  0.00  0.00    -0.296 N 
ATOM     13  C   UNL     1       4.527  -0.887  -0.824  0.00  0.00    +0.108 C 
ATOM     14  C   UNL     1       5.254  -1.882   0.086  0.00  0.00    +0.019 C 
ATOM     15  C   UNL     1       6.706  -2.022  -0.375  0.00  0.00    +0.003 C 
ATOM     16  C   UNL     1       6.739  -2.564  -1.806  0.00  0.00    +0.019 C 
ATOM     17  C   UNL     1       6.028  -1.583  -2.736  0.00  0.00    +0.108 C 
ENDBRANCH   4  10
BRANCH   7  18
ATOM     18  N   UNL     1      -1.101  -2.772  -5.885  0.00  0.00    -0.303 NA
ATOM     19  C   UNL     1      -0.846  -1.710  -6.869  0.00  0.00    +0.066 C 
ATOM     20  C   UNL     1      -1.171  -2.229  -8.271  0.00  0.00    -0.063 C 
ATOM     21  N   UNL     1      -2.579  -2.643  -8.326  0.00  0.00    +0.384 N 
ATOM     22  C   UNL     1      -2.812  -3.721  -7.356  0.00  0.00    -0.063 C 
ATOM     23  C   UNL     1      -2.501  -3.215  -5.946  0.00  0.00    +0.066 C 
ATOM     24  H   UNL     1      -3.170  -1.857  -8.103  0.00  0.00    -0.081 HD
BRANCH  21  25
ATOM     25  C   UNL     1      -2.895  -3.125  -9.678  0.00  0.00    -0.062 C 
ATOM     26  C   UNL     1      -2.654  -2.001 -10.688  0.00  0.00    -0.024 C 
ATOM     27  C   UNL     1      -2.983  -2.502 -12.096  0.00  0.00    +0.005 C 
ATOM     28  C   UNL     1      -4.450  -2.935 -12.153  0.00  0.00    -0.010 C 
ATOM     29  C   UNL     1      -5.346  -1.742 -11.814  0.00  0.00    +0.007 C 
ATOM     30  C   UNL     1      -5.017  -1.241 -10.406  0.00  0.00    -0.010 C 
ATOM     31  C   UNL     1      -3.551  -0.809 -10.349  0.00  0.00    +0.005 C 
ATOM     32  C   UNL     1      -5.258  -2.364  -9.396  0.00  0.00    +0.005 C 
ATOM     33  C   UNL     1      -4.361  -3.557  -9.735  0.00  0.00    -0.024 C 
ATOM     34  C   UNL     1      -4.690  -4.058 -11.143  0.00  0.00    +0.005 C 
ENDBRANCH  21  25
ENDBRANCH   7  18
BRANCH   1  36
ATOM     35  C   UNL     1      -0.035   1.931  -0.482  0.00  0.00    +0.029 C 
ATOM     36  C   UNL     1       0.063   0.434  -0.180  0.00  0.00    +0.140 C 
ENDBRANCH   1  36
TORSDOF 4
