REMARK  Name = ZINC67290802
REMARK  2 active torsions:
REMARK  status: ('A' for Active; 'I' for Inactive)
REMARK    1  A    between atoms: C_4  and  N_8
REMARK    2  A    between atoms: N_11  and  C_12
REMARK                            x       y       z     vdW  Elec       q    Type
REMARK                         _______ _______ _______ _____ _____    ______ ____
ROOT
ATOM      1  N   UNL     1       3.623  -0.652  -0.037  0.00  0.00    -0.268 N 
ATOM      2  C   UNL     1       3.646  -1.997   0.057  0.00  0.00    +0.304 C 
ATOM      3  O   UNL     1       2.604  -2.623   0.064  0.00  0.00    -0.253 OA
ATOM      4  N   UNL     1       4.824  -2.646   0.143  0.00  0.00    -0.296 N 
ATOM      5  H   UNL     1       4.454  -0.157  -0.109  0.00  0.00    +0.156 HD
ATOM      6  H   UNL     1       5.655  -2.146   0.137  0.00  0.00    +0.151 HD
ENDROOT
BRANCH   4   7
ATOM      7  C   UNL     1       4.848  -4.107   0.245  0.00  0.00    +0.075 C 
ATOM      8  C   UNL     1       4.681  -4.519   1.709  0.00  0.00    +0.027 C 
ATOM      9  C   UNL     1       4.703  -6.045   1.816  0.00  0.00    +0.067 C 
ATOM     10  C   UNL     1       6.036  -6.572   1.282  0.00  0.00    +0.170 C 
ATOM     11  C   UNL     1       6.210  -6.159  -0.180  0.00  0.00    +0.067 C 
ATOM     12  C   UNL     1       6.185  -4.633  -0.284  0.00  0.00    +0.027 C 
ATOM     13  O   UNL     1       7.112  -6.028   2.064  0.00  0.00    -0.346 OA
ATOM     14  C   UNL     1       7.396  -7.040   3.059  0.00  0.00    +0.191 C 
ATOM     15  C   UNL     1       7.163  -8.345   2.256  0.00  0.00    +0.191 C 
ATOM     16  O   UNL     1       6.065  -8.001   1.387  0.00  0.00    -0.346 OA
ENDBRANCH   4   7
BRANCH   1  20
ATOM     17  C   UNL     1      -0.018   1.377  -0.022  0.00  0.00    +0.017 A 
ATOM     18  C   UNL     1       1.092   1.948   0.574  0.00  0.00    +0.023 A 
ATOM     19  C   UNL     1       2.301   1.278   0.570  0.00  0.00    +0.062 A 
ATOM     20  C   UNL     1       2.400   0.029  -0.032  0.00  0.00    +0.054 A 
ATOM     21  C   UNL     1       1.284  -0.541  -0.629  0.00  0.00    +0.040 A 
ATOM     22  C   UNL     1       0.077   0.135  -0.623  0.00  0.00    +0.020 A 
ATOM     23 BR   UNL     1      -1.444  -0.641  -1.436  0.00  0.00    -0.050 Br
ATOM     24 CL   UNL     1       3.694   1.995   1.317  0.00  0.00    -0.082 Cl
ENDBRANCH   1  20
TORSDOF 2
