REMARK  Name = ZINC08797306
REMARK  5 active torsions:
REMARK  status: ('A' for Active; 'I' for Inactive)
REMARK    1  A    between atoms: C_1  and  N_2
REMARK    2  A    between atoms: N_13  and  C_14
REMARK    3  A    between atoms: C_14  and  C_16
REMARK    4  A    between atoms: C_19  and  S_22
REMARK    5  A    between atoms: S_22  and  N_25
REMARK                            x       y       z     vdW  Elec       q    Type
REMARK                         _______ _______ _______ _____ _____    ______ ____
ROOT
ATOM      1  C   UNL     1      -0.336  -1.006  -3.448  0.00  0.00    +0.269 C 
ATOM      2  O   UNL     1      -0.301  -2.212  -3.280  0.00  0.00    -0.268 OA
ENDROOT
BRANCH   1  15
ATOM      3  C   UNL     1      -0.018   1.461   0.010  0.00  0.00    +0.151 C 
ATOM      4  N   UNL     1       0.002  -0.004   0.002  0.00  0.00    -0.323 N 
ATOM      5  C   UNL     1       0.127  -0.700   1.191  0.00  0.00    +0.077 A 
ATOM      6  C   UNL     1       0.134  -2.096   1.060  0.00  0.00    +0.040 A 
ATOM      7  C   UNL     1       0.251  -2.938   2.140  0.00  0.00    +0.019 A 
ATOM      8  C   UNL     1       0.367  -2.406   3.413  0.00  0.00    +0.022 A 
ATOM      9  C   UNL     1       0.363  -1.030   3.574  0.00  0.00    +0.061 A 
ATOM     10  C   UNL     1       0.246  -0.186   2.492  0.00  0.00    +0.084 A 
ATOM     11 CL   UNL     1       0.246   1.532   2.740  0.00  0.00    -0.080 Cl
ATOM     12 CL   UNL     1       0.507  -0.358   5.168  0.00  0.00    -0.082 Cl
ATOM     13  S   UNL     1      -0.032  -2.342  -0.690  0.00  0.00    -0.052 S 
ATOM     14  C   UNL     1      -0.108  -0.678  -1.174  0.00  0.00    +0.167 A 
ATOM     15  N   UNL     1      -0.240  -0.182  -2.400  0.00  0.00    -0.152 NA
ENDBRANCH   1  15
BRANCH   1  16
ATOM     16  C   UNL     1      -0.483  -0.452  -4.814  0.00  0.00    +0.039 A 
ATOM     17  C   UNL     1      -0.528   0.928  -5.009  0.00  0.00    +0.015 A 
ATOM     18  C   UNL     1      -0.660   1.438  -6.284  0.00  0.00    +0.029 A 
ATOM     19  C   UNL     1      -0.758   0.582  -7.367  0.00  0.00    +0.106 A 
ATOM     20  C   UNL     1      -0.719  -0.788  -7.180  0.00  0.00    +0.029 A 
ATOM     21  C   UNL     1      -0.582  -1.309  -5.910  0.00  0.00    +0.015 A 
BRANCH  19  22
ATOM     22  S   UNL     1      -0.933   1.241  -8.992  0.00  0.00    +0.061 S 
ATOM     23  O   UNL     1      -0.395   2.555  -8.958  0.00  0.00    -0.153 OA
ATOM     24  O   UNL     1      -0.457   0.245  -9.887  0.00  0.00    -0.153 OA
BRANCH  22  25
ATOM     25  N   UNL     1      -2.556   1.401  -9.283  0.00  0.00    -0.172 NA
ATOM     26  C   UNL     1      -3.328   0.307  -9.893  0.00  0.00    +0.137 C 
ATOM     27  C   UNL     1      -4.572   0.057  -9.025  0.00  0.00    +0.177 C 
ATOM     28  O   UNL     1      -5.265   1.292  -8.833  0.00  0.00    -0.377 OA
ATOM     29  C   UNL     1      -4.513   2.283  -8.129  0.00  0.00    +0.177 C 
ATOM     30  C   UNL     1      -3.267   2.645  -8.946  0.00  0.00    +0.137 C 
ENDBRANCH  22  25
ENDBRANCH  19  22
ENDBRANCH   1  16
TORSDOF 4
