REMARK  Name = ZINC39674366
REMARK  8 active torsions:
REMARK  status: ('A' for Active; 'I' for Inactive)
REMARK    1  A    between atoms: C_1  and  C_2
REMARK    2  A    between atoms: C_5  and  C_10
REMARK    3  A    between atoms: C_14  and  C_23
REMARK    4  A    between atoms: N_25  and  C_26
REMARK    5  A    between atoms: C_26  and  C_28
REMARK    6  A    between atoms: C_26  and  C_29
REMARK    7  A    between atoms: C_30  and  C_36
REMARK    8  A    between atoms: C_33  and  C_35
REMARK                            x       y       z     vdW  Elec       q    Type
REMARK                         _______ _______ _______ _____ _____    ______ ____
ROOT
ATOM      1  C   UNL     1      -0.736  -6.239   0.104  0.00  0.00    +0.250 C 
ATOM      2  O   UNL     1      -0.642  -7.022   1.029  0.00  0.00    -0.270 OA
ATOM      3  N   UNL     1      -0.683  -6.686  -1.166  0.00  0.00    -0.296 N 
ATOM      4  C   UNL     1      -0.667  -5.884  -2.412  0.00  0.00    +0.121 C 
ATOM      5  C   UNL     1       0.331  -6.617  -3.336  0.00  0.00    +0.100 C 
ATOM      6  C   UNL     1       0.351  -8.065  -2.821  0.00  0.00    -0.004 C 
ATOM      7  C   UNL     1      -0.621  -8.092  -1.632  0.00  0.00    +0.115 C 
ATOM      8  C   UNL     1       1.755  -8.441  -2.354  0.00  0.00    -0.010 C 
ATOM      9  C   UNL     1       1.763  -9.903  -1.900  0.00  0.00    -0.082 C 
ATOM     10  N   UNL     1       1.348 -10.765  -3.013  0.00  0.00    +0.379 N 
ATOM     11  C   UNL     1      -0.036 -10.460  -3.395  0.00  0.00    -0.082 C 
ATOM     12  C   UNL     1      -0.120  -9.021  -3.912  0.00  0.00    -0.010 C 
ATOM     13  H   UNL     1       1.956 -10.608  -3.804  0.00  0.00    -0.086 HD
ATOM     14  H   UNL     1       1.413 -11.732  -2.731  0.00  0.00    -0.086 HD
ENDROOT
BRANCH   1  19
ATOM     15  C   UNL     1      -1.413  -0.617   1.145  0.00  0.00    +0.047 C 
ATOM     16  C   UNL     1      -1.234  -2.089   0.874  0.00  0.00    -0.012 A 
ATOM     17  C   UNL     1      -1.848  -2.667  -0.224  0.00  0.00    +0.007 A 
ATOM     18  C   UNL     1      -1.690  -4.013  -0.479  0.00  0.00    +0.016 A 
ATOM     19  C   UNL     1      -0.908  -4.796   0.372  0.00  0.00    +0.075 A 
ATOM     20  C   UNL     1      -0.289  -4.209   1.480  0.00  0.00    +0.171 A 
ATOM     21  C   UNL     1      -0.452  -2.855   1.721  0.00  0.00    +0.162 A 
ATOM     22  F   UNL     1       0.149  -2.282   2.787  0.00  0.00    -0.202 F 
ATOM     23  F   UNL     1       0.470  -4.959   2.309  0.00  0.00    -0.202 F 
ENDBRANCH   1  19
BRANCH   5  24
ATOM     24  C   UNL     1      -0.146  -6.572  -4.764  0.00  0.00    +0.219 C 
ATOM     25  O   UNL     1      -1.332  -6.482  -5.005  0.00  0.00    -0.275 OA
ATOM     26  N   UNL     1       0.744  -6.632  -5.775  0.00  0.00    -0.309 N 
ATOM     27  H   UNL     1       1.692  -6.704  -5.582  0.00  0.00    +0.149 HD
BRANCH  26  28
ATOM     28  C   UNL     1       0.280  -6.589  -7.163  0.00  0.00    +0.100 C 
ATOM     29  C   UNL     1       0.008  -5.138  -7.565  0.00  0.00    +0.033 C 
BRANCH  28  30
ATOM     30  C   UNL     1       1.338  -7.170  -8.065  0.00  0.00    -0.001 C 
ATOM     31  C   UNL     1       1.223  -8.191  -8.917  0.00  0.00    +0.063 C 
ATOM     32  N   UNL     1       2.393  -8.421  -9.552  0.00  0.00    -0.159 NA
ATOM     33  N   UNL     1       3.310  -7.662  -9.228  0.00  0.00    -0.180 NA
ATOM     34  C   UNL     1       2.782  -6.725  -8.221  0.00  0.00    +0.154 C 
ATOM     35  C   UNL     1       3.539  -6.873  -6.899  0.00  0.00    +0.039 C 
ATOM     36  C   UNL     1      -0.041  -8.981  -9.140  0.00  0.00    +0.067 C 
ENDBRANCH  28  30
ENDBRANCH  26  28
ENDBRANCH   5  24
TORSDOF 4
