REMARK  Name = ZINC64227800
REMARK  4 active torsions:
REMARK  status: ('A' for Active; 'I' for Inactive)
REMARK    1  A    between atoms: C_8  and  C_30
REMARK    2  A    between atoms: N_19  and  C_23
REMARK    3  A    between atoms: C_23  and  C_24
REMARK    4  A    between atoms: C_34  and  N_36
REMARK                            x       y       z     vdW  Elec       q    Type
REMARK                         _______ _______ _______ _____ _____    ______ ____
ROOT
ATOM      1  C   UNL     1      -0.016   1.355   0.009  0.00  0.00    +0.001 A 
ATOM      2  C   UNL     1       1.141   2.140   0.003  0.00  0.00    +0.002 A 
ATOM      3  C   UNL     1       2.404   1.644  -0.012  0.00  0.00    +0.026 A 
ATOM      4  C   UNL     1       2.552   0.226  -0.023  0.00  0.00    +0.043 A 
ATOM      5  N   UNL     1       3.625  -0.506  -0.029  0.00  0.00    -0.375 N 
ATOM      6  C   UNL     1       3.230  -1.920  -0.073  0.00  0.00    +0.131 C 
ATOM      7  C   UNL     1       3.704  -2.647   1.185  0.00  0.00    +0.133 C 
ATOM      8  N   UNL     1       2.944  -3.866   1.425  0.00  0.00    -0.279 N 
ATOM      9  C   UNL     1       1.611  -4.179   0.955  0.00  0.00    +0.167 C 
ATOM     10  C   UNL     1       0.908  -3.179   0.076  0.00  0.00    +0.065 C 
ATOM     11  C   UNL     1       1.704  -1.908  -0.024  0.00  0.00    -0.034 C 
ATOM     12  C   UNL     1       1.332  -0.636  -0.014  0.00  0.00    -0.001 A 
ATOM     13  C   UNL     1       0.002  -0.004   0.002  0.00  0.00    +0.010 A 
ATOM     14  C   UNL     1       0.757  -4.629   2.114  0.00  0.00    +0.237 C 
ATOM     15  O   UNL     1      -0.362  -4.200   2.295  0.00  0.00    -0.274 OA
ATOM     16  N   UNL     1       1.328  -5.551   2.945  0.00  0.00    -0.289 N 
ATOM     17  C   UNL     1       2.679  -6.020   2.586  0.00  0.00    +0.203 C 
ATOM     18  C   UNL     1       3.525  -4.817   2.228  0.00  0.00    +0.234 C 
ATOM     19  O   UNL     1       4.663  -4.699   2.631  0.00  0.00    -0.274 OA
ATOM     20  H   UNL     1       4.536  -0.174  -0.008  0.00  0.00    +0.160 HD
ENDROOT
BRANCH   7  21
ATOM     21  C   UNL     1       5.160  -3.002   1.027  0.00  0.00    -0.023 A 
ATOM     22  C   UNL     1       5.525  -4.106   0.279  0.00  0.00    +0.005 A 
ATOM     23  C   UNL     1       6.860  -4.432   0.134  0.00  0.00    +0.003 A 
ATOM     24  C   UNL     1       7.831  -3.654   0.737  0.00  0.00    +0.033 A 
ATOM     25  C   UNL     1       7.466  -2.550   1.485  0.00  0.00    +0.127 A 
ATOM     26  C   UNL     1       6.130  -2.221   1.626  0.00  0.00    +0.038 A 
BRANCH  25  27
ATOM     27  N   UNL     1       8.505  -1.717   2.131  0.00  0.00    +0.056 N 
ATOM     28  O   UNL     1       9.673  -2.002   2.005  0.00  0.00    -0.126 OA
ATOM     29  O   UNL     1       8.185  -0.751   2.784  0.00  0.00    -0.126 OA
ENDBRANCH  25  27
ENDBRANCH   7  21
BRANCH  16  30
ATOM     30  C   UNL     1       0.631  -6.050   4.134  0.00  0.00    +0.140 C 
BRANCH  30  31
ATOM     31  C   UNL     1      -0.189  -7.287   3.763  0.00  0.00    +0.136 C 
ATOM     32  C   UNL     1      -1.020  -7.748   4.980  0.00  0.00    +0.035 C 
ATOM     33  C   UNL     1      -0.918  -9.294   4.882  0.00  0.00    +0.031 C 
ATOM     34  C   UNL     1       0.515  -9.459   4.317  0.00  0.00    +0.160 C 
ATOM     35  O   UNL     1       0.688  -8.361   3.404  0.00  0.00    -0.375 OA
ENDBRANCH  30  31
ENDBRANCH  16  30
TORSDOF 4
