REMARK  Name = ZINC49423149
REMARK  6 active torsions:
REMARK  status: ('A' for Active; 'I' for Inactive)
REMARK    1  A    between atoms: C_1  and  N_2
REMARK    2  A    between atoms: N_7  and  C_8
REMARK    3  A    between atoms: C_8  and  C_10
REMARK    4  A    between atoms: C_13  and  N_17
REMARK    5  A    between atoms: N_17  and  C_18
REMARK    6  A    between atoms: N_17  and  C_19
REMARK                            x       y       z     vdW  Elec       q    Type
REMARK                         _______ _______ _______ _____ _____    ______ ____
ROOT
ATOM      1  C   UNL     1       0.056  -0.557   4.832  0.00  0.00    +0.042 A 
ATOM      2  C   UNL     1       0.034   0.821   5.060  0.00  0.00    +0.015 A 
ATOM      3  C   UNL     1       0.039   1.305   6.349  0.00  0.00    +0.027 A 
ATOM      4  C   UNL     1       0.068   0.424   7.425  0.00  0.00    +0.065 A 
ATOM      5  C   UNL     1       0.090  -0.951   7.202  0.00  0.00    +0.145 A 
ATOM      6  C   UNL     1       0.078  -1.441   5.914  0.00  0.00    +0.053 A 
ATOM      7  F   UNL     1       0.118  -1.804   8.249  0.00  0.00    -0.204 F 
ENDROOT
BRANCH   4   8
ATOM      8  N   UNL     1       0.075   0.918   8.728  0.00  0.00    -0.334 N 
ATOM      9  C   UNL     1      -1.190   1.155   9.428  0.00  0.00    +0.129 C 
ATOM     10  C   UNL     1       1.347   1.200   9.398  0.00  0.00    +0.129 C 
ENDBRANCH   4   8
BRANCH   1  11
ATOM     11  C   UNL     1       0.050  -1.079   3.449  0.00  0.00    +0.270 C 
ATOM     12  O   UNL     1       0.064  -2.283   3.251  0.00  0.00    -0.268 OA
BRANCH  11  19
ATOM     13  C   UNL     1      -0.018   1.461   0.010  0.00  0.00    +0.150 C 
ATOM     14  N   UNL     1       0.002  -0.004   0.002  0.00  0.00    -0.331 N 
ATOM     15  C   UNL     1       0.006  -0.690  -1.173  0.00  0.00    +0.094 A 
ATOM     16  C   UNL     1       0.025  -2.026  -1.103  0.00  0.00    +0.066 A 
ATOM     17  S   UNL     1       0.037  -2.305   0.658  0.00  0.00    -0.061 S 
ATOM     18  C   UNL     1       0.023  -0.703   1.170  0.00  0.00    +0.165 A 
ATOM     19  N   UNL     1       0.028  -0.233   2.416  0.00  0.00    -0.152 NA
ENDBRANCH  11  19
ENDBRANCH   1  11
TORSDOF 3
