REMARK  Name = ZINC59458989
REMARK  7 active torsions:
REMARK  status: ('A' for Active; 'I' for Inactive)
REMARK    1  A    between atoms: C_1  and  C_2
REMARK    2  A    between atoms: C_2  and  N_3
REMARK    3  A    between atoms: N_3  and  C_4
REMARK    4  A    between atoms: N_3  and  C_6
REMARK    5  A    between atoms: C_4  and  C_5
REMARK    6  A    between atoms: C_9  and  C_12
REMARK    7  A    between atoms: N_13  and  C_14
REMARK                            x       y       z     vdW  Elec       q    Type
REMARK                         _______ _______ _______ _____ _____    ______ ____
ROOT
ATOM      1  C   UNL     1      -2.207  -0.199   1.288  0.00  0.00    +0.030 A 
ATOM      2  C   UNL     1      -1.453  -0.220   2.457  0.00  0.00    +0.024 A 
ATOM      3  C   UNL     1      -2.014  -0.663   3.633  0.00  0.00    +0.011 A 
ATOM      4  C   UNL     1      -3.346  -1.093   3.651  0.00  0.00    -0.007 A 
ATOM      5  C   UNL     1      -4.101  -1.070   2.473  0.00  0.00    +0.011 A 
ATOM      6  C   UNL     1      -3.534  -0.621   1.303  0.00  0.00    +0.024 A 
ENDROOT
BRANCH   4   7
ATOM      7  C   UNL     1      -3.949  -1.568   4.905  0.00  0.00    +0.119 C 
ATOM      8  N   UNL     1      -5.190  -1.968   4.921  0.00  0.00    -0.254 NA
BRANCH   8   9
ATOM      9  C   UNL     1      -5.785  -2.309   6.105  0.00  0.00    +0.082 A 
ATOM     10  C   UNL     1      -5.676  -1.464   7.213  0.00  0.00    +0.029 A 
ATOM     11  C   UNL     1      -6.278  -1.814   8.404  0.00  0.00    +0.002 A 
ATOM     12  C   UNL     1      -6.988  -2.998   8.504  0.00  0.00    +0.002 A 
ATOM     13  C   UNL     1      -7.099  -3.840   7.412  0.00  0.00    +0.022 A 
ATOM     14  C   UNL     1      -6.507  -3.500   6.212  0.00  0.00    +0.066 A 
ATOM     15 CL   UNL     1      -6.655  -4.554   4.840  0.00  0.00    -0.081 Cl
ENDBRANCH   8   9
ENDBRANCH   4   7
BRANCH   1  16
ATOM     16  N   UNL     1      -1.636   0.250   0.100  0.00  0.00    -0.330 N 
BRANCH  16  18
ATOM     17  C   UNL     1      -0.178   2.194   0.380  0.00  0.00    +0.024 C 
ATOM     18  C   UNL     1      -0.240   0.695   0.082  0.00  0.00    +0.102 C 
ENDBRANCH  16  18
BRANCH  16  19
ATOM     19  C   UNL     1      -2.430   0.279  -1.130  0.00  0.00    +0.102 C 
ATOM     20  C   UNL     1      -2.282  -1.056  -1.863  0.00  0.00    +0.024 C 
ENDBRANCH  16  19
ENDBRANCH   1  16
TORSDOF 5
