REMARK  Name = ZINC55332866
REMARK  4 active torsions:
REMARK  status: ('A' for Active; 'I' for Inactive)
REMARK    1  A    between atoms: C_1  and  C_2
REMARK    2  A    between atoms: C_5  and  C_8
REMARK    3  A    between atoms: C_9  and  C_14
REMARK    4  A    between atoms: C_12  and  N_13
REMARK                            x       y       z     vdW  Elec       q    Type
REMARK                         _______ _______ _______ _____ _____    ______ ____
ROOT
ATOM      1  C   UNL     1       0.018  -4.257  -0.091  0.00  0.00    +0.071 A 
ATOM      2  C   UNL     1      -0.947  -5.145   0.561  0.00  0.00    +0.123 A 
ATOM      3  N   UNL     1      -0.514  -6.373   0.397  0.00  0.00    -0.075 NA
ATOM      4  O   UNL     1       0.695  -6.338  -0.335  0.00  0.00    -0.339 OA
ATOM      5  C   UNL     1       1.001  -5.065  -0.627  0.00  0.00    +0.224 A 
ENDROOT
BRANCH   1  10
ATOM      6  C   UNL     1      -0.252   1.487  -0.385  0.00  0.00    +0.044 C 
ATOM      7  C   UNL     1      -0.181  -0.017  -0.308  0.00  0.00    -0.050 A 
ATOM      8  C   UNL     1      -0.310  -0.772  -1.460  0.00  0.00    +0.004 A 
ATOM      9  C   UNL     1      -0.246  -2.149  -1.396  0.00  0.00    +0.009 A 
ATOM     10  C   UNL     1      -0.051  -2.779  -0.167  0.00  0.00    -0.011 A 
ATOM     11  C   UNL     1       0.078  -2.012   0.991  0.00  0.00    +0.009 A 
ATOM     12  C   UNL     1       0.018  -0.635   0.913  0.00  0.00    +0.004 A 
ENDBRANCH   1  10
BRANCH   2  13
ATOM     13  C   UNL     1      -2.181  -4.734   1.274  0.00  0.00    +0.004 A 
ATOM     14  C   UNL     1      -2.988  -3.726   0.749  0.00  0.00    +0.011 A 
ATOM     15  C   UNL     1      -4.136  -3.348   1.416  0.00  0.00    +0.016 A 
ATOM     16  C   UNL     1      -4.485  -3.967   2.603  0.00  0.00    +0.018 A 
ATOM     17  C   UNL     1      -3.687  -4.968   3.129  0.00  0.00    +0.016 A 
ATOM     18  C   UNL     1      -2.540  -5.358   2.467  0.00  0.00    +0.011 A 
ATOM     19 BR   UNL     1      -6.059  -3.443   3.511  0.00  0.00    -0.050 Br
ENDBRANCH   2  13
BRANCH   5  20
ATOM     20  N   UNL     1       2.106  -4.638  -1.335  0.00  0.00    -0.327 N 
ATOM     21  H   UNL     1       2.244  -3.691  -1.494  0.00  0.00    +0.145 HD
ATOM     22  H   UNL     1       2.744  -5.285  -1.673  0.00  0.00    +0.145 HD
ENDBRANCH   5  20
TORSDOF 3
