REMARK  Name = ZINC63839298
REMARK  12 active torsions:
REMARK  status: ('A' for Active; 'I' for Inactive)
REMARK    1  A    between atoms: C_1  and  C_2
REMARK    2  A    between atoms: C_2  and  O_3
REMARK    3  A    between atoms: O_3  and  C_4
REMARK    4  A    between atoms: C_4  and  C_5
REMARK    5  A    between atoms: C_5  and  C_6
REMARK    6  A    between atoms: C_6  and  N_7
REMARK    7  A    between atoms: N_10  and  N_11
REMARK    8  A    between atoms: C_12  and  C_14
REMARK    9  A    between atoms: C_14  and  C_15
REMARK   10  A    between atoms: C_14  and  N_18
REMARK   11  A    between atoms: C_15  and  C_16
REMARK   12  A    between atoms: C_15  and  C_17
REMARK                            x       y       z     vdW  Elec       q    Type
REMARK                         _______ _______ _______ _____ _____    ______ ____
ROOT
ATOM      1  N   UNL     1      -7.064  -4.695  -0.320  0.00  0.00    -0.232 N 
ATOM      2  C   UNL     1      -8.290  -5.179  -0.036  0.00  0.00    +0.250 C 
ATOM      3  O   UNL     1      -8.462  -6.377   0.055  0.00  0.00    -0.272 OA
ATOM      4  H   UNL     1      -6.940  -3.744  -0.461  0.00  0.00    +0.173 HD
ENDROOT
BRANCH   1   8
ATOM      5  N   UNL     1      -4.573  -3.759  -0.893  0.00  0.00    -0.298 N 
ATOM      6  C   UNL     1      -4.746  -5.082  -0.697  0.00  0.00    +0.316 C 
ATOM      7  O   UNL     1      -3.797  -5.838  -0.778  0.00  0.00    -0.251 OA
ATOM      8  N   UNL     1      -5.971  -5.566  -0.413  0.00  0.00    -0.218 N 
ATOM      9  H   UNL     1      -5.330  -3.156  -0.829  0.00  0.00    +0.150 HD
ATOM     10  H   UNL     1      -6.096  -6.518  -0.272  0.00  0.00    +0.174 HD
BRANCH   5  11
ATOM     11  C   UNL     1      -3.241  -3.233  -1.202  0.00  0.00    +0.108 C 
BRANCH  11  12
ATOM     12  C   UNL     1      -3.321  -1.715  -1.376  0.00  0.00    +0.047 C 
BRANCH  12  13
ATOM     13  C   UNL     1      -1.930  -1.165  -1.699  0.00  0.00    +0.161 C 
BRANCH  13  14
ATOM     14  O   UNL     1      -2.004   0.253  -1.861  0.00  0.00    -0.380 OA
BRANCH  14  16
ATOM     15  C   UNL     1      -0.949   2.379  -2.317  0.00  0.00    +0.034 C 
ATOM     16  C   UNL     1      -0.751   0.869  -2.167  0.00  0.00    +0.156 C 
ENDBRANCH  14  16
ENDBRANCH  13  14
ENDBRANCH  12  13
ENDBRANCH  11  12
ENDBRANCH   5  11
ENDBRANCH   1   8
BRANCH   2  17
ATOM     17  C   UNL     1      -9.445  -4.234   0.169  0.00  0.00    +0.164 C 
BRANCH  17  18
ATOM     18  N   UNL     1     -10.699  -4.917  -0.159  0.00  0.00    -0.288 N 
ATOM     19  C   UNL     1     -11.775  -4.202  -0.541  0.00  0.00    +0.298 C 
ATOM     20  O   UNL     1     -11.706  -2.990  -0.615  0.00  0.00    -0.253 OA
ATOM     21  N   UNL     1     -12.929  -4.830  -0.843  0.00  0.00    -0.313 N 
ATOM     22  H   UNL     1     -10.754  -5.883  -0.100  0.00  0.00    +0.151 HD
ATOM     23  H   UNL     1     -12.985  -5.797  -0.784  0.00  0.00    +0.146 HD
ATOM     24  H   UNL     1     -13.704  -4.316  -1.118  0.00  0.00    +0.146 HD
ENDBRANCH  17  18
BRANCH  17  25
ATOM     25  C   UNL     1      -9.479  -3.778   1.629  0.00  0.00    +0.012 C 
ATOM     26  C   UNL     1      -9.519  -5.003   2.545  0.00  0.00    +0.009 C 
ATOM     27  C   UNL     1      -8.227  -2.954   1.935  0.00  0.00    +0.009 C 
ENDBRANCH  17  25
ENDBRANCH   2  17
TORSDOF 9
