REMARK  Name = ZINC66196907
REMARK  9 active torsions:
REMARK  status: ('A' for Active; 'I' for Inactive)
REMARK    1  A    between atoms: C_1  and  C_2
REMARK    2  A    between atoms: C_2  and  C_3
REMARK    3  A    between atoms: C_3  and  C_5
REMARK    4  A    between atoms: C_3  and  N_6
REMARK    5  A    between atoms: N_6  and  C_7
REMARK    6  A    between atoms: N_6  and  C_8
REMARK    7  A    between atoms: C_8  and  C_9
REMARK    8  A    between atoms: C_9  and  N_10
REMARK    9  A    between atoms: N_13  and  C_14
REMARK                            x       y       z     vdW  Elec       q    Type
REMARK                         _______ _______ _______ _____ _____    ______ ____
ROOT
ATOM      1  N   UNL     1      -1.117   2.962  -4.229  0.00  0.00    -0.301 N 
ATOM      2  C   UNL     1      -1.831   3.450  -5.263  0.00  0.00    +0.304 C 
ATOM      3  O   UNL     1      -2.470   2.696  -5.971  0.00  0.00    -0.253 OA
ATOM      4  N   UNL     1      -1.835   4.775  -5.512  0.00  0.00    -0.268 N 
ATOM      5  H   UNL     1      -0.607   3.563  -3.664  0.00  0.00    +0.150 HD
ATOM      6  H   UNL     1      -1.269   5.368  -4.994  0.00  0.00    +0.156 HD
ENDROOT
BRANCH   4   7
ATOM      7  C   UNL     1      -2.659   5.295  -6.520  0.00  0.00    +0.052 A 
ATOM      8  C   UNL     1      -3.885   4.704  -6.789  0.00  0.00    +0.073 A 
ATOM      9  C   UNL     1      -4.700   5.219  -7.785  0.00  0.00    +0.164 A 
ATOM     10  C   UNL     1      -4.288   6.329  -8.513  0.00  0.00    +0.163 A 
ATOM     11  C   UNL     1      -3.061   6.917  -8.243  0.00  0.00    +0.066 A 
ATOM     12  C   UNL     1      -2.251   6.406  -7.246  0.00  0.00    +0.043 A 
ATOM     13 BR   UNL     1      -0.583   7.216  -6.876  0.00  0.00    -0.048 Br
ATOM     14  O   UNL     1      -5.078   6.854  -9.490  0.00  0.00    -0.485 OA
ATOM     15  C   UNL     1      -6.130   6.018  -9.986  0.00  0.00    +0.270 C 
ATOM     16  C   UNL     1      -6.851   5.391  -8.785  0.00  0.00    +0.270 C 
ATOM     17  O   UNL     1      -5.898   4.625  -8.040  0.00  0.00    -0.485 OA
ENDBRANCH   4   7
BRANCH   1  18
ATOM     18  C   UNL     1      -1.112   1.522  -3.958  0.00  0.00    +0.087 C 
BRANCH  18  19
ATOM     19  C   UNL     1      -0.232   1.236  -2.740  0.00  0.00    -0.060 C 
BRANCH  19  20
ATOM     20  N   UNL     1      -0.226  -0.208  -2.468  0.00  0.00    +0.381 N 
ATOM     21  C   UNL     1       0.457  -0.910  -3.563  0.00  0.00    -0.096 C 
ATOM     22  H   UNL     1      -1.177  -0.540  -2.397  0.00  0.00    -0.082 HD
BRANCH  20  23
ATOM     23  C   UNL     1       0.478  -0.466  -1.205  0.00  0.00    -0.072 C 
ATOM     24  C   UNL     1       1.917   0.043  -1.311  0.00  0.00    -0.013 C 
BRANCH  23  26
ATOM     25  C   UNL     1      -0.948  -2.467  -0.753  0.00  0.00    +0.002 C 
ATOM     26  C   UNL     1       0.489  -1.970  -0.925  0.00  0.00    -0.019 C 
ENDBRANCH  23  26
ENDBRANCH  20  23
ENDBRANCH  19  20
ENDBRANCH  18  19
ENDBRANCH   1  18
TORSDOF 6
