REMARK  Name = ZINC39637288
REMARK  6 active torsions:
REMARK  status: ('A' for Active; 'I' for Inactive)
REMARK    1  A    between atoms: C_1  and  C_2
REMARK    2  A    between atoms: C_7  and  N_12
REMARK    3  A    between atoms: C_9  and  C_11
REMARK    4  A    between atoms: C_13  and  C_15
REMARK    5  A    between atoms: C_26  and  C_28
REMARK    6  A    between atoms: C_28  and  C_34
REMARK                            x       y       z     vdW  Elec       q    Type
REMARK                         _______ _______ _______ _____ _____    ______ ____
ROOT
ATOM      1  C   UNL     1       1.925  -4.254   4.155  0.00  0.00    +0.100 C 
ATOM      2  C   UNL     1       3.420  -4.473   3.827  0.00  0.00    +0.121 C 
ATOM      3  N   UNL     1       3.793  -5.695   4.577  0.00  0.00    -0.300 N 
ATOM      4  C   UNL     1       2.616  -6.587   4.437  0.00  0.00    +0.115 C 
ATOM      5  C   UNL     1       1.402  -5.644   4.554  0.00  0.00    -0.004 C 
ATOM      6  C   UNL     1       0.297  -6.087   3.599  0.00  0.00    -0.010 C 
ATOM      7  C   UNL     1      -0.248  -7.445   4.050  0.00  0.00    -0.082 C 
ATOM      8  N   UNL     1      -0.771  -7.334   5.418  0.00  0.00    +0.379 N 
ATOM      9  C   UNL     1       0.317  -6.999   6.344  0.00  0.00    -0.082 C 
ATOM     10  C   UNL     1       0.886  -5.622   5.990  0.00  0.00    -0.010 C 
ATOM     11  C   UNL     1       4.942  -5.941   5.236  0.00  0.00    +0.222 C 
ATOM     12  O   UNL     1       5.133  -7.030   5.736  0.00  0.00    -0.275 OA
ATOM     13  H   UNL     1      -1.473  -6.611   5.450  0.00  0.00    -0.086 HD
ATOM     14  H   UNL     1      -1.184  -8.213   5.690  0.00  0.00    -0.086 HD
ENDROOT
BRANCH  11  15
ATOM     15  C   UNL     1       5.989  -4.864   5.353  0.00  0.00    +0.044 C 
ATOM     16  C   UNL     1       6.364  -4.364   3.957  0.00  0.00    +0.016 C 
ATOM     17  C   UNL     1       6.918  -5.527   3.130  0.00  0.00    +0.001 C 
ATOM     18  C   UNL     1       8.160  -6.096   3.819  0.00  0.00    +0.000 C 
ATOM     19  C   UNL     1       7.785  -6.596   5.215  0.00  0.00    +0.001 C 
ATOM     20  C   UNL     1       7.231  -5.433   6.042  0.00  0.00    +0.016 C 
ATOM     21  C   UNL     1       5.436  -3.702   6.180  0.00  0.00    +0.021 C 
ENDBRANCH  11  15
BRANCH   1  23
ATOM     22  N   UNL     1       0.015  -3.102   3.086  0.00  0.00    -0.312 N 
ATOM     23  C   UNL     1       1.191  -3.745   2.942  0.00  0.00    +0.218 C 
ATOM     24  O   UNL     1       1.658  -3.914   1.835  0.00  0.00    -0.275 OA
ATOM     25  H   UNL     1      -0.358  -2.967   3.971  0.00  0.00    +0.149 HD
BRANCH  22  31
ATOM     26  C   UNL     1      -4.431  -1.877   1.305  0.00  0.00    +0.008 C 
ATOM     27  C   UNL     1      -2.938  -1.984   0.990  0.00  0.00    -0.009 C 
ATOM     28  C   UNL     1      -2.397  -0.604   0.608  0.00  0.00    +0.003 C 
ATOM     29  C   UNL     1      -0.904  -0.711   0.293  0.00  0.00    +0.002 C 
ATOM     30  C   UNL     1      -0.158  -1.228   1.525  0.00  0.00    +0.022 C 
ATOM     31  C   UNL     1      -0.699  -2.607   1.907  0.00  0.00    +0.076 C 
ATOM     32  C   UNL     1      -2.192  -2.501   2.222  0.00  0.00    +0.009 C 
ATOM     33  C   UNL     1      -2.732  -3.881   2.603  0.00  0.00    +0.009 C 
ENDBRANCH  22  31
ENDBRANCH   1  23
TORSDOF 3
