REMARK  Name = ZINC39667288
REMARK  6 active torsions:
REMARK  status: ('A' for Active; 'I' for Inactive)
REMARK    1  A    between atoms: C_1  and  S_2
REMARK    2  A    between atoms: S_2  and  C_3
REMARK    3  A    between atoms: C_6  and  C_9
REMARK    4  A    between atoms: C_9  and  N_10
REMARK    5  A    between atoms: C_11  and  C_13
REMARK    6  A    between atoms: C_24  and  C_26
REMARK                            x       y       z     vdW  Elec       q    Type
REMARK                         _______ _______ _______ _____ _____    ______ ____
ROOT
ATOM      1  C   UNL     1      -8.261  -1.564  -2.604  0.00  0.00    +0.100 C 
ATOM      2  C   UNL     1      -8.177  -0.370  -3.583  0.00  0.00    +0.121 C 
ATOM      3  N   UNL     1      -9.388  -0.493  -4.428  0.00  0.00    -0.296 N 
ATOM      4  C   UNL     1     -10.452  -0.920  -3.487  0.00  0.00    +0.115 C 
ATOM      5  C   UNL     1      -9.755  -1.921  -2.544  0.00  0.00    -0.004 C 
ATOM      6  C   UNL     1      -9.977  -3.349  -3.033  0.00  0.00    -0.010 C 
ATOM      7  C   UNL     1     -11.463  -3.700  -2.911  0.00  0.00    -0.082 C 
ATOM      8  N   UNL     1     -11.884  -3.570  -1.511  0.00  0.00    +0.379 N 
ATOM      9  C   UNL     1     -11.755  -2.174  -1.076  0.00  0.00    -0.082 C 
ATOM     10  C   UNL     1     -10.281  -1.758  -1.122  0.00  0.00    -0.010 C 
ATOM     11  C   UNL     1      -9.498  -0.268  -5.752  0.00  0.00    +0.247 C 
ATOM     12  O   UNL     1      -8.503  -0.046  -6.415  0.00  0.00    -0.270 OA
ATOM     13  H   UNL     1     -12.847  -3.860  -1.422  0.00  0.00    -0.086 HD
ATOM     14  H   UNL     1     -11.304  -4.156  -0.930  0.00  0.00    -0.086 HD
ENDROOT
BRANCH  11  15
ATOM     15  C   UNL     1     -10.827  -0.291  -6.398  0.00  0.00    +0.037 A 
ATOM     16  C   UNL     1     -11.981  -0.112  -5.633  0.00  0.00    +0.014 A 
ATOM     17  C   UNL     1     -13.218  -0.134  -6.242  0.00  0.00    +0.016 A 
ATOM     18  C   UNL     1     -13.317  -0.334  -7.609  0.00  0.00    +0.018 A 
ATOM     19  C   UNL     1     -12.176  -0.512  -8.373  0.00  0.00    +0.016 A 
ATOM     20  C   UNL     1     -10.933  -0.486  -7.776  0.00  0.00    +0.014 A 
ATOM     21 BR   UNL     1     -15.018  -0.364  -8.435  0.00  0.00    -0.050 Br
ENDBRANCH  11  15
BRANCH   1  23
ATOM     22  N   UNL     1      -7.182  -2.074  -0.438  0.00  0.00    -0.311 N 
ATOM     23  C   UNL     1      -7.763  -1.160  -1.241  0.00  0.00    +0.218 C 
ATOM     24  O   UNL     1      -7.884  -0.013  -0.866  0.00  0.00    -0.275 OA
ATOM     25  H   UNL     1      -7.084  -2.991  -0.738  0.00  0.00    +0.149 HD
BRANCH  22  26
ATOM     26  C   UNL     1      -6.697  -1.681   0.888  0.00  0.00    +0.139 C 
BRANCH  26  30
ATOM     27  C   UNL     1      -4.990  -5.077   2.843  0.00  0.00    +0.008 A 
ATOM     28  C   UNL     1      -4.195  -4.255   2.053  0.00  0.00    +0.015 A 
ATOM     29  C   UNL     1      -4.750  -3.159   1.423  0.00  0.00    +0.006 A 
ATOM     30  C   UNL     1      -6.095  -2.879   1.577  0.00  0.00    -0.030 A 
ATOM     31  C   UNL     1      -6.889  -3.694   2.363  0.00  0.00    +0.006 A 
ATOM     32  C   UNL     1      -6.342  -4.795   2.991  0.00  0.00    +0.015 A 
BRANCH  27  34
ATOM     33  C   UNL     1      -2.538  -6.428   3.166  0.00  0.00    +0.090 C 
ATOM     34  S   UNL     1      -4.286  -6.477   3.649  0.00  0.00    -0.129 S 
ENDBRANCH  27  34
ENDBRANCH  26  30
ENDBRANCH  22  26
ENDBRANCH   1  23
TORSDOF 5
