REMARK  Name = ZINC03840177
REMARK  12 active torsions:
REMARK  status: ('A' for Active; 'I' for Inactive)
REMARK    1  A    between atoms: C_1  and  C_2
REMARK    2  A    between atoms: C_2  and  C_3
REMARK    3  A    between atoms: C_2  and  C_4
REMARK    4  A    between atoms: C_4  and  C_5
REMARK    5  A    between atoms: C_5  and  C_7
REMARK    6  A    between atoms: C_5  and  N_10
REMARK    7  A    between atoms: C_11  and  C_13
REMARK    8  A    between atoms: C_13  and  O_34
REMARK    9  A    between atoms: C_15  and  N_24
REMARK   10  A    between atoms: C_17  and  O_23
REMARK   11  A    between atoms: C_19  and  O_22
REMARK   12  A    between atoms: N_27  and  C_28
REMARK                            x       y       z     vdW  Elec       q    Type
REMARK                         _______ _______ _______ _____ _____    ______ ____
ROOT
ATOM      1  C   UNL     1      -6.045   1.508  -0.571  0.00  0.00    +0.146 C 
ATOM      2  C   UNL     1      -4.710   0.761  -0.581  0.00  0.00    +0.069 C 
ATOM      3  C   UNL     1      -3.624   1.649   0.028  0.00  0.00    +0.109 C 
ATOM      4  C   UNL     1      -4.001   2.000   1.469  0.00  0.00    +0.163 C 
ATOM      5  C   UNL     1      -5.336   2.747   1.479  0.00  0.00    +0.148 C 
ATOM      6  C   UNL     1      -6.422   1.858   0.870  0.00  0.00    +0.078 C 
ENDROOT
BRANCH   3   7
ATOM      7  N   UNL     1      -2.345   0.934   0.018  0.00  0.00    -0.294 N 
ATOM      8  C   UNL     1      -1.187   1.624   0.017  0.00  0.00    +0.300 C 
ATOM      9  O   UNL     1      -1.204   2.840   0.023  0.00  0.00    -0.253 OA
ATOM     10  N   UNL     1      -0.011   0.966   0.007  0.00  0.00    -0.297 N 
ATOM     11  H   UNL     1      -2.332  -0.036   0.013  0.00  0.00    +0.151 HD
ATOM     12  H   UNL     1       0.002  -0.004   0.002  0.00  0.00    +0.151 HD
BRANCH  10  13
ATOM     13  C   UNL     1       1.248   1.716  -0.001  0.00  0.00    +0.074 C 
ATOM     14  C   UNL     1       1.608   2.092  -1.439  0.00  0.00    +0.022 C 
ATOM     15  C   UNL     1       2.922   2.875  -1.448  0.00  0.00    +0.002 C 
ATOM     16  C   UNL     1       4.035   2.010  -0.853  0.00  0.00    +0.000 C 
ATOM     17  C   UNL     1       3.675   1.633   0.585  0.00  0.00    +0.002 C 
ATOM     18  C   UNL     1       2.361   0.850   0.594  0.00  0.00    +0.022 C 
ENDBRANCH  10  13
ENDBRANCH   3   7
BRANCH   1  20
ATOM     19  N   UNL     1      -8.208   1.190  -1.729  0.00  0.00    -0.302 N 
ATOM     20  C   UNL     1      -7.115   0.632  -1.171  0.00  0.00    +0.245 C 
ATOM     21  O   UNL     1      -6.993  -0.574  -1.151  0.00  0.00    -0.273 OA
ATOM     22  H   UNL     1      -8.305   2.155  -1.745  0.00  0.00    +0.150 HD
BRANCH  19  23
ATOM     23  C   UNL     1      -9.248   0.339  -2.313  0.00  0.00    +0.159 C 
BRANCH  23  24
ATOM     24  C   UNL     1     -10.202  -0.100  -1.232  0.00  0.00    +0.231 C 
ATOM     25  O   UNL     1     -10.030   0.262  -0.087  0.00  0.00    -0.274 OA
ATOM     26  N   UNL     1     -11.246  -0.895  -1.538  0.00  0.00    -0.328 N 
ATOM     27  H   UNL     1     -11.384  -1.185  -2.453  0.00  0.00    +0.145 HD
ATOM     28  H   UNL     1     -11.860  -1.178  -0.842  0.00  0.00    +0.145 HD
ENDBRANCH  23  24
BRANCH  23  29
ATOM     29  C   UNL     1     -10.012   1.127  -3.379  0.00  0.00    +0.034 C 
BRANCH  29  31
ATOM     30  C   UNL     1      -8.626   0.174  -5.227  0.00  0.00    +0.007 C 
ATOM     31  C   UNL     1      -9.070   1.465  -4.536  0.00  0.00    -0.015 C 
ATOM     32  C   UNL     1      -9.799   2.358  -5.543  0.00  0.00    +0.007 C 
ENDBRANCH  29  31
ENDBRANCH  23  29
ENDBRANCH  19  23
ENDBRANCH   1  20
BRANCH   5  33
ATOM     33  O   UNL     1      -5.688   3.075   2.825  0.00  0.00    -0.389 OA
ATOM     34  H   UNL     1      -6.526   3.551   2.908  0.00  0.00    +0.210 HD
ENDBRANCH   5  33
BRANCH   4  35
ATOM     35  O   UNL     1      -2.986   2.830   2.038  0.00  0.00    -0.387 OA
ATOM     36  H   UNL     1      -3.159   3.092   2.953  0.00  0.00    +0.210 HD
ENDBRANCH   4  35
BRANCH   1  37
ATOM     37  O   UNL     1      -5.926   2.707  -1.338  0.00  0.00    -0.379 OA
ATOM     38  H   UNL     1      -6.737   3.233  -1.375  0.00  0.00    +0.211 HD
ENDBRANCH   1  37
TORSDOF 10
