REMARK  Name = ZINC22845151
REMARK  9 active torsions:
REMARK  status: ('A' for Active; 'I' for Inactive)
REMARK    1  A    between atoms: C_1  and  C_2
REMARK    2  A    between atoms: C_4  and  C_22
REMARK    3  A    between atoms: C_7  and  N_8
REMARK    4  A    between atoms: C_9  and  C_11
REMARK    5  A    between atoms: C_17  and  C_19
REMARK    6  A    between atoms: C_25  and  N_29
REMARK    7  A    between atoms: C_26  and  C_28
REMARK    8  A    between atoms: C_30  and  C_32
REMARK    9  A    between atoms: C_38  and  C_40
REMARK                            x       y       z     vdW  Elec       q    Type
REMARK                         _______ _______ _______ _____ _____    ______ ____
ROOT
ATOM      1  C   UNL     1       0.205   1.687   0.264  0.00  0.00    +0.045 C 
ATOM      2  C   UNL     1       0.155   0.180   0.244  0.00  0.00    -0.029 A 
ATOM      3  C   UNL     1       0.166  -0.493  -0.959  0.00  0.00    +0.013 A 
ATOM      4  C   UNL     1       0.121  -1.886  -0.977  0.00  0.00    -0.018 A 
ATOM      5  C   UNL     1       0.064  -2.595   0.222  0.00  0.00    +0.010 A 
ATOM      6  C   UNL     1       0.054  -1.917   1.423  0.00  0.00    +0.024 A 
ATOM      7  C   UNL     1       0.105  -0.528   1.438  0.00  0.00    +0.036 A 
ENDROOT
BRANCH   4   8
ATOM      8  C   UNL     1       0.132  -2.614  -2.270  0.00  0.00    -0.018 A 
ATOM      9  C   UNL     1       0.193  -1.905  -3.469  0.00  0.00    +0.010 A 
ATOM     10  C   UNL     1       0.203  -2.583  -4.669  0.00  0.00    +0.024 A 
ATOM     11  C   UNL     1       0.152  -3.972  -4.684  0.00  0.00    +0.036 A 
ATOM     12  C   UNL     1       0.090  -4.680  -3.491  0.00  0.00    -0.029 A 
ATOM     13  C   UNL     1       0.086  -4.006  -2.288  0.00  0.00    +0.013 A 
ATOM     14  C   UNL     1       0.034  -6.186  -3.511  0.00  0.00    +0.045 C 
BRANCH  11  15
ATOM     15  N   UNL     1       0.163  -4.657  -5.903  0.00  0.00    -0.285 N 
ATOM     16  C   UNL     1      -0.273  -4.047  -7.023  0.00  0.00    +0.221 C 
ATOM     17  O   UNL     1      -0.767  -2.942  -6.959  0.00  0.00    -0.275 OA
ATOM     18  H   UNL     1       0.483  -5.572  -5.943  0.00  0.00    +0.155 HD
BRANCH  16  19
ATOM     19  C   UNL     1      -0.146  -4.739  -8.356  0.00  0.00    +0.089 C 
ATOM     20  C   UNL     1      -0.927  -6.054  -8.324  0.00  0.00    +0.013 C 
ATOM     21  C   UNL     1      -0.798  -6.757  -9.678  0.00  0.00    +0.001 C 
ATOM     22  C   UNL     1      -1.364  -5.855 -10.776  0.00  0.00    +0.001 C 
ATOM     23  C   UNL     1      -0.583  -4.539 -10.808  0.00  0.00    +0.015 C 
ATOM     24  C   UNL     1      -0.712  -3.837  -9.455  0.00  0.00    +0.114 C 
BRANCH  24  25
ATOM     25  C   UNL     1       0.057  -2.541  -9.486  0.00  0.00    +0.360 C 
ATOM     26  O   UNL     1       0.183  -1.932 -10.535  0.00  0.00    -0.246 OA
ATOM     27  O   UNL     1       0.552  -2.101  -8.463  0.00  0.00    -0.246 OA
ENDBRANCH  24  25
ENDBRANCH  16  19
ENDBRANCH  11  15
ENDBRANCH   4   8
BRANCH   7  28
ATOM     28  N   UNL     1       0.100   0.157   2.657  0.00  0.00    -0.285 N 
ATOM     29  C   UNL     1      -0.612  -0.322   3.696  0.00  0.00    +0.221 C 
ATOM     30  O   UNL     1      -1.178  -1.390   3.603  0.00  0.00    -0.275 OA
ATOM     31  H   UNL     1       0.609   0.977   2.754  0.00  0.00    +0.155 HD
BRANCH  29  32
ATOM     32  C   UNL     1      -0.704   0.471   4.975  0.00  0.00    +0.089 C 
ATOM     33  C   UNL     1       0.698   0.675   5.551  0.00  0.00    +0.013 C 
ATOM     34  C   UNL     1       1.335  -0.686   5.839  0.00  0.00    +0.001 C 
ATOM     35  C   UNL     1       0.475  -1.447   6.850  0.00  0.00    +0.001 C 
ATOM     36  C   UNL     1      -0.928  -1.652   6.274  0.00  0.00    +0.015 C 
ATOM     37  C   UNL     1      -1.564  -0.291   5.986  0.00  0.00    +0.114 C 
BRANCH  37  38
ATOM     38  C   UNL     1      -2.946  -0.492   5.419  0.00  0.00    +0.360 C 
ATOM     39  O   UNL     1      -3.599  -1.471   5.738  0.00  0.00    -0.246 OA
ATOM     40  O   UNL     1      -3.410   0.323   4.640  0.00  0.00    -0.246 OA
ENDBRANCH  37  38
ENDBRANCH  29  32
ENDBRANCH   7  28
TORSDOF 7
