REMARK  Name = ZINC56098218
REMARK  11 active torsions:
REMARK  status: ('A' for Active; 'I' for Inactive)
REMARK    1  A    between atoms: C_1  and  C_2
REMARK    2  A    between atoms: C_2  and  C_3
REMARK    3  A    between atoms: C_2  and  C_4
REMARK    4  A    between atoms: C_2  and  N_24
REMARK    5  A    between atoms: N_6  and  C_7
REMARK    6  A    between atoms: C_7  and  C_8
REMARK    7  A    between atoms: C_8  and  C_10
REMARK    8  A    between atoms: C_8  and  N_18
REMARK    9  A    between atoms: C_15  and  O_16
REMARK   10  A    between atoms: O_16  and  C_17
REMARK   11  A    between atoms: N_27  and  C_28
REMARK                            x       y       z     vdW  Elec       q    Type
REMARK                         _______ _______ _______ _____ _____    ______ ____
ROOT
ATOM      1  C   UNL     1      -4.085  -1.299  -2.526  0.00  0.00    -0.017 C 
ENDROOT
BRANCH   1   2
ATOM      2  N   UNL     1      -3.946  -0.027  -3.249  0.00  0.00    +0.385 N 
ATOM      3  C   UNL     1      -4.654  -0.116  -4.532  0.00  0.00    -0.078 C 
ATOM      4  C   UNL     1      -4.581   1.232  -5.253  0.00  0.00    -0.019 C 
ATOM      5  C   UNL     1      -3.114   1.593  -5.501  0.00  0.00    -0.004 C 
ATOM      6  C   UNL     1      -2.369   1.610  -4.163  0.00  0.00    -0.019 C 
ATOM      7  C   UNL     1      -2.524   0.248  -3.482  0.00  0.00    -0.078 C 
ATOM      8  H   UNL     1      -4.346   0.717  -2.697  0.00  0.00    -0.081 HD
ENDBRANCH   1   2
BRANCH   1   9
ATOM      9  C   UNL     1      -5.534  -1.519  -2.171  0.00  0.00    -0.018 A 
ATOM     10  C   UNL     1      -6.411  -0.452  -2.152  0.00  0.00    +0.005 A 
ATOM     11  C   UNL     1      -7.739  -0.653  -1.826  0.00  0.00    +0.000 A 
ATOM     12  C   UNL     1      -8.193  -1.922  -1.518  0.00  0.00    +0.004 A 
ATOM     13  C   UNL     1      -7.320  -2.993  -1.537  0.00  0.00    +0.046 A 
ATOM     14  C   UNL     1      -5.988  -2.794  -1.869  0.00  0.00    +0.122 A 
BRANCH  14  15
ATOM     15  O   UNL     1      -5.128  -3.846  -1.893  0.00  0.00    -0.495 OA
ATOM     16  C   UNL     1      -5.666  -5.131  -1.570  0.00  0.00    +0.277 C 
ENDBRANCH  14  15
ENDBRANCH   1   9
BRANCH   1  17
ATOM     17  C   UNL     1      -3.248  -1.252  -1.246  0.00  0.00    +0.093 C 
BRANCH  17  20
ATOM     18  C   UNL     1      -3.093   0.114   0.766  0.00  0.00    +0.236 C 
ATOM     19  O   UNL     1      -2.292  -0.682   1.209  0.00  0.00    -0.273 OA
ATOM     20  N   UNL     1      -3.631  -0.080  -0.455  0.00  0.00    -0.315 N 
ATOM     21  H   UNL     1      -4.272   0.556  -0.809  0.00  0.00    +0.149 HD
BRANCH  18  23
ATOM     22  C   UNL     1      -4.770   1.014   2.356  0.00  0.00    +0.041 C 
ATOM     23  C   UNL     1      -3.487   1.319   1.580  0.00  0.00    +0.106 C 
ATOM     24  C   UNL     1      -2.366   1.658   2.564  0.00  0.00    +0.041 C 
BRANCH  23  25
ATOM     25  N   UNL     1      -3.715   2.458   0.688  0.00  0.00    -0.286 N 
ATOM     26  C   UNL     1      -4.079   3.651   1.198  0.00  0.00    +0.300 C 
ATOM     27  O   UNL     1      -4.219   3.782   2.398  0.00  0.00    -0.253 OA
ATOM     28  N   UNL     1      -4.289   4.699   0.376  0.00  0.00    -0.302 N 
ATOM     29  C   UNL     1      -4.685   5.996   0.931  0.00  0.00    +0.129 C 
ATOM     30  H   UNL     1      -3.604   2.353  -0.270  0.00  0.00    +0.151 HD
ATOM     31  H   UNL     1      -4.178   4.595  -0.582  0.00  0.00    +0.150 HD
ENDBRANCH  23  25
ENDBRANCH  18  23
ENDBRANCH  17  20
ENDBRANCH   1  17
TORSDOF 7
