REMARK  Name = ZINC26675380
REMARK  15 active torsions:
REMARK  status: ('A' for Active; 'I' for Inactive)
REMARK    1  A    between atoms: C_1  and  C_2
REMARK    2  A    between atoms: C_2  and  C_3
REMARK    3  A    between atoms: C_2  and  C_4
REMARK    4  A    between atoms: C_5  and  C_21
REMARK    5  A    between atoms: C_6  and  C_14
REMARK    6  A    between atoms: C_8  and  C_10
REMARK    7  A    between atoms: C_10  and  C_11
REMARK    8  A    between atoms: C_10  and  C_12
REMARK    9  A    between atoms: C_10  and  C_13
REMARK   10  A    between atoms: C_22  and  P_23
REMARK   11  A    between atoms: P_23  and  C_25
REMARK   12  A    between atoms: C_25  and  C_26
REMARK   13  A    between atoms: C_26  and  C_28
REMARK   14  A    between atoms: C_26  and  O_32
REMARK   15  A    between atoms: C_28  and  C_29
REMARK                            x       y       z     vdW  Elec       q    Type
REMARK                         _______ _______ _______ _____ _____    ______ ____
ROOT
ATOM      1  C   UNL     1      -8.939   2.479  -3.079  0.00  0.00    +0.052 A 
ATOM      2  C   UNL     1      -8.699   1.832  -1.867  0.00  0.00    +0.004 A 
ATOM      3  C   UNL     1      -9.695   1.869  -0.870  0.00  0.00    -0.007 A 
ATOM      4  C   UNL     1     -10.874   2.565  -1.145  0.00  0.00    +0.033 A 
ATOM      5  C   UNL     1     -11.024   3.175  -2.373  0.00  0.00    +0.048 A 
ATOM      6  N   UNL     1     -10.073   3.117  -3.286  0.00  0.00    -0.255 NA
ENDROOT
BRANCH   3   7
ATOM      7  C   UNL     1      -9.495   1.193   0.433  0.00  0.00    -0.017 A 
ATOM      8  C   UNL     1      -9.076  -0.136   0.475  0.00  0.00    +0.011 A 
ATOM      9  C   UNL     1      -8.885  -0.759   1.691  0.00  0.00    +0.039 A 
ATOM     10  C   UNL     1      -9.120  -0.069   2.870  0.00  0.00    +0.123 A 
ATOM     11  C   UNL     1      -9.541   1.250   2.833  0.00  0.00    +0.039 A 
ATOM     12  C   UNL     1      -9.730   1.883   1.622  0.00  0.00    +0.011 A 
ATOM     13  F   UNL     1      -8.938  -0.685   4.058  0.00  0.00    -0.205 F 
ENDBRANCH   3   7
BRANCH   5  14
ATOM     14  C   UNL     1     -12.297   3.923  -2.677  0.00  0.00    +0.004 C 
ATOM     15  C   UNL     1     -12.295   5.258  -1.929  0.00  0.00    +0.017 C 
ATOM     16  C   UNL     1     -12.389   4.182  -4.182  0.00  0.00    +0.017 C 
ATOM     17  C   UNL     1     -13.498   3.088  -2.229  0.00  0.00    +0.017 C 
ENDBRANCH   5  14
BRANCH   1  19
ATOM     18  C   UNL     1      -8.470   1.785  -5.412  0.00  0.00    +0.014 C 
ATOM     19  C   UNL     1      -7.891   2.448  -4.161  0.00  0.00    +0.032 C 
ATOM     20  C   UNL     1      -7.461   3.878  -4.494  0.00  0.00    +0.014 C 
ENDBRANCH   1  19
BRANCH   2  21
ATOM     21  C   UNL     1      -7.429   1.116  -1.635  0.00  0.00    +0.016 C 
ATOM     22  C   UNL     1      -6.730   1.346  -0.531  0.00  0.00    +0.071 C 
BRANCH  22  23
ATOM     23  P   UNL     1      -5.169   0.467  -0.246  0.00  0.00    +0.260 P 
ATOM     24  O   UNL     1      -4.900  -0.441  -1.383  0.00  0.00    -0.284 OA
ATOM     25  O   UNL     1      -5.277  -0.392   1.112  0.00  0.00    -0.165 OA
BRANCH  23  26
ATOM     26  C   UNL     1      -3.811   1.673  -0.097  0.00  0.00    +0.135 C 
BRANCH  26  27
ATOM     27  C   UNL     1      -2.479   0.930   0.019  0.00  0.00    +0.135 C 
BRANCH  27  28
ATOM     28  O   UNL     1      -2.455   0.181   1.236  0.00  0.00    -0.391 OA
ATOM     29  H   UNL     1      -1.572  -0.422   1.494  0.00  0.00    +0.210 HD
ENDBRANCH  27  28
BRANCH  27  30
ATOM     30  C   UNL     1      -1.329   1.940   0.019  0.00  0.00    +0.157 C 
BRANCH  30  31
ATOM     31  C   UNL     1      -0.014   1.204   0.009  0.00  0.00    +0.358 C 
ATOM     32  O   UNL     1       0.002  -0.004   0.002  0.00  0.00    -0.246 OA
ATOM     33  O   UNL     1       1.139   1.891   0.001  0.00  0.00    -0.246 OA
ENDBRANCH  30  31
ENDBRANCH  27  30
ENDBRANCH  26  27
ENDBRANCH  23  26
ENDBRANCH  22  23
ENDBRANCH   2  21
TORSDOF 10
