REMARK  Name = ZINC67235854
REMARK  11 active torsions:
REMARK  status: ('A' for Active; 'I' for Inactive)
REMARK    1  A    between atoms: C_1  and  C_2
REMARK    2  A    between atoms: N_10  and  C_27
REMARK    3  A    between atoms: C_11  and  S_13
REMARK    4  A    between atoms: S_13  and  C_14
REMARK    5  A    between atoms: C_14  and  C_15
REMARK    6  A    between atoms: N_17  and  C_18
REMARK    7  A    between atoms: C_21  and  N_24
REMARK    8  A    between atoms: N_24  and  C_25
REMARK    9  A    between atoms: N_24  and  C_26
REMARK   10  A    between atoms: C_27  and  C_28
REMARK   11  A    between atoms: C_27  and  C_29
REMARK                            x       y       z     vdW  Elec       q    Type
REMARK                         _______ _______ _______ _____ _____    ______ ____
ROOT
ATOM      1  C   UNL     1      -0.082   1.505   0.006  0.00  0.00    +0.063 C 
ATOM      2  C   UNL     1      -0.049  -0.002  -0.002  0.00  0.00    +0.016 A 
ATOM      3  C   UNL     1      -0.038  -0.774  -1.107  0.00  0.00    +0.051 A 
ATOM      4  C   UNL     1      -0.006  -2.124  -0.693  0.00  0.00    +0.097 A 
ATOM      5  C   UNL     1       0.000  -2.113   0.707  0.00  0.00    +0.131 A 
ATOM      6  N   UNL     1      -0.021  -0.793   1.106  0.00  0.00    -0.353 N 
ATOM      7  H   UNL     1      -0.018  -0.480   2.024  0.00  0.00    +0.166 HD
ATOM      8  C   UNL     1       0.031  -3.341   1.393  0.00  0.00    +0.279 A 
ATOM      9  O   UNL     1       0.037  -3.374   2.613  0.00  0.00    -0.265 OA
ATOM     10  N   UNL     1       0.053  -4.483   0.672  0.00  0.00    -0.284 N 
ATOM     11  C   UNL     1       0.045  -4.438  -0.693  0.00  0.00    +0.173 A 
ATOM     12  N   UNL     1       0.016  -3.301  -1.348  0.00  0.00    -0.221 NA
ENDROOT
BRANCH  10  13
ATOM     13  C   UNL     1       0.085  -5.777   1.357  0.00  0.00    +0.087 C 
ATOM     14  C   UNL     1       1.340  -5.862   2.227  0.00  0.00    +0.031 C 
ATOM     15  C   UNL     1      -1.158  -5.918   2.240  0.00  0.00    +0.031 C 
ENDBRANCH  10  13
BRANCH  11  16
ATOM     16  S   UNL     1       0.075  -5.949  -1.600  0.00  0.00    -0.078 S 
BRANCH  16  17
ATOM     17  C   UNL     1       0.056  -5.420  -3.335  0.00  0.00    +0.173 C 
BRANCH  17  18
ATOM     18  C   UNL     1       0.079  -6.632  -4.230  0.00  0.00    +0.227 C 
ATOM     19  O   UNL     1       0.106  -7.743  -3.745  0.00  0.00    -0.275 OA
ATOM     20  N   UNL     1       0.070  -6.481  -5.569  0.00  0.00    -0.285 N 
ATOM     21  H   UNL     1      -0.020  -5.596  -5.957  0.00  0.00    +0.155 HD
BRANCH  20  22
ATOM     22  C   UNL     1       0.189  -7.602  -6.402  0.00  0.00    +0.034 A 
ATOM     23  C   UNL     1       0.884  -7.506  -7.599  0.00  0.00    +0.025 A 
ATOM     24  C   UNL     1       1.002  -8.611  -8.419  0.00  0.00    +0.025 A 
ATOM     25  C   UNL     1       0.425  -9.818  -8.046  0.00  0.00    +0.029 A 
ATOM     26  C   UNL     1      -0.270  -9.913  -6.848  0.00  0.00    +0.025 A 
ATOM     27  C   UNL     1      -0.383  -8.810  -6.025  0.00  0.00    +0.025 A 
BRANCH  25  28
ATOM     28  N   UNL     1       0.544 -10.937  -8.877  0.00  0.00    -0.336 N 
ATOM     29  C   UNL     1       1.369 -10.867 -10.086  0.00  0.00    +0.129 C 
ATOM     30  C   UNL     1      -0.156 -12.178  -8.538  0.00  0.00    +0.129 C 
ENDBRANCH  25  28
ENDBRANCH  20  22
ENDBRANCH  17  18
ENDBRANCH  16  17
ENDBRANCH  11  16
TORSDOF 6
