REMARK  Name = ZINC30500160
REMARK  10 active torsions:
REMARK  status: ('A' for Active; 'I' for Inactive)
REMARK    1  A    between atoms: C_1  and  C_2
REMARK    2  A    between atoms: C_2  and  C_3
REMARK    3  A    between atoms: N_5  and  C_6
REMARK    4  A    between atoms: C_9  and  C_12
REMARK    5  A    between atoms: C_12  and  C_14
REMARK    6  A    between atoms: C_12  and  N_15
REMARK    7  A    between atoms: N_15  and  C_16
REMARK    8  A    between atoms: C_16  and  C_18
REMARK    9  A    between atoms: C_16  and  C_19
REMARK   10  A    between atoms: N_21  and  C_22
REMARK                            x       y       z     vdW  Elec       q    Type
REMARK                         _______ _______ _______ _____ _____    ______ ____
ROOT
ATOM      1  N   UNL     1      -6.402  -2.571   0.561  0.00  0.00    +0.391 N 
ATOM      2  H   UNL     1      -5.471  -2.355   0.016  0.00  0.00    -0.084 HD
ATOM      3  H   UNL     1      -6.226  -3.387   1.278  0.00  0.00    -0.084 HD
ENDROOT
BRANCH   1   4
ATOM      4  C   UNL     1      -6.837  -1.369   1.284  0.00  0.00    -0.043 C 
ATOM      5  C   UNL     1      -7.700  -1.777   2.479  0.00  0.00    -0.009 C 
BRANCH   4   9
ATOM      6  C   UNL     1      -3.411   0.780   2.666  0.00  0.00    +0.033 A 
ATOM      7  C   UNL     1      -3.431  -0.608   2.721  0.00  0.00    +0.023 A 
ATOM      8  C   UNL     1      -4.542  -1.299   2.279  0.00  0.00    +0.004 A 
ATOM      9  C   UNL     1      -5.629  -0.611   1.771  0.00  0.00    -0.062 A 
ATOM     10  C   UNL     1      -5.610   0.770   1.711  0.00  0.00    +0.004 A 
ATOM     11  C   UNL     1      -4.504   1.468   2.156  0.00  0.00    +0.023 A 
BRANCH   6  14
ATOM     12  C   UNL     1      -2.442   2.676   3.728  0.00  0.00    +0.217 C 
ATOM     13  O   UNL     1      -3.542   3.180   3.807  0.00  0.00    -0.275 OA
ATOM     14  N   UNL     1      -2.289   1.484   3.119  0.00  0.00    -0.286 N 
ATOM     15  H   UNL     1      -1.282   1.063   2.977  0.00  0.00    +0.155 HD
BRANCH  12  17
ATOM     16  C   UNL     1      -1.693   4.699   4.950  0.00  0.00    +0.013 C 
ATOM     17  C   UNL     1      -1.247   3.380   4.317  0.00  0.00    +0.093 C 
ENDBRANCH  12  17
ENDBRANCH   6  14
ENDBRANCH   4   9
ENDBRANCH   1   4
BRANCH   1  18
ATOM     18  C   UNL     1      -7.422  -3.004  -0.404  0.00  0.00    +0.014 C 
ATOM     19  C   UNL     1      -7.245  -2.233  -1.713  0.00  0.00    -0.004 C 
BRANCH  18  20
ATOM     20  C   UNL     1      -7.271  -4.480  -0.666  0.00  0.00    +0.203 C 
ATOM     21  O   UNL     1      -6.400  -5.110  -0.104  0.00  0.00    -0.277 OA
ATOM     22  N   UNL     1      -8.105  -5.101  -1.524  0.00  0.00    -0.282 N 
ATOM     23  H   UNL     1      -8.834  -4.515  -2.103  0.00  0.00    +0.155 HD
BRANCH  22  24
ATOM     24  C   UNL     1      -8.042  -6.493  -1.679  0.00  0.00    +0.105 A 
ATOM     25  C   UNL     1      -6.813  -7.121  -1.839  0.00  0.00    +0.147 A 
ATOM     26  C   UNL     1      -6.755  -8.496  -1.986  0.00  0.00    +0.040 A 
ATOM     27  C   UNL     1      -7.919  -9.242  -1.985  0.00  0.00    +0.006 A 
ATOM     28  C   UNL     1      -9.144  -8.620  -1.833  0.00  0.00    +0.040 A 
ATOM     29  C   UNL     1      -9.210  -7.247  -1.679  0.00  0.00    +0.147 A 
ATOM     30  F   UNL     1     -10.407  -6.639  -1.530  0.00  0.00    -0.203 F 
ATOM     31  F   UNL     1      -5.676  -6.392  -1.846  0.00  0.00    -0.203 F 
ENDBRANCH  22  24
ENDBRANCH  18  20
ENDBRANCH   1  18
TORSDOF 7
