REMARK  Name = ZINC40784549
REMARK  5 active torsions:
REMARK  status: ('A' for Active; 'I' for Inactive)
REMARK    1  A    between atoms: C_6  and  C_7
REMARK    2  A    between atoms: N_9  and  N_10
REMARK    3  A    between atoms: C_12  and  N_26
REMARK    4  A    between atoms: C_13  and  N_17
REMARK    5  A    between atoms: N_17  and  C_18
REMARK                            x       y       z     vdW  Elec       q    Type
REMARK                         _______ _______ _______ _____ _____    ______ ____
ROOT
ATOM      1  N   UNL     1      -2.550  -2.937   1.165  0.00  0.00    -0.247 N 
ATOM      2  C   UNL     1      -2.504  -4.302   0.907  0.00  0.00    +0.161 A 
ATOM      3  C   UNL     1      -3.668  -5.001   0.580  0.00  0.00    +0.107 A 
ATOM      4  C   UNL     1      -3.565  -6.371   0.329  0.00  0.00    +0.149 A 
ATOM      5  N   UNL     1      -2.371  -6.954   0.411  0.00  0.00    -0.219 NA
ATOM      6  C   UNL     1      -1.297  -6.256   0.723  0.00  0.00    +0.225 A 
ATOM      7  N   UNL     1      -1.350  -4.961   0.962  0.00  0.00    -0.217 NA
ATOM      8  H   UNL     1      -3.396  -2.464   1.123  0.00  0.00    +0.172 HD
ENDROOT
BRANCH   1  11
ATOM      9  C   UNL     1      -1.421  -0.921   1.738  0.00  0.00    +0.260 C 
ATOM     10  O   UNL     1      -2.480  -0.329   1.685  0.00  0.00    -0.269 OA
ATOM     11  N   UNL     1      -1.376  -2.245   1.487  0.00  0.00    -0.231 N 
ATOM     12  H   UNL     1      -0.530  -2.718   1.529  0.00  0.00    +0.173 HD
BRANCH   9  18
ATOM     13  C   UNL     1      -0.224   1.180   2.337  0.00  0.00    +0.014 A 
ATOM     14  C   UNL     1       0.935   1.855   2.654  0.00  0.00    +0.016 A 
ATOM     15  C   UNL     1       2.141   1.177   2.713  0.00  0.00    +0.018 A 
ATOM     16  C   UNL     1       2.190  -0.183   2.456  0.00  0.00    +0.016 A 
ATOM     17  C   UNL     1       1.037  -0.870   2.139  0.00  0.00    +0.014 A 
ATOM     18  C   UNL     1      -0.181  -0.191   2.077  0.00  0.00    +0.038 A 
ATOM     19 BR   UNL     1       3.727   2.111   3.146  0.00  0.00    -0.050 Br
ENDBRANCH   9  18
ENDBRANCH   1  11
BRANCH   3  20
ATOM     20  N   UNL     1      -4.907  -4.345   0.505  0.00  0.00    -0.353 N 
ATOM     21  H   UNL     1      -4.963  -3.393   0.681  0.00  0.00    +0.143 HD
ATOM     22  H   UNL     1      -5.707  -4.844   0.276  0.00  0.00    +0.143 HD
ENDBRANCH   3  20
BRANCH   4  23
ATOM     23  N   UNL     1      -4.692  -7.114  -0.000  0.00  0.00    -0.296 N 
ATOM     24  H   UNL     1      -5.540  -6.669  -0.151  0.00  0.00    +0.154 HD
BRANCH  23  25
ATOM     25  C   UNL     1      -4.604  -8.507  -0.114  0.00  0.00    +0.068 A 
ATOM     26  C   UNL     1      -3.541  -9.186   0.468  0.00  0.00    +0.029 A 
ATOM     27  C   UNL     1      -3.456 -10.560   0.355  0.00  0.00    +0.040 A 
ATOM     28  C   UNL     1      -4.428 -11.262  -0.338  0.00  0.00    +0.126 A 
ATOM     29  C   UNL     1      -5.489 -10.589  -0.919  0.00  0.00    +0.078 A 
ATOM     30  C   UNL     1      -5.582  -9.214  -0.805  0.00  0.00    +0.147 A 
ATOM     31  F   UNL     1      -6.620  -8.557  -1.367  0.00  0.00    -0.203 F 
ATOM     32  F   UNL     1      -4.341 -12.606  -0.447  0.00  0.00    -0.205 F 
ENDBRANCH  23  25
ENDBRANCH   4  23
TORSDOF 5
