REMARK  Name = ZINC15759887
REMARK  3 active torsions:
REMARK  status: ('A' for Active; 'I' for Inactive)
REMARK    1  A    between atoms: C_5  and  C_6
REMARK    2  A    between atoms: N_8  and  N_9
REMARK    3  A    between atoms: C_10  and  C_12
REMARK                            x       y       z     vdW  Elec       q    Type
REMARK                         _______ _______ _______ _____ _____    ______ ____
ROOT
ATOM      1  N   UNL     1      -6.715   3.378  -3.029  0.00  0.00    -0.230 N 
ATOM      2  C   UNL     1      -6.209   3.013  -1.834  0.00  0.00    +0.261 C 
ATOM      3  O   UNL     1      -6.931   2.969  -0.856  0.00  0.00    -0.269 OA
ATOM      4  H   UNL     1      -6.139   3.413  -3.808  0.00  0.00    +0.173 HD
ENDROOT
BRANCH   2   5
ATOM      5  C   UNL     1      -4.782   2.668  -1.712  0.00  0.00    +0.052 C 
ATOM      6  C   UNL     1      -4.255   2.295  -0.500  0.00  0.00    +0.089 C 
ATOM      7  N   UNL     1      -2.942   1.970  -0.364  0.00  0.00    -0.288 N 
ATOM      8  C   UNL     1      -2.538   1.518   0.972  0.00  0.00    +0.136 C 
ATOM      9  C   UNL     1      -1.133   2.030   1.312  0.00  0.00    +0.212 C 
ATOM     10  S   UNL     1      -0.017   1.417   0.010  0.00  0.00    +0.073 S 
ATOM     11  O   UNL     1       0.002  -0.004   0.002  0.00  0.00    -0.151 OA
ATOM     12  O   UNL     1       1.192   2.163   0.002  0.00  0.00    -0.151 OA
ATOM     13  N   UNL     1      -0.796   1.845  -1.385  0.00  0.00    -0.118 NA
ATOM     14  C   UNL     1      -2.091   2.061  -1.430  0.00  0.00    +0.147 C 
ATOM     15  C   UNL     1      -2.597   2.418  -2.717  0.00  0.00    +0.046 C 
ATOM     16  C   UNL     1      -3.903   2.717  -2.882  0.00  0.00    +0.018 C 
ENDBRANCH   2   5
BRANCH   1  19
ATOM     17  C   UNL     1      -8.578   4.071  -4.339  0.00  0.00    +0.267 C 
ATOM     18  O   UNL     1      -7.855   4.115  -5.317  0.00  0.00    -0.268 OA
ATOM     19  N   UNL     1      -8.072   3.706  -3.144  0.00  0.00    -0.230 N 
ATOM     20  H   UNL     1      -8.648   3.671  -2.364  0.00  0.00    +0.173 HD
BRANCH  17  25
ATOM     21  C   UNL     1     -10.706   4.813  -5.572  0.00  0.00    +0.024 A 
ATOM     22  C   UNL     1     -12.072   5.069  -5.431  0.00  0.00    -0.036 A 
ATOM     23  C   UNL     1     -12.588   4.973  -4.190  0.00  0.00    -0.006 A 
ATOM     24  S   UNL     1     -11.262   4.435  -3.205  0.00  0.00    -0.088 S 
ATOM     25  C   UNL     1      -9.998   4.415  -4.460  0.00  0.00    +0.076 A 
ATOM     26  C   UNL     1     -13.944   5.296  -3.618  0.00  0.00    +0.043 C 
ATOM     27  C   UNL     1     -14.900   5.857  -4.672  0.00  0.00    +0.005 C 
ATOM     28  C   UNL     1     -15.489   4.738  -5.516  0.00  0.00    +0.000 C 
ATOM     29  C   UNL     1     -14.489   3.637  -5.811  0.00  0.00    +0.000 C 
ATOM     30  C   UNL     1     -13.683   4.081  -7.036  0.00  0.00    +0.005 C 
ATOM     31  C   UNL     1     -12.898   5.343  -6.681  0.00  0.00    +0.036 C 
ENDBRANCH  17  25
ENDBRANCH   1  19
TORSDOF 3
