REMARK  Name = ZINC39480501
REMARK  7 active torsions:
REMARK  status: ('A' for Active; 'I' for Inactive)
REMARK    1  A    between atoms: C_1  and  N_2
REMARK    2  A    between atoms: C_6  and  S_11
REMARK    3  A    between atoms: C_8  and  O_9
REMARK    4  A    between atoms: O_9  and  C_10
REMARK    5  A    between atoms: S_11  and  C_14
REMARK    6  A    between atoms: C_21  and  C_30
REMARK    7  A    between atoms: C_35  and  O_36
REMARK                            x       y       z     vdW  Elec       q    Type
REMARK                         _______ _______ _______ _____ _____    ______ ____
ROOT
ATOM      1  C   UNL     1       0.305   1.491   0.087  0.00  0.00    +0.137 C 
ATOM      2  N   UNL     1       0.358   0.027   0.070  0.00  0.00    -0.283 N 
ATOM      3  C   UNL     1      -0.872  -0.583  -0.016  0.00  0.00    +0.081 A 
ATOM      4  C   UNL     1      -1.913   0.138   0.532  0.00  0.00    -0.015 A 
ATOM      5  C   UNL     1      -3.200   0.043   0.138  0.00  0.00    +0.033 A 
ATOM      6  C   UNL     1      -3.521  -1.073  -0.642  0.00  0.00    +0.097 A 
ATOM      7  C   UNL     1      -2.535  -1.991  -0.966  0.00  0.00    +0.075 A 
ATOM      8  C   UNL     1      -1.198  -1.764  -0.663  0.00  0.00    +0.143 A 
ATOM      9  C   UNL     1      -1.551   0.607   1.970  0.00  0.00    +0.093 C 
ATOM     10  C   UNL     1      -0.165   0.005   2.141  0.00  0.00    +0.057 C 
ATOM     11  N   UNL     1       0.983   0.602   2.066  0.00  0.00    -0.245 NA
ATOM     12  C   UNL     1       2.006  -0.101   1.512  0.00  0.00    +0.141 A 
ATOM     13  C   UNL     1       1.618  -0.490   0.137  0.00  0.00    +0.156 A 
ATOM     14  N   UNL     1       2.444  -1.145  -0.586  0.00  0.00    -0.218 NA
ATOM     15  C   UNL     1       3.637  -1.487  -0.111  0.00  0.00    +0.225 A 
ATOM     16  N   UNL     1       4.027  -1.173   1.110  0.00  0.00    -0.222 NA
ATOM     17  C   UNL     1       3.234  -0.484   1.951  0.00  0.00    +0.160 A 
ATOM     18 CL   UNL     1       3.766  -0.085   3.554  0.00  0.00    -0.060 Cl
ENDROOT
BRANCH  10  19
ATOM     19  C   UNL     1      -0.122  -1.437   2.429  0.00  0.00    +0.038 A 
ATOM     20  C   UNL     1       0.380  -2.329   1.477  0.00  0.00    +0.013 A 
ATOM     21  C   UNL     1       0.417  -3.679   1.754  0.00  0.00    +0.001 A 
ATOM     22  C   UNL     1      -0.040  -4.156   2.971  0.00  0.00    +0.004 A 
ATOM     23  C   UNL     1      -0.539  -3.285   3.921  0.00  0.00    +0.046 A 
ATOM     24  C   UNL     1      -0.579  -1.924   3.663  0.00  0.00    +0.126 A 
BRANCH  24  25
ATOM     25  O   UNL     1      -1.064  -1.067   4.597  0.00  0.00    -0.506 OA
ATOM     26  H   UNL     1      -2.027  -0.978   4.587  0.00  0.00    +0.292 HD
ENDBRANCH  24  25
ENDBRANCH  10  19
BRANCH   6  27
ATOM     27  S   UNL     1      -5.172  -1.311  -1.210  0.00  0.00    +0.025 S 
ATOM     28  O   UNL     1      -5.321  -2.703  -1.454  0.00  0.00    -0.164 OA
ATOM     29  O   UNL     1      -6.016  -0.599  -0.315  0.00  0.00    -0.164 OA
BRANCH  27  30
ATOM     30  C   UNL     1      -5.305  -0.508  -2.773  0.00  0.00    +0.094 A 
ATOM     31  C   UNL     1      -5.686   0.819  -2.839  0.00  0.00    +0.027 A 
ATOM     32  C   UNL     1      -5.790   1.448  -4.065  0.00  0.00    +0.002 A 
ATOM     33  C   UNL     1      -5.514   0.750  -5.226  0.00  0.00    +0.000 A 
ATOM     34  C   UNL     1      -5.132  -0.577  -5.160  0.00  0.00    +0.002 A 
ATOM     35  C   UNL     1      -5.024  -1.205  -3.934  0.00  0.00    +0.027 A 
ENDBRANCH  27  30
ENDBRANCH   6  27
BRANCH   8  36
ATOM     36  O   UNL     1      -0.239  -2.671  -0.992  0.00  0.00    -0.493 OA
ATOM     37  C   UNL     1      -0.672  -3.859  -1.658  0.00  0.00    +0.277 C 
ENDBRANCH   8  36
TORSDOF 5
