REMARK  Name = ZINC05338401
REMARK  11 active torsions:
REMARK  status: ('A' for Active; 'I' for Inactive)
REMARK    1  A    between atoms: C_4  and  N_7
REMARK    2  A    between atoms: N_7  and  C_8
REMARK    3  A    between atoms: C_8  and  N_10
REMARK    4  A    between atoms: N_10  and  N_11
REMARK    5  A    between atoms: N_11  and  C_12
REMARK    6  A    between atoms: C_12  and  C_24
REMARK    7  A    between atoms: C_13  and  O_23
REMARK    8  A    between atoms: C_15  and  O_22
REMARK    9  A    between atoms: C_17  and  C_20
REMARK   10  A    between atoms: C_20  and  O_21
REMARK   11  A    between atoms: C_24  and  O_25
REMARK                            x       y       z     vdW  Elec       q    Type
REMARK                         _______ _______ _______ _____ _____    ______ ____
ROOT
ATOM      1  C   UNL     1       2.413   4.442   0.259  0.00  0.00    +0.187 C 
ATOM      2  C   UNL     1       2.411   5.944  -0.086  0.00  0.00    +0.196 C 
ATOM      3  C   UNL     1       3.317   6.047  -1.337  0.00  0.00    +0.178 C 
ATOM      4  C   UNL     1       4.149   4.743  -1.243  0.00  0.00    +0.177 C 
ATOM      5  O   UNL     1       3.204   3.776  -0.739  0.00  0.00    -0.345 OA
ENDROOT
BRANCH   1   6
ATOM      6  N   UNL     1       1.039   3.923   0.237  0.00  0.00    -0.207 NA
ATOM      7  H   UNL     1       1.033   2.915   0.287  0.00  0.00    +0.147 HD
BRANCH   6   8
ATOM      8  N   UNL     1       0.294   4.467   1.244  0.00  0.00    -0.260 N 
ATOM      9  H   UNL     1       0.680   5.143   1.823  0.00  0.00    +0.168 HD
BRANCH   8  10
ATOM     10  C   UNL     1      -0.979   4.066   1.433  0.00  0.00    +0.148 C 
ATOM     11  S   UNL     1      -1.913   4.748   2.695  0.00  0.00    -0.017 S 
BRANCH  10  12
ATOM     12  N   UNL     1      -1.514   3.123   0.633  0.00  0.00    -0.296 N 
ATOM     13  H   UNL     1      -1.007   2.781  -0.120  0.00  0.00    +0.154 HD
BRANCH  12  17
ATOM     14  C   UNL     1      -5.347   1.677   1.390  0.00  0.00    +0.000 A 
ATOM     15  C   UNL     1      -5.102   3.037   1.430  0.00  0.00    +0.002 A 
ATOM     16  C   UNL     1      -3.833   3.520   1.179  0.00  0.00    +0.023 A 
ATOM     17  C   UNL     1      -2.801   2.637   0.887  0.00  0.00    +0.033 A 
ATOM     18  C   UNL     1      -3.051   1.272   0.844  0.00  0.00    +0.023 A 
ATOM     19  C   UNL     1      -4.322   0.795   1.100  0.00  0.00    +0.002 A 
ENDBRANCH  12  17
ENDBRANCH  10  12
ENDBRANCH   8  10
ENDBRANCH   6   8
ENDBRANCH   1   6
BRANCH   3  20
ATOM     20  O   UNL     1       2.535   6.069  -2.533  0.00  0.00    -0.386 OA
ATOM     21  H   UNL     1       3.059   6.042  -3.346  0.00  0.00    +0.210 HD
ENDBRANCH   3  20
BRANCH   2  22
ATOM     22  O   UNL     1       1.086   6.385  -0.391  0.00  0.00    -0.385 OA
ATOM     23  H   UNL     1       1.026   7.324  -0.616  0.00  0.00    +0.210 HD
ENDBRANCH   2  22
BRANCH   4  24
ATOM     24  C   UNL     1       4.659   4.329  -2.625  0.00  0.00    +0.190 C 
BRANCH  24  25
ATOM     25  O   UNL     1       5.432   3.133  -2.509  0.00  0.00    -0.392 OA
ATOM     26  H   UNL     1       5.788   2.811  -3.348  0.00  0.00    +0.210 HD
ENDBRANCH  24  25
ENDBRANCH   4  24
BRANCH   1  27
ATOM     27  C   UNL     1       3.030   4.224   1.642  0.00  0.00    +0.211 C 
BRANCH  27  28
ATOM     28  O   UNL     1       3.009   2.831   1.959  0.00  0.00    -0.391 OA
ATOM     29  H   UNL     1       3.385   2.619   2.824  0.00  0.00    +0.210 HD
ENDBRANCH  27  28
ENDBRANCH   1  27
TORSDOF 11
