REMARK  Name = ZINC16464606
REMARK  8 active torsions:
REMARK  status: ('A' for Active; 'I' for Inactive)
REMARK    1  A    between atoms: C_1  and  C_2
REMARK    2  A    between atoms: C_7  and  N_8
REMARK    3  A    between atoms: C_9  and  C_29
REMARK    4  A    between atoms: C_12  and  S_13
REMARK    5  A    between atoms: S_13  and  C_14
REMARK    6  A    between atoms: C_14  and  C_15
REMARK    7  A    between atoms: C_17  and  C_20
REMARK    8  A    between atoms: C_25  and  C_28
REMARK                            x       y       z     vdW  Elec       q    Type
REMARK                         _______ _______ _______ _____ _____    ______ ____
ROOT
ATOM      1  N   UNL     1       9.614   0.889   1.600  0.00  0.00    -0.270 N 
ATOM      2  C   UNL     1      10.287   1.129   2.778  0.00  0.00    +0.169 A 
ATOM      3  N   UNL     1       9.645   2.092   3.399  0.00  0.00    -0.128 NA
ATOM      4  N   UNL     1       8.635   2.468   2.700  0.00  0.00    -0.122 NA
ATOM      5  C   UNL     1       8.568   1.769   1.588  0.00  0.00    +0.197 A 
ENDROOT
BRANCH   1  12
ATOM      6  C   UNL     1       8.492  -1.717   1.828  0.00  0.00    +0.046 C 
ATOM      7  C   UNL     1       9.409  -1.342   0.693  0.00  0.00    -0.026 A 
ATOM      8  C   UNL     1       9.723  -2.273  -0.279  0.00  0.00    +0.007 A 
ATOM      9  C   UNL     1      10.569  -1.932  -1.318  0.00  0.00    +0.020 A 
ATOM     10  C   UNL     1      11.100  -0.656  -1.391  0.00  0.00    +0.043 A 
ATOM     11  C   UNL     1      10.784   0.281  -0.425  0.00  0.00    +0.046 A 
ATOM     12  C   UNL     1       9.935  -0.059   0.619  0.00  0.00    +0.055 A 
ATOM     13 CL   UNL     1      12.161  -0.232  -2.698  0.00  0.00    -0.083 Cl
ENDBRANCH   1  12
BRANCH   2  14
ATOM     14  C   UNL     1      11.499   0.432   3.256  0.00  0.00    +0.022 A 
ATOM     15  C   UNL     1      12.266  -0.354   2.387  0.00  0.00    +0.031 A 
ATOM     16  C   UNL     1      13.393  -0.984   2.874  0.00  0.00    +0.111 A 
ATOM     17  N   UNL     1      13.744  -0.860   4.140  0.00  0.00    -0.263 NA
ATOM     18  C   UNL     1      13.047  -0.133   4.993  0.00  0.00    +0.111 A 
ATOM     19  C   UNL     1      11.910   0.534   4.590  0.00  0.00    +0.031 A 
ENDBRANCH   2  14
BRANCH   5  20
ATOM     20  S   UNL     1       7.353   1.932   0.322  0.00  0.00    -0.079 S 
BRANCH  20  21
ATOM     21  C   UNL     1       6.343   3.259   1.024  0.00  0.00    +0.140 C 
BRANCH  21  22
ATOM     22  C   UNL     1       5.208   3.577   0.085  0.00  0.00    +0.089 A 
ATOM     23  N   UNL     1       4.008   3.059   0.051  0.00  0.00    -0.239 NA
ATOM     24  C   UNL     1       3.131   3.470  -0.866  0.00  0.00    +0.133 A 
ATOM     25  C   UNL     1       3.538   4.445  -1.741  0.00  0.00    +0.080 A 
ATOM     26  S   UNL     1       5.167   4.725  -1.213  0.00  0.00    -0.079 S 
BRANCH  24  27
ATOM     27  C   UNL     1       1.774   2.902  -0.933  0.00  0.00    +0.265 C 
ATOM     28  O   UNL     1       0.941   3.402  -1.666  0.00  0.00    -0.268 OA
ATOM     29  N   UNL     1       1.454   1.829  -0.183  0.00  0.00    -0.296 N 
ATOM     30  C   UNL     1       0.067   1.349  -0.115  0.00  0.00    +0.108 C 
ATOM     31  C   UNL     1       0.043  -0.140  -0.474  0.00  0.00    +0.022 C 
ATOM     32  C   UNL     1       1.014  -0.896   0.434  0.00  0.00    -0.011 C 
ATOM     33  C   UNL     1       2.435  -0.369   0.215  0.00  0.00    +0.022 C 
ATOM     34  C   UNL     1       2.487   1.117   0.582  0.00  0.00    +0.108 C 
ATOM     35  C   UNL     1       0.967  -2.388   0.102  0.00  0.00    +0.007 C 
ENDBRANCH  24  27
ENDBRANCH  21  22
ENDBRANCH  20  21
ENDBRANCH   5  20
TORSDOF 6
