REMARK  Name = ZINC12548390
REMARK  6 active torsions:
REMARK  status: ('A' for Active; 'I' for Inactive)
REMARK    1  A    between atoms: C_4  and  N_7
REMARK    2  A    between atoms: N_7  and  S_8
REMARK    3  A    between atoms: S_8  and  C_11
REMARK    4  A    between atoms: C_16  and  N_17
REMARK    5  A    between atoms: C_18  and  C_20
REMARK    6  A    between atoms: C_26  and  C_28
REMARK                            x       y       z     vdW  Elec       q    Type
REMARK                         _______ _______ _______ _____ _____    ______ ____
ROOT
ATOM      1  C   UNL     1       0.694  -0.571  -0.566  0.00  0.00    +0.130 A 
ATOM      2  C   UNL     1      -0.262  -1.252  -1.295  0.00  0.00    +0.031 A 
ATOM      3  C   UNL     1      -0.966  -2.291  -0.714  0.00  0.00    +0.002 A 
ATOM      4  C   UNL     1      -0.722  -2.646   0.600  0.00  0.00    +0.002 A 
ATOM      5  C   UNL     1       0.229  -1.965   1.335  0.00  0.00    +0.025 A 
ATOM      6  C   UNL     1       0.941  -0.925   0.753  0.00  0.00    +0.060 A 
ENDROOT
BRANCH   6   7
ATOM      7  N   UNL     1       1.905  -0.234   1.496  0.00  0.00    -0.284 N 
ATOM      8  C   UNL     1       1.903  -0.310   2.841  0.00  0.00    +0.221 C 
ATOM      9  O   UNL     1       1.005  -0.892   3.414  0.00  0.00    -0.275 OA
ATOM     10  H   UNL     1       2.576   0.300   1.042  0.00  0.00    +0.155 HD
BRANCH   8  11
ATOM     11  C   UNL     1       3.015   0.326   3.635  0.00  0.00    +0.093 C 
ATOM     12  C   UNL     1       2.552   1.682   4.172  0.00  0.00    +0.040 C 
ATOM     13  C   UNL     1       3.538   2.202   5.178  0.00  0.00    -0.030 C 
ATOM     14  C   UNL     1       4.437   1.473   5.758  0.00  0.00    -0.030 C 
ATOM     15  C   UNL     1       4.623   0.006   5.503  0.00  0.00    +0.042 C 
ATOM     16  C   UNL     1       3.380  -0.573   4.823  0.00  0.00    +0.118 C 
BRANCH  16  17
ATOM     17  C   UNL     1       3.674  -1.967   4.332  0.00  0.00    +0.360 C 
ATOM     18  O   UNL     1       3.600  -2.220   3.153  0.00  0.00    -0.246 OA
ATOM     19  O   UNL     1       4.018  -2.927   5.205  0.00  0.00    -0.246 OA
ENDBRANCH  16  17
ENDBRANCH   8  11
ENDBRANCH   6   7
BRANCH   1  20
ATOM     20  S   UNL     1       1.595   0.748  -1.309  0.00  0.00    +0.074 S 
ATOM     21  O   UNL     1       1.149   0.837  -2.656  0.00  0.00    -0.150 OA
ATOM     22  O   UNL     1       1.524   1.846  -0.409  0.00  0.00    -0.150 OA
BRANCH  20  23
ATOM     23  N   UNL     1       3.184   0.285  -1.367  0.00  0.00    -0.216 N 
ATOM     24  H   UNL     1       3.845   0.756  -0.836  0.00  0.00    +0.174 HD
BRANCH  23  28
ATOM     25  C   UNL     1       4.339  -2.898  -3.789  0.00  0.00    +0.000 A 
ATOM     26  C   UNL     1       5.082  -1.732  -3.781  0.00  0.00    +0.002 A 
ATOM     27  C   UNL     1       4.702  -0.674  -2.979  0.00  0.00    +0.024 A 
ATOM     28  C   UNL     1       3.571  -0.782  -2.180  0.00  0.00    +0.048 A 
ATOM     29  C   UNL     1       2.829  -1.957  -2.186  0.00  0.00    +0.024 A 
ATOM     30  C   UNL     1       3.212  -3.009  -2.994  0.00  0.00    +0.002 A 
ENDBRANCH  23  28
ENDBRANCH  20  23
ENDBRANCH   1  20
TORSDOF 6
