REMARK  Name = ZINC12642551
REMARK  8 active torsions:
REMARK  status: ('A' for Active; 'I' for Inactive)
REMARK    1  A    between atoms: C_5  and  C_7
REMARK    2  A    between atoms: C_7  and  N_60
REMARK    3  A    between atoms: C_8  and  C_9
REMARK    4  A    between atoms: C_8  and  N_60
REMARK    5  A    between atoms: C_15  and  C_17
REMARK    6  A    between atoms: C_15  and  C_24
REMARK    7  A    between atoms: C_15  and  N_60
REMARK    8  A    between atoms: N_28  and  C_29
REMARK                            x       y       z     vdW  Elec       q    Type
REMARK                         _______ _______ _______ _____ _____    ______ ____
ROOT
ATOM      1  C   UNL     1       3.067   1.004   0.313  0.00  0.00    +0.034 C 
ENDROOT
BRANCH   1   2
ATOM      2  C   UNL     1       3.316   1.268  -1.149  0.00  0.00    -0.054 A 
ATOM      3  C   UNL     1       3.489   2.565  -1.597  0.00  0.00    +0.004 A 
ATOM      4  C   UNL     1       3.723   2.807  -2.938  0.00  0.00    +0.020 A 
ATOM      5  C   UNL     1       3.772   1.754  -3.833  0.00  0.00    +0.041 A 
ATOM      6  C   UNL     1       3.592   0.457  -3.385  0.00  0.00    +0.020 A 
ATOM      7  C   UNL     1       3.364   0.215  -2.043  0.00  0.00    +0.004 A 
ATOM      8 CL   UNL     1       4.058   2.058  -5.518  0.00  0.00    -0.084 Cl
ENDBRANCH   1   2
BRANCH   1   9
ATOM      9  C   UNL     1       1.619   1.275   0.634  0.00  0.00    +0.143 A 
ATOM     10  N   UNL     1       1.051   2.450   0.755  0.00  0.00    -0.115 NA
ATOM     11  N   UNL     1      -0.193   2.263   1.033  0.00  0.00    -0.023 NA
ATOM     12  N   UNL     1      -0.433   1.000   1.092  0.00  0.00    -0.044 NA
ATOM     13  N   UNL     1       0.659   0.357   0.852  0.00  0.00    -0.227 N 
BRANCH  13  14
ATOM     14  C   UNL     1       0.824  -1.099   0.822  0.00  0.00    +0.111 C 
ATOM     15  C   UNL     1      -0.130  -1.717  -0.220  0.00  0.00    +0.027 C 
ATOM     16  C   UNL     1      -0.592  -3.046   0.430  0.00  0.00    +0.002 C 
ATOM     17  C   UNL     1      -0.738  -2.664   1.924  0.00  0.00    +0.002 C 
ATOM     18  C   UNL     1       0.438  -1.701   2.185  0.00  0.00    +0.027 C 
ENDBRANCH  13  14
ENDBRANCH   1   9
BRANCH   1  19
ATOM     19  N   UNL     1       3.914   1.911   1.115  0.00  0.00    +0.394 N 
ATOM     20  H   UNL     1       3.698   2.882   0.860  0.00  0.00    -0.079 HD
BRANCH  19  21
ATOM     21  C   UNL     1       5.342   1.648   0.836  0.00  0.00    -0.040 C 
BRANCH  21  26
ATOM     22  C   UNL     1       6.528   2.487  -2.649  0.00  0.00    +0.000 A 
ATOM     23  C   UNL     1       6.486   3.869  -2.631  0.00  0.00    +0.001 A 
ATOM     24  C   UNL     1       6.073   4.533  -1.491  0.00  0.00    +0.020 A 
ATOM     25  C   UNL     1       5.703   3.814  -0.368  0.00  0.00    +0.042 A 
ATOM     26  C   UNL     1       5.745   2.431  -0.387  0.00  0.00    -0.046 A 
ATOM     27  C   UNL     1       6.162   1.769  -1.526  0.00  0.00    +0.003 A 
ATOM     28 CL   UNL     1       5.185   4.647   1.065  0.00  0.00    -0.083 Cl
ENDBRANCH  21  26
ENDBRANCH  19  21
BRANCH  19  29
ATOM     29  C   UNL     1       3.638   1.721   2.554  0.00  0.00    -0.040 C 
BRANCH  29  30
ATOM     30  C   UNL     1       4.216   2.886   3.316  0.00  0.00    -0.046 A 
ATOM     31  C   UNL     1       5.485   2.804   3.868  0.00  0.00    +0.005 A 
ATOM     32  C   UNL     1       5.978   3.901   4.557  0.00  0.00    +0.020 A 
ATOM     33  C   UNL     1       5.188   5.030   4.678  0.00  0.00    +0.111 A 
ATOM     34  N   UNL     1       3.983   5.070   4.145  0.00  0.00    -0.263 NA
ATOM     35  C   UNL     1       3.485   4.047   3.479  0.00  0.00    +0.112 A 
ENDBRANCH  29  30
ENDBRANCH  19  29
ENDBRANCH   1  19
TORSDOF 8
