REMARK  Name = ZINC35512759
REMARK  5 active torsions:
REMARK  status: ('A' for Active; 'I' for Inactive)
REMARK    1  A    between atoms: C_1  and  C_2
REMARK    2  A    between atoms: C_3  and  C_31
REMARK    3  A    between atoms: C_8  and  C_24
REMARK    4  A    between atoms: C_28  and  O_30
REMARK    5  A    between atoms: C_31  and  C_33
REMARK                            x       y       z     vdW  Elec       q    Type
REMARK                         _______ _______ _______ _____ _____    ______ ____
ROOT
ATOM      1  C   UNL     1      -0.018   1.503   0.010  0.00  0.00    +0.067 C 
ATOM      2  C   UNL     1       0.002  -0.004   0.002  0.00  0.00    +0.058 A 
ATOM      3  C   UNL     1       0.006  -0.734  -1.186  0.00  0.00    +0.078 A 
ATOM      4  S   UNL     1       0.032  -2.401  -0.546  0.00  0.00    -0.049 S 
ATOM      5  C   UNL     1       0.035  -2.022   1.093  0.00  0.00    +0.169 A 
ATOM      6  N   UNL     1       0.022  -0.700   1.108  0.00  0.00    -0.229 NA
ATOM      7  N   UNL     1       0.052  -2.887   2.170  0.00  0.00    -0.232 N 
ATOM      8  C   UNL     1       0.048  -2.501   3.590  0.00  0.00    +0.152 C 
ATOM      9  C   UNL     1       0.074  -3.780   4.360  0.00  0.00    +0.072 A 
ATOM     10  C   UNL     1       0.092  -4.040   5.803  0.00  0.00    +0.199 A 
ATOM     11  O   UNL     1      -0.089  -3.172   6.639  0.00  0.00    -0.287 OA
ATOM     12  C   UNL     1       0.352  -5.460   6.148  0.00  0.00    +0.065 A 
ATOM     13  C   UNL     1       0.597  -5.832   7.470  0.00  0.00    +0.030 A 
ATOM     14  C   UNL     1       0.841  -7.154   7.772  0.00  0.00    +0.019 A 
ATOM     15  C   UNL     1       0.844  -8.108   6.763  0.00  0.00    +0.019 A 
ATOM     16  C   UNL     1       0.602  -7.753   5.455  0.00  0.00    +0.048 A 
ATOM     17  C   UNL     1       0.349  -6.422   5.125  0.00  0.00    +0.140 A 
ATOM     18  O   UNL     1       0.104  -6.102   3.833  0.00  0.00    -0.450 OA
ATOM     19  C   UNL     1       0.086  -4.808   3.459  0.00  0.00    +0.199 A 
ATOM     20  C   UNL     1       0.069  -4.234   2.103  0.00  0.00    +0.289 C 
ATOM     21  O   UNL     1       0.073  -4.880   1.074  0.00  0.00    -0.266 OA
ATOM     22 BR   UNL     1       1.174  -7.669   9.561  0.00  0.00    -0.050 Br
ENDROOT
BRANCH   8  23
ATOM     23  C   UNL     1      -1.202  -1.723   3.914  0.00  0.00    -0.019 A 
ATOM     24  C   UNL     1      -2.410  -2.090   3.349  0.00  0.00    +0.006 A 
ATOM     25  C   UNL     1      -3.558  -1.379   3.644  0.00  0.00    +0.004 A 
ATOM     26  C   UNL     1      -3.501  -0.299   4.504  0.00  0.00    +0.045 A 
ATOM     27  C   UNL     1      -2.291   0.071   5.071  0.00  0.00    +0.117 A 
ATOM     28  C   UNL     1      -1.141  -0.648   4.779  0.00  0.00    +0.051 A 
BRANCH  27  29
ATOM     29  O   UNL     1      -2.232   1.133   5.917  0.00  0.00    -0.507 OA
ATOM     30  H   UNL     1      -2.372   0.904   6.846  0.00  0.00    +0.292 HD
ENDBRANCH  27  29
ENDBRANCH   8  23
BRANCH   3  31
ATOM     31  C   UNL     1      -0.007  -0.281  -2.520  0.00  0.00    +0.168 C 
ATOM     32  O   UNL     1      -0.025   0.910  -2.758  0.00  0.00    -0.292 OA
ATOM     33  C   UNL     1       0.001  -1.275  -3.653  0.00  0.00    +0.092 C 
ENDBRANCH   3  31
TORSDOF 3
