REMARK  Name = ZINC17364266
REMARK  6 active torsions:
REMARK  status: ('A' for Active; 'I' for Inactive)
REMARK    1  A    between atoms: C_1  and  N_2
REMARK    2  A    between atoms: C_17  and  C_19
REMARK    3  A    between atoms: C_23  and  S_25
REMARK    4  A    between atoms: S_25  and  N_28
REMARK    5  A    between atoms: N_28  and  C_29
REMARK    6  A    between atoms: N_28  and  C_30
REMARK                            x       y       z     vdW  Elec       q    Type
REMARK                         _______ _______ _______ _____ _____    ______ ____
ROOT
ATOM      1  C   UNL     1       0.043   1.455  -0.012  0.00  0.00    +0.131 C 
ATOM      2  N   UNL     1       0.041  -0.010  -0.011  0.00  0.00    -0.315 N 
ATOM      3  C   UNL     1      -1.220  -0.756  -0.014  0.00  0.00    +0.108 C 
ATOM      4  C   UNL     1      -1.613  -1.163   1.396  0.00  0.00    +0.038 C 
ATOM      5  C   UNL     1      -0.636  -2.149   2.013  0.00  0.00    +0.117 C 
ATOM      6  N   UNL     1       0.679  -1.532   2.204  0.00  0.00    -0.249 N 
ATOM      7  C   UNL     1       1.566  -1.502   1.126  0.00  0.00    +0.169 A 
ATOM      8  C   UNL     1       1.238  -0.722  -0.014  0.00  0.00    +0.162 A 
ATOM      9  N   UNL     1       2.043  -0.671  -1.052  0.00  0.00    -0.227 NA
ATOM     10  C   UNL     1       3.190  -1.368  -1.033  0.00  0.00    +0.091 A 
ATOM     11  C   UNL     1       4.068  -1.336  -2.129  0.00  0.00    +0.030 A 
ATOM     12  C   UNL     1       5.227  -2.051  -2.087  0.00  0.00    +0.002 A 
ATOM     13  C   UNL     1       5.556  -2.815  -0.971  0.00  0.00    +0.002 A 
ATOM     14  C   UNL     1       4.728  -2.870   0.109  0.00  0.00    +0.030 A 
ATOM     15  C   UNL     1       3.524  -2.146   0.101  0.00  0.00    +0.091 A 
ATOM     16  N   UNL     1       2.687  -2.187   1.165  0.00  0.00    -0.227 NA
ATOM     17  C   UNL     1       1.026  -1.005   3.394  0.00  0.00    +0.252 C 
ATOM     18  O   UNL     1       0.218  -0.971   4.302  0.00  0.00    -0.270 OA
ENDROOT
BRANCH  17  19
ATOM     19  C   UNL     1       2.388  -0.467   3.597  0.00  0.00    +0.039 A 
ATOM     20  C   UNL     1       3.049   0.179   2.550  0.00  0.00    +0.013 A 
ATOM     21  C   UNL     1       4.319   0.679   2.746  0.00  0.00    +0.003 A 
ATOM     22  C   UNL     1       4.939   0.541   3.975  0.00  0.00    +0.028 A 
ATOM     23  C   UNL     1       4.289  -0.098   5.016  0.00  0.00    +0.106 A 
ATOM     24  C   UNL     1       3.016  -0.598   4.836  0.00  0.00    +0.041 A 
BRANCH  23  25
ATOM     25  S   UNL     1       5.088  -0.269   6.578  0.00  0.00    +0.060 S 
ATOM     26  O   UNL     1       4.486  -1.384   7.222  0.00  0.00    -0.153 OA
ATOM     27  O   UNL     1       6.485  -0.195   6.330  0.00  0.00    -0.153 OA
BRANCH  25  28
ATOM     28  N   UNL     1       4.695   1.065   7.477  0.00  0.00    -0.183 NA
ATOM     29  C   UNL     1       3.503   1.050   8.329  0.00  0.00    +0.131 C 
ATOM     30  C   UNL     1       5.539   2.261   7.420  0.00  0.00    +0.131 C 
ENDBRANCH  25  28
ENDBRANCH  23  25
ENDBRANCH  17  19
TORSDOF 3
