REMARK  Name = ZINC31036979
REMARK  12 active torsions:
REMARK  status: ('A' for Active; 'I' for Inactive)
REMARK    1  A    between atoms: C_1  and  C_2
REMARK    2  A    between atoms: C_2  and  C_4
REMARK    3  A    between atoms: C_2  and  N_20
REMARK    4  A    between atoms: N_6  and  C_7
REMARK    5  A    between atoms: C_7  and  C_8
REMARK    6  A    between atoms: N_10  and  C_11
REMARK    7  A    between atoms: N_20  and  C_21
REMARK    8  A    between atoms: N_20  and  C_22
REMARK    9  A    between atoms: C_22  and  C_23
REMARK   10  A    between atoms: N_25  and  C_26
REMARK   11  A    between atoms: C_31  and  S_32
REMARK   12  A    between atoms: S_32  and  C_33
REMARK                            x       y       z     vdW  Elec       q    Type
REMARK                         _______ _______ _______ _____ _____    ______ ____
ROOT
ATOM      1  C   UNL     1      -4.369   0.080   1.329  0.00  0.00    -0.004 C 
ATOM      2  C   UNL     1      -4.383   0.793  -0.024  0.00  0.00    +0.016 C 
ENDROOT
BRANCH   2   3
ATOM      3  C   UNL     1      -3.191   1.710  -0.122  0.00  0.00    +0.200 C 
ATOM      4  O   UNL     1      -3.353   2.910  -0.188  0.00  0.00    -0.278 OA
ATOM      5  N   UNL     1      -1.945   1.196  -0.136  0.00  0.00    -0.308 N 
ATOM      6  H   UNL     1      -1.799   0.107  -0.077  0.00  0.00    +0.149 HD
BRANCH   5   7
ATOM      7  C   UNL     1      -0.786   2.087  -0.231  0.00  0.00    +0.200 C 
BRANCH   7   8
ATOM      8  C   UNL     1       0.479   1.268  -0.228  0.00  0.00    +0.234 C 
ATOM      9  O   UNL     1       0.418   0.059  -0.154  0.00  0.00    -0.274 OA
ATOM     10  N   UNL     1       1.677   1.879  -0.313  0.00  0.00    -0.282 N 
ATOM     11  H   UNL     1       1.730   2.969  -0.453  0.00  0.00    +0.155 HD
BRANCH  10  12
ATOM     12  C   UNL     1       2.855   1.126  -0.224  0.00  0.00    +0.072 A 
ATOM     13  C   UNL     1       2.900  -0.159  -0.747  0.00  0.00    +0.029 A 
ATOM     14  C   UNL     1       4.064  -0.900  -0.662  0.00  0.00    +0.043 A 
ATOM     15  C   UNL     1       5.183  -0.366  -0.047  0.00  0.00    +0.161 A 
ATOM     16  C   UNL     1       5.141   0.915   0.482  0.00  0.00    +0.195 A 
ATOM     17  C   UNL     1       3.979   1.662   0.395  0.00  0.00    +0.182 A 
ATOM     18  F   UNL     1       3.937   2.910   0.909  0.00  0.00    -0.200 F 
ATOM     19  F   UNL     1       6.234   1.434   1.083  0.00  0.00    -0.199 F 
ATOM     20  F   UNL     1       6.318  -1.095   0.038  0.00  0.00    -0.202 F 
ENDBRANCH  10  12
ENDBRANCH   7   8
ENDBRANCH   5   7
ENDBRANCH   2   3
BRANCH   2  21
ATOM     21  N   UNL     1      -5.618   1.579  -0.151  0.00  0.00    +0.391 N 
ATOM     22  C   UNL     1      -6.783   0.704  -0.338  0.00  0.00    -0.094 C 
ATOM     23  H   UNL     1      -5.524   2.214  -1.045  0.00  0.00    -0.080 HD
BRANCH  21  24
ATOM     24  C   UNL     1      -5.802   2.460   1.010  0.00  0.00    +0.020 C 
BRANCH  24  25
ATOM     25  C   UNL     1      -6.931   3.420   0.739  0.00  0.00    +0.201 C 
ATOM     26  O   UNL     1      -7.524   3.375  -0.319  0.00  0.00    -0.278 OA
ATOM     27  N   UNL     1      -7.283   4.328   1.670  0.00  0.00    -0.286 N 
ATOM     28  H   UNL     1      -6.707   4.409   2.604  0.00  0.00    +0.155 HD
BRANCH  27  29
ATOM     29  C   UNL     1      -8.381   5.170   1.449  0.00  0.00    +0.047 A 
ATOM     30  C   UNL     1      -8.776   5.471   0.154  0.00  0.00    +0.024 A 
ATOM     31  C   UNL     1      -9.863   6.298  -0.062  0.00  0.00    +0.002 A 
ATOM     32  C   UNL     1     -10.552   6.836   1.010  0.00  0.00    +0.001 A 
ATOM     33  C   UNL     1     -10.162   6.546   2.303  0.00  0.00    +0.016 A 
ATOM     34  C   UNL     1      -9.075   5.713   2.530  0.00  0.00    +0.029 A 
BRANCH  34  35
ATOM     35  S   UNL     1      -8.575   5.342   4.178  0.00  0.00    -0.127 S 
ATOM     36  C   UNL     1      -9.754   6.256   5.211  0.00  0.00    +0.090 C 
ENDBRANCH  34  35
ENDBRANCH  27  29
ENDBRANCH  24  25
ENDBRANCH  21  24
ENDBRANCH   2  21
TORSDOF 9
