REMARK  Name = ZINC07791324
REMARK  11 active torsions:
REMARK  status: ('A' for Active; 'I' for Inactive)
REMARK    1  A    between atoms: C_1  and  C_2
REMARK    2  A    between atoms: C_2  and  C_3
REMARK    3  A    between atoms: C_2  and  C_4
REMARK    4  A    between atoms: C_2  and  C_5
REMARK    5  A    between atoms: C_8  and  C_11
REMARK    6  A    between atoms: C_11  and  N_50
REMARK    7  A    between atoms: C_12  and  N_50
REMARK    8  A    between atoms: C_13  and  C_14
REMARK    9  A    between atoms: C_13  and  N_50
REMARK   10  A    between atoms: N_16  and  C_17
REMARK   11  A    between atoms: C_18  and  C_22
REMARK                            x       y       z     vdW  Elec       q    Type
REMARK                         _______ _______ _______ _____ _____    ______ ____
ROOT
ATOM      1  C   UNL     1       1.003  -4.120  -1.458  0.00  0.00    +0.019 C 
ENDROOT
BRANCH   1   2
ATOM      2  C   UNL     1       0.757  -4.542  -2.884  0.00  0.00    +0.201 C 
ATOM      3  O   UNL     1       0.764  -3.714  -3.771  0.00  0.00    -0.278 OA
ATOM      4  N   UNL     1       0.530  -5.838  -3.174  0.00  0.00    -0.281 N 
ATOM      5  H   UNL     1       0.525  -6.500  -2.465  0.00  0.00    +0.155 HD
BRANCH   4   6
ATOM      6  C   UNL     1       0.304  -6.226  -4.486  0.00  0.00    +0.084 A 
ATOM      7  C   UNL     1       0.059  -7.502  -4.979  0.00  0.00    +0.065 A 
ATOM      8  C   UNL     1      -0.147  -7.620  -6.403  0.00  0.00    +0.022 A 
ATOM      9  C   UNL     1      -0.075  -6.489  -7.130  0.00  0.00    +0.048 A 
ATOM     10  S   UNL     1       0.265  -5.239  -5.908  0.00  0.00    -0.081 S 
BRANCH   7  11
ATOM     11  C   UNL     1       0.010  -8.672  -4.096  0.00  0.00    +0.244 C 
ATOM     12  O   UNL     1       0.185  -8.538  -2.899  0.00  0.00    -0.270 OA
ATOM     13  N   UNL     1      -0.230  -9.894  -4.610  0.00  0.00    -0.325 N 
ATOM     14  H   UNL     1      -0.370 -10.001  -5.564  0.00  0.00    +0.145 HD
ATOM     15  H   UNL     1      -0.263 -10.668  -4.026  0.00  0.00    +0.145 HD
ENDBRANCH   7  11
ENDBRANCH   4   6
ENDBRANCH   1   2
BRANCH   1  17
ATOM     16  C   UNL     1       2.463  -2.299  -2.100  0.00  0.00    -0.095 C 
ATOM     17  N   UNL     1       1.200  -2.656  -1.421  0.00  0.00    +0.386 N 
ATOM     18  H   UNL     1       0.419  -2.202  -1.909  0.00  0.00    -0.081 HD
BRANCH  17  19
ATOM     19  C   UNL     1       1.229  -2.186  -0.021  0.00  0.00    -0.043 C 
BRANCH  19  23
ATOM     20  C   UNL     1       1.171   2.086   0.002  0.00  0.00    -0.042 A 
ATOM     21  C   UNL     1      -0.017   1.378   0.010  0.00  0.00    +0.004 A 
ATOM     22  C   UNL     1       0.002  -0.004   0.002  0.00  0.00    +0.002 A 
ATOM     23  C   UNL     1       1.208  -0.679  -0.013  0.00  0.00    -0.064 A 
ATOM     24  C   UNL     1       2.396   0.029  -0.021  0.00  0.00    +0.002 A 
ATOM     25  C   UNL     1       2.377   1.411  -0.015  0.00  0.00    +0.004 A 
BRANCH  20  27
ATOM     26  C   UNL     1       0.434   4.086   1.268  0.00  0.00    +0.015 C 
ATOM     27  C   UNL     1       1.151   3.592   0.010  0.00  0.00    -0.013 C 
ATOM     28  C   UNL     1       2.586   4.122  -0.001  0.00  0.00    +0.015 C 
ATOM     29  C   UNL     1       0.411   4.099  -1.230  0.00  0.00    +0.015 C 
ENDBRANCH  20  27
ENDBRANCH  19  23
ENDBRANCH  17  19
ENDBRANCH   1  17
TORSDOF 7
