REMARK  Name = ZINC38925603
REMARK  5 active torsions:
REMARK  status: ('A' for Active; 'I' for Inactive)
REMARK    1  A    between atoms: C_3  and  C_6
REMARK    2  A    between atoms: C_6  and  N_7
REMARK    3  A    between atoms: C_16  and  C_20
REMARK    4  A    between atoms: C_20  and  N_22
REMARK    5  A    between atoms: C_26  and  C_29
REMARK                            x       y       z     vdW  Elec       q    Type
REMARK                         _______ _______ _______ _____ _____    ______ ____
ROOT
ATOM      1  C   UNL     1       5.821  -2.016   3.255  0.00  0.00    +0.258 C 
ATOM      2  O   UNL     1       6.867  -1.692   3.785  0.00  0.00    -0.272 OA
ENDROOT
BRANCH   1  11
ATOM      3  N   UNL     1       4.095   0.486   1.342  0.00  0.00    -0.289 N 
ATOM      4  C   UNL     1       4.310   1.703   2.100  0.00  0.00    +0.087 C 
ATOM      5  C   UNL     1       3.354   2.809   1.675  0.00  0.00    +0.023 C 
ATOM      6  C   UNL     1       1.923   2.453   2.083  0.00  0.00    +0.002 C 
ATOM      7  C   UNL     1       1.867   2.275   3.603  0.00  0.00    +0.001 C 
ATOM      8  C   UNL     1       2.793   1.128   4.008  0.00  0.00    +0.013 C 
ATOM      9  C   UNL     1       4.210   1.458   3.603  0.00  0.00    +0.077 C 
ATOM     10  C   UNL     1       5.052   0.233   3.920  0.00  0.00    +0.159 C 
ATOM     11  C   UNL     1       4.660  -1.055   3.227  0.00  0.00    +0.229 C 
ATOM     12  C   UNL     1       4.306  -0.749   1.796  0.00  0.00    +0.236 C 
ATOM     13  O   UNL     1       4.178  -1.675   1.024  0.00  0.00    -0.274 OA
ATOM     14  O   UNL     1       5.986   0.284   4.684  0.00  0.00    -0.296 OA
BRANCH   3  15
ATOM     15  C   UNL     1       3.599   0.625  -0.029  0.00  0.00    +0.182 C 
BRANCH  15  18
ATOM     16  C   UNL     1       6.460   0.571  -2.352  0.00  0.00    +0.041 A 
ATOM     17  C   UNL     1       5.478  -0.092  -1.580  0.00  0.00    +0.046 A 
ATOM     18  C   UNL     1       4.759   0.862  -0.961  0.00  0.00    +0.122 A 
ATOM     19  O   UNL     1       5.251   2.060  -1.315  0.00  0.00    -0.466 OA
ATOM     20  C   UNL     1       6.282   1.890  -2.158  0.00  0.00    +0.195 A 
ENDBRANCH  15  18
ENDBRANCH   3  15
ENDBRANCH   1  11
BRANCH   1  21
ATOM     21  N   UNL     1       5.702  -3.216   2.702  0.00  0.00    -0.156 NA
ATOM     22  C   UNL     1       6.729  -4.068   2.727  0.00  0.00    +0.163 A 
ATOM     23  N   UNL     1       7.963  -3.888   3.272  0.00  0.00    -0.339 N 
ATOM     24  H   UNL     1       8.190  -3.055   3.715  0.00  0.00    +0.167 HD
ATOM     25  C   UNL     1       8.871  -4.896   3.185  0.00  0.00    +0.031 A 
ATOM     26  C   UNL     1       8.489  -6.015   2.561  0.00  0.00    +0.070 A 
ATOM     27  S   UNL     1       6.811  -5.625   2.099  0.00  0.00    -0.060 S 
BRANCH  25  28
ATOM     28  C   UNL     1      10.254  -4.757   3.768  0.00  0.00    +0.012 C 
ATOM     29  C   UNL     1      10.972  -3.579   3.105  0.00  0.00    +0.016 C 
ATOM     30  C   UNL     1      12.375  -3.438   3.697  0.00  0.00    -0.010 C 
ATOM     31  C   UNL     1      13.166  -4.724   3.447  0.00  0.00    +0.007 C 
ATOM     32  C   UNL     1      12.448  -5.902   4.110  0.00  0.00    -0.010 C 
ATOM     33  C   UNL     1      11.045  -6.043   3.518  0.00  0.00    +0.016 C 
ATOM     34  C   UNL     1      12.344  -5.652   5.616  0.00  0.00    +0.007 C 
ATOM     35  C   UNL     1      11.553  -4.366   5.866  0.00  0.00    -0.010 C 
ATOM     36  C   UNL     1      12.271  -3.189   5.203  0.00  0.00    +0.007 C 
ATOM     37  C   UNL     1      10.150  -4.507   5.274  0.00  0.00    +0.016 C 
ENDBRANCH  25  28
ENDBRANCH   1  21
TORSDOF 5
