REMARK  Name = ZINC13132404
REMARK  5 active torsions:
REMARK  status: ('A' for Active; 'I' for Inactive)
REMARK    1  A    between atoms: C_1  and  C_2
REMARK    2  A    between atoms: N_5  and  C_7
REMARK    3  A    between atoms: C_12  and  C_14
REMARK    4  A    between atoms: C_12  and  C_15
REMARK    5  A    between atoms: C_21  and  C_23
REMARK                            x       y       z     vdW  Elec       q    Type
REMARK                         _______ _______ _______ _____ _____    ______ ____
ROOT
ATOM      1  C   UNL     1       0.492   1.756  -0.289  0.00  0.00    +0.068 C 
ATOM      2  C   UNL     1       0.554   0.256  -0.152  0.00  0.00    +0.066 A 
ATOM      3  C   UNL     1       0.230  -0.676  -1.161  0.00  0.00    +0.032 A 
ATOM      4  C   UNL     1       0.414  -1.914  -0.652  0.00  0.00    +0.128 A 
ATOM      5  N   UNL     1       0.839  -1.759   0.640  0.00  0.00    -0.247 N 
ATOM      6  N   UNL     1       0.921  -0.394   0.914  0.00  0.00    -0.174 NA
ATOM      7  N   UNL     1       0.252  -3.164  -1.200  0.00  0.00    -0.270 N 
ATOM      8  C   UNL     1      -0.169  -3.617  -2.343  0.00  0.00    +0.228 C 
ATOM      9  O   UNL     1      -0.263  -4.824  -2.409  0.00  0.00    -0.275 OA
ATOM     10  C   UNL     1      -0.550  -2.896  -3.575  0.00  0.00    +0.166 C 
ATOM     11  S   UNL     1      -1.431  -1.363  -3.248  0.00  0.00    -0.138 S 
ATOM     12  C   UNL     1      -0.229  -0.247  -2.519  0.00  0.00    +0.112 C 
ATOM     13  H   UNL     1       0.513  -3.873  -0.592  0.00  0.00    +0.156 HD
ENDROOT
BRANCH  12  14
ATOM     14  C   UNL     1      -0.846   1.124  -2.411  0.00  0.00    -0.026 A 
ATOM     15  C   UNL     1      -2.049   1.289  -1.749  0.00  0.00    +0.009 A 
ATOM     16  C   UNL     1      -2.618   2.545  -1.647  0.00  0.00    +0.050 A 
ATOM     17  C   UNL     1      -1.984   3.641  -2.208  0.00  0.00    +0.166 A 
ATOM     18  C   UNL     1      -0.772   3.475  -2.874  0.00  0.00    +0.167 A 
ATOM     19  C   UNL     1      -0.205   2.215  -2.968  0.00  0.00    +0.054 A 
ATOM     20  O   UNL     1      -0.356   4.692  -3.332  0.00  0.00    -0.453 OA
ATOM     21  C   UNL     1      -1.521   5.536  -3.295  0.00  0.00    +0.466 C 
ATOM     22  O   UNL     1      -2.326   4.962  -2.248  0.00  0.00    -0.453 OA
ENDBRANCH  12  14
BRANCH   5  23
ATOM     23  C   UNL     1       1.159  -2.842   1.574  0.00  0.00    +0.114 C 
ATOM     24  C   UNL     1       2.619  -2.720   2.019  0.00  0.00    +0.055 C 
ATOM     25  C   UNL     1       2.922  -3.807   3.053  0.00  0.00    +0.162 C 
ATOM     26  O   UNL     1       2.022  -3.677   4.156  0.00  0.00    -0.374 OA
ATOM     27  C   UNL     1       0.645  -3.830   3.807  0.00  0.00    +0.066 C 
ATOM     28  C   UNL     1       0.250  -2.744   2.803  0.00  0.00    +0.061 C 
ATOM     29  C   UNL     1       0.427  -5.208   3.179  0.00  0.00    +0.041 C 
ATOM     30  C   UNL     1      -0.217  -3.700   5.064  0.00  0.00    +0.041 C 
ENDBRANCH   5  23
TORSDOF 2
