REMARK  Name = ZINC03463848
REMARK  4 active torsions:
REMARK  status: ('A' for Active; 'I' for Inactive)
REMARK    1  A    between atoms: C_1  and  C_2
REMARK    2  A    between atoms: C_3  and  N_9
REMARK    3  A    between atoms: C_10  and  C_12
REMARK    4  A    between atoms: C_12  and  N_13
REMARK                            x       y       z     vdW  Elec       q    Type
REMARK                         _______ _______ _______ _____ _____    ______ ____
ROOT
ATOM      1  N   UNL     1       0.208   5.128   1.133  0.00  0.00    -0.215 N 
ATOM      2  C   UNL     1       1.169   4.201   1.337  0.00  0.00    +0.251 C 
ATOM      3  O   UNL     1       1.712   3.922   2.385  0.00  0.00    -0.272 OA
ATOM      4  C   UNL     1       1.420   3.587  -0.015  0.00  0.00    +0.138 C 
ATOM      5  C   UNL     1       2.879   3.776  -0.449  0.00  0.00    +0.045 C 
ATOM      6  C   UNL     1       3.521   2.434  -0.025  0.00  0.00    +0.038 C 
ATOM      7  C   UNL     1       2.384   1.434  -0.022  0.00  0.00    -0.042 A 
ATOM      8  C   UNL     1       1.171   2.103  -0.007  0.00  0.00    -0.012 A 
ATOM      9  C   UNL     1      -0.010   1.381   0.009  0.00  0.00    +0.006 A 
ATOM     10  C   UNL     1       0.016   0.000   0.004  0.00  0.00    +0.000 A 
ATOM     11  C   UNL     1       1.227  -0.667  -0.015  0.00  0.00    +0.000 A 
ATOM     12  C   UNL     1       2.407   0.050  -0.028  0.00  0.00    +0.004 A 
ATOM     13  N   UNL     1       0.502   4.286  -0.914  0.00  0.00    -0.281 N 
ATOM     14  C   UNL     1      -0.169   5.173  -0.151  0.00  0.00    +0.310 C 
ATOM     15  O   UNL     1      -1.019   5.928  -0.581  0.00  0.00    -0.252 OA
ATOM     16  H   UNL     1       0.397   4.141  -1.868  0.00  0.00    +0.152 HD
ENDROOT
BRANCH   1  17
ATOM     17  C   UNL     1      -0.353   5.979   2.186  0.00  0.00    +0.214 C 
BRANCH  17  19
ATOM     18  N   UNL     1      -2.224   5.893   3.802  0.00  0.00    -0.284 N 
ATOM     19  C   UNL     1      -1.544   5.293   2.805  0.00  0.00    +0.235 C 
ATOM     20  O   UNL     1      -1.890   4.202   2.406  0.00  0.00    -0.274 OA
ATOM     21  H   UNL     1      -1.901   6.728   4.176  0.00  0.00    +0.155 HD
BRANCH  18  24
ATOM     22  C   UNL     1      -3.015   6.524   6.462  0.00  0.00    +0.047 C 
ATOM     23  C   UNL     1      -3.819   5.592   5.591  0.00  0.00    -0.011 A 
ATOM     24  C   UNL     1      -3.396   5.312   4.298  0.00  0.00    +0.038 A 
ATOM     25  C   UNL     1      -4.142   4.457   3.497  0.00  0.00    +0.023 A 
ATOM     26  C   UNL     1      -5.295   3.880   3.991  0.00  0.00    +0.003 A 
ATOM     27  C   UNL     1      -5.714   4.160   5.278  0.00  0.00    +0.020 A 
ATOM     28  C   UNL     1      -4.977   5.016   6.077  0.00  0.00    +0.046 A 
ATOM     29 CL   UNL     1      -5.506   5.366   7.693  0.00  0.00    -0.083 Cl
ENDBRANCH  18  24
ENDBRANCH  17  19
ENDBRANCH   1  17
TORSDOF 3
