REMARK  Name = ZINC35373249
REMARK  7 active torsions:
REMARK  status: ('A' for Active; 'I' for Inactive)
REMARK    1  A    between atoms: C_1  and  C_2
REMARK    2  A    between atoms: C_5  and  C_7
REMARK    3  A    between atoms: C_12  and  C_19
REMARK    4  A    between atoms: C_14  and  C_17
REMARK    5  A    between atoms: C_14  and  C_18
REMARK    6  A    between atoms: N_28  and  C_33
REMARK    7  A    between atoms: N_31  and  C_32
REMARK                            x       y       z     vdW  Elec       q    Type
REMARK                         _______ _______ _______ _____ _____    ______ ____
ROOT
ATOM      1  C   UNL     1       1.163  -4.393  -0.796  0.00  0.00    +0.232 C 
ATOM      2  C   UNL     1       2.112  -4.086  -1.933  0.00  0.00    +0.081 A 
ATOM      3  C   UNL     1       1.944  -3.241  -2.942  0.00  0.00    +0.083 A 
ATOM      4  C   UNL     1       3.172  -3.320  -3.772  0.00  0.00    +0.089 A 
ATOM      5  C   UNL     1       3.992  -4.236  -3.165  0.00  0.00    +0.064 A 
ATOM      6  N   UNL     1       3.348  -4.695  -2.056  0.00  0.00    -0.331 N 
ATOM      7  C   UNL     1       3.845  -5.692  -1.098  0.00  0.00    +0.064 C 
ATOM      8  C   UNL     1       2.655  -6.200  -0.274  0.00  0.00    +0.189 C 
ATOM      9  O   UNL     1       1.899  -5.091   0.217  0.00  0.00    -0.360 OA
ATOM     10  C   UNL     1       4.486  -6.858  -1.852  0.00  0.00    +0.036 C 
ATOM     11  C   UNL     1       4.876  -5.046  -0.170  0.00  0.00    +0.036 C 
ATOM     12  C   UNL     1       3.278  -2.485  -4.973  0.00  0.00    +0.266 A 
ATOM     13  O   UNL     1       4.258  -2.505  -5.694  0.00  0.00    -0.267 OA
ATOM     14  N   UNL     1       2.207  -1.689  -5.226  0.00  0.00    -0.263 N 
ATOM     15  C   UNL     1       1.116  -1.644  -4.457  0.00  0.00    +0.332 A 
ATOM     16  O   UNL     1       0.226  -0.887  -4.796  0.00  0.00    -0.246 OA
ATOM     17  N   UNL     1       0.917  -2.368  -3.333  0.00  0.00    -0.294 N 
ATOM     18  C   UNL     1      -0.319  -2.248  -2.556  0.00  0.00    +0.154 C 
ATOM     19  C   UNL     1       2.251  -0.830  -6.413  0.00  0.00    +0.157 C 
ENDROOT
BRANCH   5  20
ATOM     20  C   UNL     1       5.331  -4.649  -3.629  0.00  0.00    -0.001 A 
ATOM     21  C   UNL     1       5.463  -5.685  -4.557  0.00  0.00    +0.011 A 
ATOM     22  C   UNL     1       6.717  -6.066  -4.986  0.00  0.00    +0.016 A 
ATOM     23  C   UNL     1       7.844  -5.424  -4.500  0.00  0.00    +0.018 A 
ATOM     24  C   UNL     1       7.720  -4.396  -3.580  0.00  0.00    +0.016 A 
ATOM     25  C   UNL     1       6.471  -4.001  -3.147  0.00  0.00    +0.011 A 
ATOM     26 BR   UNL     1       9.559  -5.954  -5.094  0.00  0.00    -0.050 Br
ENDBRANCH   5  20
BRANCH   1  31
ATOM     27  C   UNL     1      -2.102  -0.820   0.623  0.00  0.00    +0.086 C 
ATOM     28  C   UNL     1      -0.808  -1.555   0.385  0.00  0.00    +0.102 A 
ATOM     29  C   UNL     1       0.420  -1.108   0.702  0.00  0.00    +0.045 A 
ATOM     30  C   UNL     1       1.335  -2.110   0.304  0.00  0.00    +0.048 A 
ATOM     31  C   UNL     1       0.611  -3.109  -0.232  0.00  0.00    +0.140 A 
ATOM     32  O   UNL     1      -0.687  -2.769  -0.175  0.00  0.00    -0.462 OA
ENDBRANCH   1  31
TORSDOF 2
