REMARK  Name = ZINC44257787
REMARK  3 active torsions:
REMARK  status: ('A' for Active; 'I' for Inactive)
REMARK    1  A    between atoms: C_2  and  S_8
REMARK    2  A    between atoms: S_8  and  N_11
REMARK    3  A    between atoms: C_14  and  C_17
REMARK                            x       y       z     vdW  Elec       q    Type
REMARK                         _______ _______ _______ _____ _____    ______ ____
ROOT
ATOM      1  S   UNL     1       1.231   3.821   0.010  0.00  0.00    +0.103 S 
ATOM      2  O   UNL     1       2.480   4.203  -0.550  0.00  0.00    -0.146 OA
ATOM      3  O   UNL     1      -0.010   4.256  -0.527  0.00  0.00    -0.146 OA
ENDROOT
BRANCH   1   5
ATOM      4  C   UNL     1      -0.017   1.383   0.010  0.00  0.00    +0.047 A 
ATOM      5  C   UNL     1       1.194   2.059   0.002  0.00  0.00    +0.132 A 
ATOM      6  C   UNL     1       2.370   1.334  -0.013  0.00  0.00    +0.139 A 
ATOM      7  N   UNL     1       2.351   0.016  -0.020  0.00  0.00    -0.260 NA
ATOM      8  C   UNL     1       1.219  -0.661  -0.013  0.00  0.00    +0.126 A 
ATOM      9  C   UNL     1       0.002  -0.004   0.002  0.00  0.00    +0.038 A 
ATOM     10 BR   UNL     1      -1.615  -0.984   0.013  0.00  0.00    -0.049 Br
ENDBRANCH   1   5
BRANCH   1  11
ATOM     11  N   UNL     1       1.257   4.302   1.595  0.00  0.00    -0.103 NA
ATOM     12  C   UNL     1       1.287   5.578   1.891  0.00  0.00    +0.192 A 
ATOM     13  N   UNL     1       1.317   6.188   3.127  0.00  0.00    -0.336 N 
ATOM     14  C   UNL     1       1.345   7.550   3.180  0.00  0.00    +0.028 A 
ATOM     15  C   UNL     1       1.343   8.265   2.055  0.00  0.00    +0.070 A 
ATOM     16  S   UNL     1       1.307   6.994   0.802  0.00  0.00    -0.057 S 
ATOM     17  H   UNL     1       1.318   5.659   3.940  0.00  0.00    +0.168 HD
BRANCH  14  18
ATOM     18  C   UNL     1       1.379   8.250   4.514  0.00  0.00    +0.036 C 
ATOM     19  C   UNL     1       1.176   7.393   5.766  0.00  0.00    +0.010 C 
ATOM     20  C   UNL     1       2.562   7.953   5.438  0.00  0.00    +0.010 C 
ENDBRANCH  14  18
ENDBRANCH   1  11
TORSDOF 3
