REMARK  Name = ZINC67313497
REMARK  7 active torsions:
REMARK  status: ('A' for Active; 'I' for Inactive)
REMARK    1  A    between atoms: C_1  and  C_2
REMARK    2  A    between atoms: C_5  and  N_11
REMARK    3  A    between atoms: C_7  and  C_8
REMARK    4  A    between atoms: N_14  and  C_15
REMARK    5  A    between atoms: C_15  and  C_16
REMARK    6  A    between atoms: C_16  and  C_18
REMARK    7  A    between atoms: C_16  and  N_23
REMARK                            x       y       z     vdW  Elec       q    Type
REMARK                         _______ _______ _______ _____ _____    ______ ____
ROOT
ATOM      1  N   UNL     1       0.167  -4.112   0.711  0.00  0.00    -0.269 N 
ATOM      2  C   UNL     1       0.454  -5.040  -0.224  0.00  0.00    +0.304 C 
ATOM      3  O   UNL     1       0.482  -4.730  -1.399  0.00  0.00    -0.253 OA
ATOM      4  N   UNL     1       0.711  -6.311   0.145  0.00  0.00    -0.300 N 
ATOM      5  H   UNL     1       0.074  -4.373   1.641  0.00  0.00    +0.156 HD
ATOM      6  H   UNL     1       0.689  -6.558   1.082  0.00  0.00    +0.150 HD
ENDROOT
BRANCH   1  11
ATOM      7  C   UNL     1      -0.490   1.335  -0.769  0.00  0.00    +0.044 C 
ATOM      8  C   UNL     1      -0.317  -0.110  -0.380  0.00  0.00    -0.038 A 
ATOM      9  C   UNL     1       0.263  -0.434   0.830  0.00  0.00    +0.006 A 
ATOM     10  C   UNL     1       0.424  -1.759   1.192  0.00  0.00    +0.023 A 
ATOM     11  C   UNL     1       0.001  -2.773   0.340  0.00  0.00    +0.035 A 
ATOM     12  C   UNL     1      -0.584  -2.458  -0.876  0.00  0.00    +0.036 A 
ATOM     13  C   UNL     1      -0.750  -1.121  -1.239  0.00  0.00    +0.041 A 
BRANCH  13  14
ATOM     14  C   UNL     1      -1.378  -0.777  -2.533  0.00  0.00    +0.242 C 
ATOM     15  O   UNL     1      -1.458   0.386  -2.879  0.00  0.00    -0.270 OA
ATOM     16  N   UNL     1      -1.863  -1.751  -3.327  0.00  0.00    -0.325 N 
ATOM     17  H   UNL     1      -1.800  -2.679  -3.051  0.00  0.00    +0.145 HD
ATOM     18  H   UNL     1      -2.275  -1.525  -4.176  0.00  0.00    +0.145 HD
ENDBRANCH  13  14
ENDBRANCH   1  11
BRANCH   4  19
ATOM     19  C   UNL     1       1.023  -7.319  -0.871  0.00  0.00    +0.095 C 
BRANCH  19  20
ATOM     20  C   UNL     1       1.148  -8.691  -0.206  0.00  0.00    -0.013 C 
BRANCH  20  21
ATOM     21  N   UNL     1       1.591  -9.678  -1.200  0.00  0.00    +0.386 N 
ATOM     22  C   UNL     1       2.987  -9.393  -1.618  0.00  0.00    -0.078 C 
ATOM     23  C   UNL     1       3.476 -10.755  -2.173  0.00  0.00    -0.020 C 
ATOM     24  C   UNL     1       2.815 -11.775  -1.218  0.00  0.00    -0.020 C 
ATOM     25  C   UNL     1       1.617 -11.030  -0.600  0.00  0.00    -0.078 C 
ATOM     26  H   UNL     1       0.978  -9.665  -2.001  0.00  0.00    -0.081 HD
ENDBRANCH  20  21
BRANCH  20  27
ATOM     27  C   UNL     1      -0.190  -9.104   0.350  0.00  0.00    -0.022 A 
ATOM     28  C   UNL     1      -0.644  -9.031   1.625  0.00  0.00    +0.009 A 
ATOM     29  C   UNL     1      -1.923  -9.473   1.908  0.00  0.00    +0.008 A 
ATOM     30  C   UNL     1      -2.685  -9.966   0.901  0.00  0.00    +0.045 A 
ATOM     31  S   UNL     1      -1.593  -9.808  -0.502  0.00  0.00    -0.103 S 
ENDBRANCH  20  27
ENDBRANCH  19  20
ENDBRANCH   4  19
TORSDOF 6
