REMARK  Name = ZINC06683720
REMARK  10 active torsions:
REMARK  status: ('A' for Active; 'I' for Inactive)
REMARK    1  A    between atoms: C_1  and  C_2
REMARK    2  A    between atoms: C_4  and  C_12
REMARK    3  A    between atoms: C_5  and  C_11
REMARK    4  A    between atoms: N_6  and  C_7
REMARK    5  A    between atoms: C_7  and  C_8
REMARK    6  A    between atoms: C_8  and  C_9
REMARK    7  A    between atoms: C_8  and  C_10
REMARK    8  A    between atoms: N_13  and  N_14
REMARK    9  A    between atoms: C_15  and  C_17
REMARK   10  A    between atoms: C_19  and  N_24
REMARK                            x       y       z     vdW  Elec       q    Type
REMARK                         _______ _______ _______ _____ _____    ______ ____
ROOT
ATOM      1  N   UNL     1      -0.011   0.966   0.007  0.00  0.00    -0.202 N 
ATOM      2  C   UNL     1      -1.187   1.624   0.017  0.00  0.00    +0.281 C 
ATOM      3  O   UNL     1      -1.204   2.840   0.023  0.00  0.00    -0.267 OA
ATOM      4  H   UNL     1       0.002  -0.004   0.002  0.00  0.00    +0.178 HD
ENDROOT
BRANCH   2   5
ATOM      5  C   UNL     1      -2.458   0.867   0.018  0.00  0.00    +0.125 A 
ATOM      6  C   UNL     1      -3.670   1.553   0.034  0.00  0.00    +0.091 A 
ATOM      7  C   UNL     1      -4.859   0.824   0.030  0.00  0.00    +0.067 A 
ATOM      8  C   UNL     1      -4.783  -0.568   0.022  0.00  0.00    +0.098 A 
ATOM      9  C   UNL     1      -3.539  -1.178   0.013  0.00  0.00    +0.128 A 
ATOM     10 CL   UNL     1      -3.436  -2.911   0.003  0.00  0.00    -0.062 Cl
ATOM     11 CL   UNL     1      -6.231  -1.526   0.024  0.00  0.00    -0.079 Cl
ATOM     12 CL   UNL     1      -3.699   3.288   0.051  0.00  0.00    -0.079 Cl
ATOM     13  N   UNL     1      -2.362  -0.500   0.011  0.00  0.00    -0.339 N 
ATOM     14  H   UNL     1      -1.456  -0.983   0.003  0.00  0.00    +0.167 HD
BRANCH   7  15
ATOM     15  N   UNL     1      -6.093   1.471   0.039  0.00  0.00    -0.356 N 
ATOM     16  H   UNL     1      -6.913   0.953   0.041  0.00  0.00    +0.142 HD
ATOM     17  H   UNL     1      -6.133   2.441   0.045  0.00  0.00    +0.142 HD
ENDBRANCH   7  15
ENDBRANCH   2   5
BRANCH   1  19
ATOM     18  C   UNL     1       2.326   1.049  -0.015  0.00  0.00    +0.140 C 
ATOM     19  N   UNL     1       1.193   1.683  -0.000  0.00  0.00    -0.187 NA
BRANCH  18  23
ATOM     20  C   UNL     1       7.297   2.207  -0.054  0.00  0.00    +0.063 C 
ATOM     21  C   UNL     1       5.792   2.294  -0.040  0.00  0.00    +0.016 A 
ATOM     22  C   UNL     1       4.948   1.246  -0.032  0.00  0.00    +0.032 A 
ATOM     23  C   UNL     1       3.592   1.803  -0.023  0.00  0.00    +0.015 A 
ATOM     24  C   UNL     1       3.737   3.161  -0.017  0.00  0.00    +0.024 A 
ATOM     25  N   UNL     1       5.065   3.447  -0.027  0.00  0.00    -0.347 N 
ATOM     26  C   UNL     1       2.617   4.169  -0.001  0.00  0.00    +0.064 C 
BRANCH  25  27
ATOM     27  C   UNL     1       5.633   4.798  -0.025  0.00  0.00    +0.124 C 
BRANCH  27  28
ATOM     28  C   UNL     1       5.844   5.260   1.418  0.00  0.00    +0.003 C 
ATOM     29  C   UNL     1       6.899   4.376   2.088  0.00  0.00    +0.009 C 
ATOM     30  C   UNL     1       6.319   6.714   1.424  0.00  0.00    +0.009 C 
ENDBRANCH  27  28
ENDBRANCH  25  27
ENDBRANCH  18  23
ENDBRANCH   1  19
TORSDOF 6
