REMARK  Name = ZINC25435867
REMARK  5 active torsions:
REMARK  status: ('A' for Active; 'I' for Inactive)
REMARK    1  A    between atoms: C_6  and  N_7
REMARK    2  A    between atoms: C_11  and  C_28
REMARK    3  A    between atoms: C_12  and  N_20
REMARK    4  A    between atoms: C_16  and  N_18
REMARK    5  A    between atoms: C_24  and  O_27
REMARK                            x       y       z     vdW  Elec       q    Type
REMARK                         _______ _______ _______ _____ _____    ______ ____
ROOT
ATOM      1  N   UNL     1       5.533   9.598  -1.962  0.00  0.00    -0.224 N 
ATOM      2  C   UNL     1       4.305   9.021  -1.651  0.00  0.00    +0.138 A 
ATOM      3  C   UNL     1       4.497   7.788  -1.051  0.00  0.00    +0.011 A 
ATOM      4  C   UNL     1       3.398   7.034  -0.656  0.00  0.00    +0.016 A 
ATOM      5  C   UNL     1       3.509   5.726  -0.012  0.00  0.00    +0.100 A 
ATOM      6  C   UNL     1       2.318   5.066   0.332  0.00  0.00    +0.142 A 
ATOM      7  N   UNL     1       1.135   5.615   0.089  0.00  0.00    -0.216 NA
ATOM      8  C   UNL     1       0.981   6.795  -0.486  0.00  0.00    +0.129 A 
ATOM      9  C   UNL     1       2.097   7.556  -0.883  0.00  0.00    +0.063 A 
ATOM     10  C   UNL     1       1.982   8.815  -1.498  0.00  0.00    +0.129 A 
ATOM     11  N   UNL     1       3.065   9.483  -1.850  0.00  0.00    -0.216 NA
ATOM     12  N   UNL     1      -0.289   7.287  -0.699  0.00  0.00    -0.343 N 
ATOM     13  C   UNL     1       5.989   7.572  -0.978  0.00  0.00    +0.136 C 
ATOM     14  C   UNL     1       6.570   8.822  -1.604  0.00  0.00    +0.230 C 
ATOM     15  O   UNL     1       7.746   9.075  -1.755  0.00  0.00    -0.275 OA
ATOM     16  H   UNL     1      -0.425   8.268  -1.177  0.00  0.00    +0.144 HD
ATOM     17  H   UNL     1      -1.166   6.698  -0.391  0.00  0.00    +0.144 HD
ENDROOT
BRANCH   1  23
ATOM     18  C   UNL     1       4.546  11.586  -2.915  0.00  0.00    +0.028 A 
ATOM     19  C   UNL     1       4.682  12.820  -3.524  0.00  0.00    +0.051 A 
ATOM     20  C   UNL     1       5.942  13.324  -3.799  0.00  0.00    +0.166 A 
ATOM     21  C   UNL     1       7.075  12.586  -3.462  0.00  0.00    +0.168 A 
ATOM     22  C   UNL     1       6.938  11.353  -2.848  0.00  0.00    +0.073 A 
ATOM     23  C   UNL     1       5.673  10.849  -2.579  0.00  0.00    +0.046 A 
ATOM     24  O   UNL     1       8.182  13.293  -3.834  0.00  0.00    -0.453 OA
ATOM     25  C   UNL     1       7.712  14.281  -4.769  0.00  0.00    +0.466 C 
ATOM     26  O   UNL     1       6.341  14.493  -4.382  0.00  0.00    -0.453 OA
ENDBRANCH   1  23
BRANCH   6  27
ATOM     27  N   UNL     1       2.380   3.826   0.938  0.00  0.00    -0.312 N 
ATOM     28  C   UNL     1       1.744   3.855   2.261  0.00  0.00    +0.107 C 
ATOM     29  C   UNL     1       1.958   2.511   2.961  0.00  0.00    +0.021 C 
ATOM     30  C   UNL     1       1.352   1.394   2.108  0.00  0.00    +0.034 C 
ATOM     31  C   UNL     1       1.996   1.417   0.719  0.00  0.00    +0.132 C 
ATOM     32  C   UNL     1       1.781   2.792   0.084  0.00  0.00    +0.137 C 
BRANCH  31  33
ATOM     33  O   UNL     1       1.396   0.413  -0.102  0.00  0.00    -0.390 OA
ATOM     34  H   UNL     1       1.732   0.279  -1.141  0.00  0.00    +0.210 HD
ENDBRANCH  31  33
ENDBRANCH   6  27
BRANCH  10  35
ATOM     35  N   UNL     1       0.732   9.355  -1.736  0.00  0.00    -0.343 N 
ATOM     36  H   UNL     1       0.640  10.340  -2.217  0.00  0.00    +0.144 HD
ATOM     37  H   UNL     1      -0.172   8.799  -1.444  0.00  0.00    +0.144 HD
ENDBRANCH  10  35
BRANCH   5  38
ATOM     38  C   UNL     1       4.787   5.137   0.255  0.00  0.00    +0.103 C 
ATOM     39  N   UNL     1       5.800   4.669   0.467  0.00  0.00    -0.191 NA
ENDBRANCH   5  38
TORSDOF 5
