REMARK  Name = ZINC30200218
REMARK  4 active torsions:
REMARK  status: ('A' for Active; 'I' for Inactive)
REMARK    1  A    between atoms: C_1  and  C_2
REMARK    2  A    between atoms: C_2  and  C_4
REMARK    3  A    between atoms: C_2  and  N_15
REMARK    4  A    between atoms: N_6  and  C_7
REMARK                            x       y       z     vdW  Elec       q    Type
REMARK                         _______ _______ _______ _____ _____    ______ ____
ROOT
ATOM      1  C   UNL     1       4.372   5.552  -1.475  0.00  0.00    -0.004 C 
ATOM      2  C   UNL     1       3.630   6.000  -0.215  0.00  0.00    +0.017 C 
ENDROOT
BRANCH   2   3
ATOM      3  N   UNL     1       3.342   7.438  -0.302  0.00  0.00    +0.389 N 
ATOM      4  C   UNL     1       2.529   7.741  -1.488  0.00  0.00    -0.059 C 
ATOM      5  C   UNL     1       2.184   9.232  -1.499  0.00  0.00    +0.088 C 
ATOM      6  N   UNL     1       3.425  10.019  -1.499  0.00  0.00    -0.319 N 
ATOM      7  C   UNL     1       4.238   9.716  -0.313  0.00  0.00    +0.088 C 
ATOM      8  C   UNL     1       4.583   8.225  -0.302  0.00  0.00    -0.059 C 
ATOM      9  C   UNL     1       3.152  11.380  -1.582  0.00  0.00    +0.121 A 
ATOM     10  C   UNL     1       2.396  11.868  -2.643  0.00  0.00    +0.045 A 
ATOM     11  C   UNL     1       2.127  13.223  -2.710  0.00  0.00    +0.020 A 
ATOM     12  C   UNL     1       2.634  14.050  -1.715  0.00  0.00    +0.036 A 
ATOM     13  C   UNL     1       3.381  13.498  -0.693  0.00  0.00    +0.128 A 
ATOM     14  N   UNL     1       3.617  12.200  -0.652  0.00  0.00    -0.239 NA
ATOM     15 BR   UNL     1       2.304  15.911  -1.759  0.00  0.00    -0.049 Br
ATOM     16  H   UNL     1       2.761   7.719   0.589  0.00  0.00    -0.081 HD
ENDBRANCH   2   3
BRANCH   2  17
ATOM     17  C   UNL     1       2.338   5.235  -0.093  0.00  0.00    +0.203 C 
ATOM     18  O   UNL     1       1.280   5.828  -0.081  0.00  0.00    -0.277 OA
ATOM     19  N   UNL     1       2.357   3.890   0.001  0.00  0.00    -0.286 N 
ATOM     20  H   UNL     1       3.317   3.357   0.064  0.00  0.00    +0.155 HD
BRANCH  19  21
ATOM     21  C   UNL     1       1.155   3.173   0.019  0.00  0.00    +0.053 A 
ATOM     22  C   UNL     1       0.034   3.709   0.637  0.00  0.00    +0.044 A 
ATOM     23  C   UNL     1      -1.151   2.998   0.653  0.00  0.00    +0.043 A 
ATOM     24  C   UNL     1      -1.222   1.754   0.050  0.00  0.00    +0.021 A 
ATOM     25  C   UNL     1      -0.105   1.215  -0.562  0.00  0.00    +0.023 A 
ATOM     26  C   UNL     1       1.083   1.922  -0.582  0.00  0.00    +0.062 A 
ATOM     27 CL   UNL     1       2.482   1.246  -1.355  0.00  0.00    -0.082 Cl
ATOM     28 CL   UNL     1      -2.554   3.668   1.426  0.00  0.00    -0.083 Cl
ENDBRANCH  19  21
ENDBRANCH   2  17
TORSDOF 3
