REMARK  Name = ZINC63138723
REMARK  5 active torsions:
REMARK  status: ('A' for Active; 'I' for Inactive)
REMARK    1  A    between atoms: C_1  and  C_2
REMARK    2  A    between atoms: C_2  and  C_36
REMARK    3  A    between atoms: N_14  and  C_17
REMARK    4  A    between atoms: C_17  and  C_18
REMARK    5  A    between atoms: C_18  and  C_19
REMARK                            x       y       z     vdW  Elec       q    Type
REMARK                         _______ _______ _______ _____ _____    ______ ____
ROOT
ATOM      1  C   UNL     1       0.133   1.518   0.092  0.00  0.00    +0.034 C 
ATOM      2  C   UNL     1       0.002  -0.004   0.002  0.00  0.00    +0.055 C 
ATOM      3  C   UNL     1      -1.460  -0.412   0.043  0.00  0.00    +0.133 C 
ATOM      4  C   UNL     1      -1.519  -1.901   0.492  0.00  0.00    +0.030 C 
ATOM      5  C   UNL     1      -1.297  -1.946   1.993  0.00  0.00    +0.038 C 
ATOM      6  C   UNL     1      -0.233  -0.890   2.336  0.00  0.00    +0.163 C 
ATOM      7  N   UNL     1       0.610  -0.647   1.195  0.00  0.00    -0.281 N 
ATOM      8  C   UNL     1       1.900  -0.987   1.175  0.00  0.00    +0.234 C 
ATOM      9  O   UNL     1       2.565  -0.664   0.214  0.00  0.00    -0.274 OA
ATOM     10  C   UNL     1       2.568  -1.746   2.279  0.00  0.00    +0.203 C 
ATOM     11  N   UNL     1       1.797  -1.687   3.512  0.00  0.00    -0.291 N 
ATOM     12  C   UNL     1       0.565  -1.319   3.522  0.00  0.00    +0.237 C 
ATOM     13  O   UNL     1       0.024  -1.318   4.608  0.00  0.00    -0.274 OA
ATOM     14  C   UNL     1      -2.931  -2.221   0.007  0.00  0.00    +0.065 C 
ATOM     15  C   UNL     1      -3.129  -3.669  -0.315  0.00  0.00    -0.017 C 
ATOM     16  C   UNL     1      -3.706  -4.055  -1.448  0.00  0.00    -0.004 C 
ATOM     17  C   UNL     1      -4.176  -3.108  -2.457  0.00  0.00    +0.001 C 
ATOM     18  C   UNL     1      -3.824  -1.800  -2.383  0.00  0.00    +0.023 C 
ATOM     19  C   UNL     1      -3.023  -1.392  -1.268  0.00  0.00    +0.043 C 
ATOM     20  N   UNL     1      -2.185  -0.412  -1.217  0.00  0.00    -0.282 NA
ATOM     21  C   UNL     1       0.666  -0.519  -1.276  0.00  0.00    +0.034 C 
ENDROOT
BRANCH  11  22
ATOM     22  C   UNL     1       2.454  -2.065   4.765  0.00  0.00    +0.113 C 
BRANCH  22  23
ATOM     23  C   UNL     1       3.099  -0.829   5.396  0.00  0.00    +0.052 C 
BRANCH  23  24
ATOM     24  C   UNL     1       3.775  -1.218   6.686  0.00  0.00    -0.040 C 
ATOM     25  C   UNL     1       5.079  -1.534   6.857  0.00  0.00    -0.001 A 
ATOM     26  C   UNL     1       6.214  -1.608   5.929  0.00  0.00    +0.010 A 
ATOM     27  C   UNL     1       7.429  -1.963   6.407  0.00  0.00    +0.001 A 
ATOM     28  C   UNL     1       7.630  -2.261   7.761  0.00  0.00    +0.002 A 
ATOM     29  C   UNL     1       6.636  -2.214   8.674  0.00  0.00    +0.026 A 
ATOM     30  C   UNL     1       5.318  -1.853   8.283  0.00  0.00    +0.043 A 
ATOM     31  N   UNL     1       4.205  -1.738   8.966  0.00  0.00    -0.380 N 
ATOM     32  C   UNL     1       3.134  -1.328   8.051  0.00  0.00    +0.144 C 
ATOM     33  H   UNL     1       4.107  -1.895   9.918  0.00  0.00    +0.160 HD
ENDBRANCH  23  24
ENDBRANCH  22  23
ENDBRANCH  11  22
TORSDOF 3
