REMARK  Name = ZINC38670337
REMARK  9 active torsions:
REMARK  status: ('A' for Active; 'I' for Inactive)
REMARK    1  A    between atoms: C_1  and  N_2
REMARK    2  A    between atoms: C_10  and  C_12
REMARK    3  A    between atoms: C_12  and  C_14
REMARK    4  A    between atoms: C_12  and  N_29
REMARK    5  A    between atoms: C_14  and  N_15
REMARK    6  A    between atoms: N_18  and  C_19
REMARK    7  A    between atoms: C_22  and  C_25
REMARK    8  A    between atoms: N_29  and  C_30
REMARK    9  A    between atoms: N_29  and  C_31
REMARK                            x       y       z     vdW  Elec       q    Type
REMARK                         _______ _______ _______ _____ _____    ______ ____
ROOT
ATOM      1  C   UNL     1       5.192  -3.102  -2.095  0.00  0.00    +0.095 C 
ENDROOT
BRANCH   1   2
ATOM      2  N   UNL     1       4.109  -3.935  -2.625  0.00  0.00    -0.300 N 
ATOM      3  C   UNL     1       4.046  -4.198  -3.946  0.00  0.00    +0.304 C 
ATOM      4  O   UNL     1       4.888  -3.745  -4.697  0.00  0.00    -0.253 OA
ATOM      5  N   UNL     1       3.051  -4.964  -4.433  0.00  0.00    -0.269 N 
ATOM      6  H   UNL     1       3.438  -4.297  -2.026  0.00  0.00    +0.150 HD
ATOM      7  H   UNL     1       2.333  -5.256  -3.850  0.00  0.00    +0.156 HD
BRANCH   5   8
ATOM      8  C   UNL     1       3.052  -5.340  -5.781  0.00  0.00    +0.035 A 
ATOM      9  C   UNL     1       1.853  -5.458  -6.472  0.00  0.00    +0.024 A 
ATOM     10  C   UNL     1       1.859  -5.828  -7.803  0.00  0.00    +0.014 A 
ATOM     11  C   UNL     1       3.056  -6.080  -8.447  0.00  0.00    +0.055 A 
ATOM     12  C   UNL     1       4.251  -5.963  -7.762  0.00  0.00    +0.014 A 
ATOM     13  C   UNL     1       4.253  -5.588  -6.433  0.00  0.00    +0.024 A 
BRANCH  11  14
ATOM     14  C   UNL     1       3.058  -6.483  -9.899  0.00  0.00    +0.417 C 
ATOM     15  F   UNL     1       3.135  -5.340 -10.701  0.00  0.00    -0.166 F 
ATOM     16  F   UNL     1       4.160  -7.306 -10.153  0.00  0.00    -0.166 F 
ATOM     17  F   UNL     1       1.879  -7.179 -10.192  0.00  0.00    -0.166 F 
ENDBRANCH  11  14
ENDBRANCH   5   8
ENDBRANCH   1   2
BRANCH   1  18
ATOM     18  C   UNL     1       4.962  -2.855  -0.603  0.00  0.00    -0.021 C 
BRANCH  18  28
ATOM     19  C   UNL     1       0.101   1.423   0.204  0.00  0.00    +0.129 C 
ATOM     20  N   UNL     1       0.092  -0.040   0.124  0.00  0.00    -0.333 N 
ATOM     21  C   UNL     1      -1.171  -0.785   0.223  0.00  0.00    +0.105 C 
ATOM     22  C   UNL     1      -0.941  -1.973   1.167  0.00  0.00    +0.024 C 
ATOM     23  C   UNL     1       0.104  -2.900   0.547  0.00  0.00    +0.038 C 
ATOM     24  C   UNL     1       1.330  -2.122   0.148  0.00  0.00    -0.026 A 
ATOM     25  C   UNL     1       1.284  -0.750  -0.054  0.00  0.00    +0.033 A 
ATOM     26  C   UNL     1       2.432  -0.062  -0.432  0.00  0.00    +0.023 A 
ATOM     27  C   UNL     1       3.619  -0.744  -0.609  0.00  0.00    +0.004 A 
ATOM     28  C   UNL     1       3.665  -2.111  -0.411  0.00  0.00    -0.059 A 
ATOM     29  C   UNL     1       2.526  -2.798  -0.025  0.00  0.00    +0.007 A 
ENDBRANCH  18  28
BRANCH  18  30
ATOM     30  N   UNL     1       6.070  -2.057  -0.062  0.00  0.00    +0.382 N 
ATOM     31  C   UNL     1       5.905  -1.912   1.391  0.00  0.00    -0.096 C 
ATOM     32  C   UNL     1       7.343  -2.731  -0.346  0.00  0.00    -0.096 C 
ATOM     33  H   UNL     1       6.069  -1.145  -0.493  0.00  0.00    -0.082 HD
ENDBRANCH  18  30
ENDBRANCH   1  18
TORSDOF 6
