REMARK  Name = ZINC36028080
REMARK  8 active torsions:
REMARK  status: ('A' for Active; 'I' for Inactive)
REMARK    1  A    between atoms: C_1  and  C_2
REMARK    2  A    between atoms: C_2  and  C_3
REMARK    3  A    between atoms: C_3  and  C_5
REMARK    4  A    between atoms: C_3  and  C_6
REMARK    5  A    between atoms: N_10  and  C_29
REMARK    6  A    between atoms: N_15  and  S_18
REMARK    7  A    between atoms: S_18  and  C_21
REMARK    8  A    between atoms: C_29  and  C_30
REMARK                            x       y       z     vdW  Elec       q    Type
REMARK                         _______ _______ _______ _____ _____    ______ ____
ROOT
ATOM      1  C   UNL     1       0.552  -1.965  -1.270  0.00  0.00    +0.022 C 
ATOM      2  C   UNL     1      -0.881  -2.422  -1.438  0.00  0.00    +0.201 C 
ATOM      3  O   UNL     1      -1.839  -1.981  -0.841  0.00  0.00    -0.277 OA
ATOM      4  N   UNL     1      -0.912  -3.401  -2.366  0.00  0.00    -0.306 N 
ATOM      5  C   UNL     1       0.447  -3.656  -2.853  0.00  0.00    +0.006 C 
ATOM      6  N   UNL     1       1.260  -2.482  -2.467  0.00  0.00    +0.401 N 
ATOM      7  C   UNL     1       0.444  -3.806  -4.373  0.00  0.00    +0.023 C 
ATOM      8  C   UNL     1      -0.430  -5.002  -4.765  0.00  0.00    +0.109 C 
ATOM      9  N   UNL     1       0.037  -6.188  -4.034  0.00  0.00    -0.177 NA
ATOM     10  C   UNL     1       0.146  -6.119  -2.570  0.00  0.00    +0.109 C 
ATOM     11  C   UNL     1       1.015  -4.913  -2.197  0.00  0.00    +0.023 C 
ATOM     12  H   UNL     1       1.263  -1.793  -3.204  0.00  0.00    -0.082 HD
ATOM     13  H   UNL     1       2.201  -2.760  -2.232  0.00  0.00    -0.082 HD
ENDROOT
BRANCH   9  14
ATOM     14  S   UNL     1       0.434  -7.577  -4.845  0.00  0.00    +0.061 S 
ATOM     15  O   UNL     1       0.295  -8.643  -3.916  0.00  0.00    -0.153 OA
ATOM     16  O   UNL     1      -0.273  -7.543  -6.077  0.00  0.00    -0.153 OA
BRANCH  14  17
ATOM     17  C   UNL     1       2.147  -7.476  -5.244  0.00  0.00    +0.107 A 
ATOM     18  C   UNL     1       2.546  -6.903  -6.437  0.00  0.00    +0.030 A 
ATOM     19  C   UNL     1       3.889  -6.824  -6.751  0.00  0.00    +0.023 A 
ATOM     20  C   UNL     1       4.836  -7.318  -5.872  0.00  0.00    +0.059 A 
ATOM     21  C   UNL     1       4.436  -7.891  -4.677  0.00  0.00    +0.061 A 
ATOM     22  C   UNL     1       3.091  -7.965  -4.361  0.00  0.00    +0.050 A 
ATOM     23 CL   UNL     1       5.623  -8.513  -3.572  0.00  0.00    -0.082 Cl
ATOM     24 CL   UNL     1       6.524  -7.219  -6.267  0.00  0.00    -0.082 Cl
ENDBRANCH  14  17
ENDBRANCH   9  14
BRANCH   1  25
ATOM     25  C   UNL     1       0.624  -0.438  -1.228  0.00  0.00    -0.020 C 
ATOM     26  C   UNL     1       2.086   0.003  -1.131  0.00  0.00    +0.006 C 
BRANCH  25  28
ATOM     27  C   UNL     1      -0.180   1.605  -0.033  0.00  0.00    +0.004 C 
ATOM     28  C   UNL     1      -0.145   0.075  -0.008  0.00  0.00    -0.001 C 
ENDBRANCH  25  28
ENDBRANCH   1  25
BRANCH   4  29
ATOM     29  C   UNL     1      -2.117  -4.101  -2.817  0.00  0.00    +0.180 C 
BRANCH  29  30
ATOM     30  C   UNL     1      -2.815  -3.275  -3.867  0.00  0.00    +0.122 A 
ATOM     31  C   UNL     1      -2.699  -3.434  -5.198  0.00  0.00    +0.046 A 
ATOM     32  C   UNL     1      -3.519  -2.453  -5.800  0.00  0.00    +0.041 A 
ATOM     33  C   UNL     1      -4.088  -1.753  -4.802  0.00  0.00    +0.195 A 
ATOM     34  O   UNL     1      -3.662  -2.259  -3.633  0.00  0.00    -0.466 OA
ENDBRANCH  29  30
ENDBRANCH   4  29
TORSDOF 6
