REMARK  Name = ZINC34715132
REMARK  6 active torsions:
REMARK  status: ('A' for Active; 'I' for Inactive)
REMARK    1  A    between atoms: C_4  and  C_7
REMARK    2  A    between atoms: N_12  and  C_15
REMARK    3  A    between atoms: C_18  and  N_21
REMARK    4  A    between atoms: C_22  and  C_24
REMARK    5  A    between atoms: C_24  and  S_25
REMARK    6  A    between atoms: S_25  and  C_26
REMARK                            x       y       z     vdW  Elec       q    Type
REMARK                         _______ _______ _______ _____ _____    ______ ____
ROOT
ATOM      1  C   UNL     1       3.834  -5.958  -0.856  0.00  0.00    +0.030 A 
ATOM      2  C   UNL     1       2.651  -6.683  -0.925  0.00  0.00    +0.025 A 
ATOM      3  C   UNL     1       2.678  -8.060  -0.831  0.00  0.00    +0.025 A 
ATOM      4  C   UNL     1       3.888  -8.721  -0.667  0.00  0.00    +0.034 A 
ATOM      5  C   UNL     1       5.071  -7.997  -0.597  0.00  0.00    +0.025 A 
ATOM      6  C   UNL     1       5.045  -6.620  -0.698  0.00  0.00    +0.025 A 
ENDROOT
BRANCH   1  12
ATOM      7  C   UNL     1       3.738  -0.685  -0.018  0.00  0.00    +0.247 C 
ATOM      8  O   UNL     1       4.773  -0.066  -0.170  0.00  0.00    -0.270 OA
ATOM      9  N   UNL     1       3.765  -2.029   0.073  0.00  0.00    -0.295 N 
ATOM     10  C   UNL     1       2.514  -2.800   0.133  0.00  0.00    +0.127 C 
ATOM     11  C   UNL     1       2.527  -3.841  -0.993  0.00  0.00    +0.124 C 
ATOM     12  N   UNL     1       3.806  -4.563  -0.951  0.00  0.00    -0.327 N 
ATOM     13  C   UNL     1       5.056  -3.792  -1.010  0.00  0.00    +0.124 C 
ATOM     14  C   UNL     1       5.044  -2.751   0.110  0.00  0.00    +0.127 C 
BRANCH   7  18
ATOM     15  C   UNL     1       0.038   1.387   0.221  0.00  0.00    +0.000 A 
ATOM     16  C   UNL     1       1.050   1.877  -0.585  0.00  0.00    +0.001 A 
ATOM     17  C   UNL     1       2.255   1.208  -0.667  0.00  0.00    +0.013 A 
ATOM     18  C   UNL     1       2.450   0.036   0.065  0.00  0.00    +0.037 A 
ATOM     19  C   UNL     1       1.425  -0.452   0.876  0.00  0.00    +0.013 A 
ATOM     20  C   UNL     1       0.225   0.226   0.949  0.00  0.00    +0.001 A 
ENDBRANCH   7  18
ENDBRANCH   1  12
BRANCH   4  21
ATOM     21  N   UNL     1       3.916 -10.119  -0.571  0.00  0.00    -0.285 N 
ATOM     22  C   UNL     1       2.945 -10.853  -1.149  0.00  0.00    +0.228 C 
ATOM     23  O   UNL     1       2.099 -10.312  -1.830  0.00  0.00    -0.275 OA
ATOM     24  H   UNL     1       4.634 -10.558  -0.089  0.00  0.00    +0.155 HD
BRANCH  22  25
ATOM     25  C   UNL     1       2.909 -12.346  -0.949  0.00  0.00    +0.175 C 
BRANCH  25  26
ATOM     26  S   UNL     1       1.495 -13.043  -1.846  0.00  0.00    -0.058 S 
BRANCH  26  27
ATOM     27  C   UNL     1       1.591 -14.771  -1.517  0.00  0.00    +0.258 A 
ATOM     28  N   UNL     1       2.505 -15.345  -0.775  0.00  0.00    -0.203 NA
ATOM     29  C   UNL     1       2.265 -16.684  -0.745  0.00  0.00    +0.112 A 
ATOM     30  C   UNL     1       2.901 -17.762  -0.127  0.00  0.00    +0.051 A 
ATOM     31  C   UNL     1       2.401 -19.037  -0.293  0.00  0.00    +0.043 A 
ATOM     32  C   UNL     1       1.272 -19.251  -1.070  0.00  0.00    +0.024 A 
ATOM     33  C   UNL     1       0.635 -18.193  -1.686  0.00  0.00    +0.050 A 
ATOM     34  C   UNL     1       1.124 -16.906  -1.529  0.00  0.00    +0.156 A 
ATOM     35  O   UNL     1       0.732 -15.694  -1.986  0.00  0.00    -0.431 OA
ATOM     36 CL   UNL     1       3.189 -20.380   0.474  0.00  0.00    -0.083 Cl
ENDBRANCH  26  27
ENDBRANCH  25  26
ENDBRANCH  22  25
ENDBRANCH   4  21
TORSDOF 6
