REMARK  Name = ZINC04210444
REMARK  5 active torsions:
REMARK  status: ('A' for Active; 'I' for Inactive)
REMARK    1  A    between atoms: C_4  and  C_7
REMARK    2  A    between atoms: C_13  and  C_15
REMARK    3  A    between atoms: N_17  and  N_18
REMARK    4  A    between atoms: C_19  and  C_20
REMARK    5  A    between atoms: C_25  and  C_26
REMARK                            x       y       z     vdW  Elec       q    Type
REMARK                         _______ _______ _______ _____ _____    ______ ____
ROOT
ATOM      1  C   UNL     1      -6.012   1.601   0.038  0.00  0.00    +0.318 C 
ATOM      2  O   UNL     1      -6.023   2.815   0.045  0.00  0.00    -0.263 OA
ATOM      3  N   UNL     1      -4.838   0.938   0.029  0.00  0.00    -0.199 N 
ATOM      4  H   UNL     1      -4.829  -0.032   0.023  0.00  0.00    +0.178 HD
ENDROOT
BRANCH   1  11
ATOM      5  C   UNL     1     -12.126  -0.216   0.056  0.00  0.00    +0.134 A 
ATOM      6  N   UNL     1     -11.047  -0.990   0.046  0.00  0.00    -0.140 NA
ATOM      7  N   UNL     1      -9.881  -0.508   0.038  0.00  0.00    -0.125 NA
ATOM      8  C   UNL     1      -9.664   0.801   0.050  0.00  0.00    +0.188 A 
ATOM      9  S   UNL     1     -11.351   1.399   0.061  0.00  0.00    -0.030 S 
ATOM     10  N   UNL     1      -8.469   1.506   0.049  0.00  0.00    -0.255 N 
ATOM     11  C   UNL     1      -7.296   0.843   0.040  0.00  0.00    +0.306 C 
ATOM     12  O   UNL     1      -7.284  -0.371   0.033  0.00  0.00    -0.265 OA
ATOM     13  H   UNL     1      -8.478   2.476   0.054  0.00  0.00    +0.157 HD
BRANCH   5  17
ATOM     14  C   UNL     1     -16.241  -1.269   0.069  0.00  0.00    +0.000 A 
ATOM     15  C   UNL     1     -15.276  -2.260   0.059  0.00  0.00    +0.001 A 
ATOM     16  C   UNL     1     -13.938  -1.925   0.054  0.00  0.00    +0.010 A 
ATOM     17  C   UNL     1     -13.558  -0.582   0.060  0.00  0.00    +0.009 A 
ATOM     18  C   UNL     1     -14.536   0.413   0.077  0.00  0.00    +0.010 A 
ATOM     19  C   UNL     1     -15.871   0.065   0.075  0.00  0.00    +0.001 A 
ENDBRANCH   5  17
ENDBRANCH   1  11
BRANCH   3  20
ATOM     20  N   UNL     1      -3.632   1.649   0.028  0.00  0.00    -0.187 NA
ATOM     21  C   UNL     1      -2.501   1.011   0.019  0.00  0.00    +0.138 C 
BRANCH  21  22
ATOM     22  C   UNL     1      -1.231   1.760   0.017  0.00  0.00    +0.006 A 
ATOM     23  C   UNL     1      -0.013   1.076   0.008  0.00  0.00    +0.010 A 
ATOM     24  C   UNL     1       1.171   1.783   0.001  0.00  0.00    +0.001 A 
ATOM     25  C   UNL     1       1.154   3.167   0.008  0.00  0.00    +0.001 A 
ATOM     26  C   UNL     1      -0.048   3.851   0.024  0.00  0.00    +0.013 A 
ATOM     27  C   UNL     1      -1.240   3.157   0.031  0.00  0.00    +0.063 A 
BRANCH  27  28
ATOM     28  C   UNL     1      -2.549   3.903   0.049  0.00  0.00    +0.418 C 
ATOM     29  F   UNL     1      -2.301   5.280   0.055  0.00  0.00    -0.166 F 
ATOM     30  F   UNL     1      -3.292   3.569  -1.088  0.00  0.00    -0.166 F 
ATOM     31  F   UNL     1      -3.270   3.555   1.196  0.00  0.00    -0.166 F 
ENDBRANCH  27  28
ENDBRANCH  21  22
ENDBRANCH   3  20
TORSDOF 5
