REMARK  Name = ZINC35669856
REMARK  10 active torsions:
REMARK  status: ('A' for Active; 'I' for Inactive)
REMARK    1  A    between atoms: C_1  and  C_2
REMARK    2  A    between atoms: C_5  and  C_25
REMARK    3  A    between atoms: C_7  and  N_8
REMARK    4  A    between atoms: N_8  and  C_9
REMARK    5  A    between atoms: C_9  and  N_11
REMARK    6  A    between atoms: C_12  and  C_14
REMARK    7  A    between atoms: C_14  and  O_15
REMARK    8  A    between atoms: O_15  and  C_16
REMARK    9  A    between atoms: C_17  and  C_24
REMARK   10  A    between atoms: C_19  and  C_23
REMARK                            x       y       z     vdW  Elec       q    Type
REMARK                         _______ _______ _______ _____ _____    ______ ____
ROOT
ATOM      1  N   UNL     1      -0.157  -0.009   4.744  0.00  0.00    -0.265 N 
ATOM      2  C   UNL     1      -0.239  -0.684   5.908  0.00  0.00    +0.256 C 
ATOM      3  O   UNL     1      -0.222  -1.897   5.908  0.00  0.00    -0.272 OA
ATOM      4  H   UNL     1      -0.171   0.961   4.744  0.00  0.00    +0.157 HD
ENDROOT
BRANCH   1   5
ATOM      5  C   UNL     1      -0.057  -0.682   3.581  0.00  0.00    +0.141 C 
ATOM      6  S   UNL     1      -0.033  -2.394   3.581  0.00  0.00    -0.018 S 
BRANCH   5   7
ATOM      7  N   UNL     1       0.025  -0.007   2.417  0.00  0.00    -0.296 N 
ATOM      8  H   UNL     1       0.074   0.962   2.421  0.00  0.00    +0.154 HD
BRANCH   7  15
ATOM      9  C   UNL     1      -1.704   0.883   0.345  0.00  0.00    +0.045 C 
ATOM     10  C   UNL     1      -0.792  -0.302   0.163  0.00  0.00    -0.029 A 
ATOM     11  C   UNL     1      -0.780  -0.984  -1.040  0.00  0.00    +0.006 A 
ATOM     12  C   UNL     1       0.052  -2.070  -1.214  0.00  0.00    +0.015 A 
ATOM     13  C   UNL     1       0.887  -2.485  -0.173  0.00  0.00    +0.065 A 
ATOM     14  C   UNL     1       0.874  -1.797   1.041  0.00  0.00    +0.038 A 
ATOM     15  C   UNL     1       0.038  -0.704   1.204  0.00  0.00    +0.036 A 
BRANCH  13  16
ATOM     16  C   UNL     1       1.778  -3.647  -0.356  0.00  0.00    +0.387 C 
ATOM     17  O   UNL     1       1.786  -4.249  -1.421  0.00  0.00    -0.241 OA
ATOM     18  O   UNL     1       2.507  -4.009   0.557  0.00  0.00    -0.241 OA
ENDBRANCH  13  16
ENDBRANCH   7  15
ENDBRANCH   5   7
ENDBRANCH   1   5
BRANCH   2  19
ATOM     19  C   UNL     1      -0.351   0.068   7.209  0.00  0.00    +0.325 C 
BRANCH  19  20
ATOM     20  O   UNL     1      -0.422  -0.862   8.292  0.00  0.00    -0.481 OA
BRANCH  20  21
ATOM     21  C   UNL     1      -0.527  -0.344   9.544  0.00  0.00    +0.138 A 
ATOM     22  C   UNL     1       0.616  -0.057  10.276  0.00  0.00    -0.007 A 
ATOM     23  C   UNL     1       0.507   0.470  11.548  0.00  0.00    +0.010 A 
ATOM     24  C   UNL     1      -0.741   0.711  12.093  0.00  0.00    -0.049 A 
ATOM     25  C   UNL     1      -1.882   0.427  11.367  0.00  0.00    +0.022 A 
ATOM     26  C   UNL     1      -1.778  -0.095  10.091  0.00  0.00    +0.060 A 
ATOM     27 BR   UNL     1      -3.340  -0.476   9.095  0.00  0.00    -0.047 Br
ATOM     28  C   UNL     1      -0.856   1.285  13.482  0.00  0.00    +0.044 C 
ATOM     29  C   UNL     1       1.976  -0.320   9.683  0.00  0.00    +0.047 C 
ENDBRANCH  20  21
ENDBRANCH  19  20
ENDBRANCH   2  19
TORSDOF 7
