REMARK  Name = ZINC02142710
REMARK  8 active torsions:
REMARK  status: ('A' for Active; 'I' for Inactive)
REMARK    1  A    between atoms: C_1  and  C_2
REMARK    2  A    between atoms: C_4  and  N_14
REMARK    3  A    between atoms: C_6  and  C_8
REMARK    4  A    between atoms: N_14  and  C_15
REMARK    5  A    between atoms: C_15  and  C_16
REMARK    6  A    between atoms: C_16  and  N_17
REMARK    7  A    between atoms: N_17  and  C_18
REMARK    8  A    between atoms: C_22  and  C_23
REMARK                            x       y       z     vdW  Elec       q    Type
REMARK                         _______ _______ _______ _____ _____    ______ ____
ROOT
ATOM      1  N   UNL     1       1.095   3.399   0.009  0.00  0.00    -0.326 N 
ATOM      2  H   UNL     1       1.928   3.897   0.004  0.00  0.00    +0.148 HD
ENDROOT
BRANCH   1   6
ATOM      3  C   UNL     1       3.591  -0.847  -0.037  0.00  0.00    +0.067 C 
ATOM      4  C   UNL     1       2.306  -0.060  -0.020  0.00  0.00    +0.062 A 
ATOM      5  C   UNL     1       2.333   1.323  -0.013  0.00  0.00    +0.102 A 
ATOM      6  C   UNL     1       1.118   2.013   0.002  0.00  0.00    +0.141 A 
ATOM      7  N   UNL     1      -0.016   1.321   0.009  0.00  0.00    -0.211 NA
ATOM      8  C   UNL     1       0.002  -0.004   0.002  0.00  0.00    +0.162 A 
ATOM      9  N   UNL     1       1.139  -0.685  -0.013  0.00  0.00    -0.231 NA
ATOM     10 CL   UNL     1       3.842   2.182  -0.024  0.00  0.00    -0.078 Cl
BRANCH   8  11
ATOM     11  C   UNL     1      -1.284  -0.745   0.011  0.00  0.00    +0.022 A 
ATOM     12  C   UNL     1      -2.504  -0.064   0.032  0.00  0.00    +0.031 A 
ATOM     13  C   UNL     1      -3.677  -0.792   0.034  0.00  0.00    +0.111 A 
ATOM     14  N   UNL     1      -3.655  -2.111   0.027  0.00  0.00    -0.263 NA
ATOM     15  C   UNL     1      -2.526  -2.791   0.012  0.00  0.00    +0.111 A 
ATOM     16  C   UNL     1      -1.308  -2.142   0.004  0.00  0.00    +0.031 A 
ENDBRANCH   8  11
ENDBRANCH   1   6
BRANCH   1  17
ATOM     17  C   UNL     1      -0.185   4.111   0.025  0.00  0.00    +0.121 C 
BRANCH  17  18
ATOM     18  C   UNL     1       0.071   5.620   0.030  0.00  0.00    +0.121 C 
BRANCH  18  19
ATOM     19  N   UNL     1      -1.209   6.332   0.046  0.00  0.00    -0.329 N 
ATOM     20  H   UNL     1      -2.041   5.834   0.051  0.00  0.00    +0.147 HD
BRANCH  19  21
ATOM     21  C   UNL     1      -1.231   7.722   0.053  0.00  0.00    +0.097 A 
ATOM     22  C   UNL     1      -0.034   8.431   0.051  0.00  0.00    +0.041 A 
ATOM     23  C   UNL     1      -0.071   9.813   0.053  0.00  0.00    +0.005 A 
ATOM     24  C   UNL     1      -1.308  10.443   0.068  0.00  0.00    +0.030 A 
ATOM     25  C   UNL     1      -2.457   9.678   0.074  0.00  0.00    +0.121 A 
ATOM     26  N   UNL     1      -2.458   8.318   0.067  0.00  0.00    -0.340 N 
ATOM     27  H   UNL     1      -3.329   7.773   0.073  0.00  0.00    +0.167 HD
BRANCH  25  28
ATOM     28  C   UNL     1      -3.802  10.356   0.090  0.00  0.00    +0.432 C 
ATOM     29  F   UNL     1      -4.809   9.392   0.210  0.00  0.00    -0.165 F 
ATOM     30  F   UNL     1      -3.868  11.236   1.176  0.00  0.00    -0.165 F 
ATOM     31  F   UNL     1      -3.979  11.069  -1.100  0.00  0.00    -0.165 F 
ENDBRANCH  25  28
ENDBRANCH  19  21
ENDBRANCH  18  19
ENDBRANCH  17  18
ENDBRANCH   1  17
TORSDOF 7
