REMARK  Name = ZINC41645876
REMARK  6 active torsions:
REMARK  status: ('A' for Active; 'I' for Inactive)
REMARK    1  A    between atoms: C_1  and  C_2
REMARK    2  A    between atoms: C_11  and  C_12
REMARK    3  A    between atoms: C_15  and  C_18
REMARK    4  A    between atoms: C_18  and  C_19
REMARK    5  A    between atoms: C_18  and  C_20
REMARK    6  A    between atoms: N_23  and  C_26
REMARK                            x       y       z     vdW  Elec       q    Type
REMARK                         _______ _______ _______ _____ _____    ______ ____
ROOT
ATOM      1  C   UNL     1      -0.082   1.509   0.016  0.00  0.00    +0.045 C 
ATOM      2  C   UNL     1      -0.072   0.002   0.006  0.00  0.00    -0.033 A 
ATOM      3  C   UNL     1      -0.095  -0.674  -1.180  0.00  0.00    +0.050 A 
ATOM      4  C   UNL     1      -0.085  -2.068  -1.196  0.00  0.00    +0.131 A 
ATOM      5  C   UNL     1      -0.050  -2.782  -0.010  0.00  0.00    +0.051 A 
ATOM      6  C   UNL     1      -0.029  -2.108   1.206  0.00  0.00    +0.148 A 
ATOM      7  C   UNL     1      -0.034  -0.705   1.208  0.00  0.00    +0.071 A 
ATOM      8  C   UNL     1       0.002  -0.290   2.622  0.00  0.00    +0.232 C 
ATOM      9  O   UNL     1       0.006   0.844   3.067  0.00  0.00    -0.283 OA
ATOM     10  C   UNL     1       0.031  -1.554   3.376  0.00  0.00    +0.176 C 
ATOM     11  C   UNL     1       0.069  -1.682   4.725  0.00  0.00    +0.058 C 
ATOM     12  O   UNL     1       0.002  -2.566   2.477  0.00  0.00    -0.451 OA
ATOM     13  C   UNL     1      -0.031  -4.289  -0.015  0.00  0.00    +0.130 C 
ATOM     14  N   UNL     1      -0.467  -4.784  -1.328  0.00  0.00    -0.261 NA
ATOM     15  C   UNL     1       0.266  -4.090  -2.400  0.00  0.00    +0.319 C 
ATOM     16  O   UNL     1      -0.112  -2.712  -2.393  0.00  0.00    -0.476 OA
ENDROOT
BRANCH  14  17
ATOM     17  C   UNL     1      -0.293  -6.239  -1.427  0.00  0.00    +0.083 C 
ATOM     18  C   UNL     1       1.204  -6.586  -1.396  0.00  0.00    +0.043 C 
ATOM     19  C   UNL     1       1.413  -8.061  -1.817  0.00  0.00    +0.167 C 
ATOM     20  S   UNL     1      -0.022  -8.371  -2.924  0.00  0.00    -0.029 S 
ATOM     21  O   UNL     1      -0.840  -9.381  -2.349  0.00  0.00    -0.174 OA
ATOM     22  O   UNL     1       0.447  -8.526  -4.257  0.00  0.00    -0.174 OA
ATOM     23  C   UNL     1      -0.880  -6.748  -2.775  0.00  0.00    +0.184 C 
ENDBRANCH  14  17
BRANCH  11  24
ATOM     24  C   UNL     1      -0.018  -3.014   5.340  0.00  0.00    -0.021 A 
ATOM     25  C   UNL     1      -0.115  -3.142   6.730  0.00  0.00    +0.008 A 
ATOM     26  C   UNL     1      -0.196  -4.396   7.299  0.00  0.00    +0.004 A 
ATOM     27  C   UNL     1      -0.181  -5.525   6.499  0.00  0.00    -0.045 A 
ATOM     28  C   UNL     1      -0.085  -5.407   5.123  0.00  0.00    +0.004 A 
ATOM     29  C   UNL     1      -0.009  -4.161   4.538  0.00  0.00    +0.008 A 
BRANCH  27  30
ATOM     30  C   UNL     1      -0.270  -6.891   7.129  0.00  0.00    +0.013 C 
ATOM     31  C   UNL     1      -1.513  -7.614   6.606  0.00  0.00    +0.012 C 
ATOM     32  C   UNL     1       0.979  -7.700   6.772  0.00  0.00    +0.012 C 
ENDBRANCH  27  30
ENDBRANCH  11  24
TORSDOF 3
