REMARK  Name = ZINC14521198
REMARK  6 active torsions:
REMARK  status: ('A' for Active; 'I' for Inactive)
REMARK    1  A    between atoms: C_1  and  N_2
REMARK    2  A    between atoms: C_11  and  N_14
REMARK    3  A    between atoms: C_15  and  C_17
REMARK    4  A    between atoms: C_20  and  O_23
REMARK    5  A    between atoms: O_23  and  C_24
REMARK    6  A    between atoms: C_27  and  C_30
REMARK                            x       y       z     vdW  Elec       q    Type
REMARK                         _______ _______ _______ _____ _____    ______ ____
ROOT
ATOM      1  N   UNL     1      -8.803   3.325   2.500  0.00  0.00    -0.280 N 
ATOM      2  C   UNL     1      -8.274   3.658   3.695  0.00  0.00    +0.248 C 
ATOM      3  O   UNL     1      -8.996   4.048   4.592  0.00  0.00    -0.270 OA
ATOM      4  H   UNL     1      -8.166   2.884   1.720  0.00  0.00    +0.155 HD
ENDROOT
BRANCH   1  15
ATOM      5  C   UNL     1     -18.318   3.454   0.976  0.00  0.00    -0.096 C 
ATOM      6  N   UNL     1     -16.892   3.273   1.277  0.00  0.00    +0.380 N 
ATOM      7  C   UNL     1     -16.077   3.397   0.060  0.00  0.00    -0.060 C 
ATOM      8  C   UNL     1     -14.610   3.124   0.402  0.00  0.00    +0.088 C 
ATOM      9  N   UNL     1     -14.164   4.074   1.430  0.00  0.00    -0.319 N 
ATOM     10  C   UNL     1     -14.979   3.950   2.647  0.00  0.00    +0.088 C 
ATOM     11  C   UNL     1     -16.446   4.223   2.305  0.00  0.00    -0.060 C 
ATOM     12  C   UNL     1     -12.812   3.902   1.716  0.00  0.00    +0.121 A 
ATOM     13  C   UNL     1     -12.202   4.713   2.668  0.00  0.00    +0.045 A 
ATOM     14  C   UNL     1     -10.859   4.534   2.944  0.00  0.00    +0.028 A 
ATOM     15  C   UNL     1     -10.165   3.542   2.253  0.00  0.00    +0.052 A 
ATOM     16  C   UNL     1     -10.838   2.776   1.313  0.00  0.00    +0.136 A 
ATOM     17  N   UNL     1     -12.122   2.970   1.078  0.00  0.00    -0.238 NA
ATOM     18  H   UNL     1     -16.758   2.256   1.674  0.00  0.00    -0.082 HD
ENDBRANCH   1  15
BRANCH   2  19
ATOM     19  C   UNL     1      -6.819   3.548   3.913  0.00  0.00    +0.037 A 
ATOM     20  C   UNL     1      -6.269   3.892   5.151  0.00  0.00    +0.016 A 
ATOM     21  C   UNL     1      -4.910   3.788   5.351  0.00  0.00    +0.047 A 
ATOM     22  C   UNL     1      -4.087   3.340   4.324  0.00  0.00    +0.130 A 
ATOM     23  C   UNL     1      -4.630   3.002   3.090  0.00  0.00    +0.047 A 
ATOM     24  C   UNL     1      -5.988   3.099   2.884  0.00  0.00    +0.016 A 
BRANCH  22  25
ATOM     25  O   UNL     1      -2.749   3.238   4.526  0.00  0.00    -0.438 OA
BRANCH  25  26
ATOM     26  C   UNL     1      -2.294   2.202   5.274  0.00  0.00    +0.220 A 
ATOM     27  C   UNL     1      -0.926   2.003   5.416  0.00  0.00    +0.068 A 
ATOM     28  C   UNL     1      -0.476   0.942   6.182  0.00  0.00    +0.019 A 
ATOM     29  C   UNL     1      -1.414   0.113   6.781  0.00  0.00    +0.073 A 
ATOM     30  C   UNL     1      -2.758   0.366   6.592  0.00  0.00    +0.127 A 
ATOM     31  N   UNL     1      -3.157   1.389   5.860  0.00  0.00    -0.220 NA
BRANCH  29  32
ATOM     32  C   UNL     1      -0.971  -1.055   7.624  0.00  0.00    +0.419 C 
ATOM     33  F   UNL     1      -0.833  -0.644   8.954  0.00  0.00    -0.166 F 
ATOM     34  F   UNL     1       0.258  -1.530   7.152  0.00  0.00    -0.166 F 
ATOM     35  F   UNL     1      -1.925  -2.075   7.547  0.00  0.00    -0.166 F 
ENDBRANCH  29  32
ENDBRANCH  25  26
ENDBRANCH  22  25
ENDBRANCH   2  19
TORSDOF 5
