REMARK  Name = ZINC13567304
REMARK  8 active torsions:
REMARK  status: ('A' for Active; 'I' for Inactive)
REMARK    1  A    between atoms: C_1  and  C_2
REMARK    2  A    between atoms: C_5  and  C_8
REMARK    3  A    between atoms: C_8  and  S_9
REMARK    4  A    between atoms: S_9  and  C_10
REMARK    5  A    between atoms: C_21  and  C_23
REMARK    6  A    between atoms: C_26  and  O_31
REMARK    7  A    between atoms: C_27  and  O_29
REMARK    8  A    between atoms: O_29  and  C_30
REMARK                            x       y       z     vdW  Elec       q    Type
REMARK                         _______ _______ _______ _____ _____    ______ ____
ROOT
ATOM      1  C   UNL     1       1.632  -6.614  -0.043  0.00  0.00    +0.194 A 
ATOM      2  N   UNL     1       0.424  -7.160  -0.045  0.00  0.00    -0.183 NA
ATOM      3  C   UNL     1       0.274  -8.482  -0.051  0.00  0.00    +0.280 A 
ATOM      4  O   UNL     1      -0.963  -9.035  -0.054  0.00  0.00    -0.265 OA
ATOM      5  C   UNL     1       1.407  -9.284  -0.056  0.00  0.00    +0.067 A 
ATOM      6  C   UNL     1       2.657  -8.678  -0.054  0.00  0.00    +0.137 A 
ATOM      7  N   UNL     1       2.734  -7.351  -0.053  0.00  0.00    -0.206 NA
ATOM      8  N   UNL     1       3.806  -9.458  -0.059  0.00  0.00    -0.270 N 
ATOM      9  C   UNL     1       3.752 -10.756   0.293  0.00  0.00    +0.219 C 
ATOM     10  O   UNL     1       4.762 -11.426   0.261  0.00  0.00    -0.275 OA
ATOM     11  C   UNL     1       2.456 -11.386   0.727  0.00  0.00    +0.109 C 
ATOM     12  C   UNL     1       1.293 -10.783  -0.064  0.00  0.00    +0.067 C 
ATOM     13  H   UNL     1       4.654  -9.064  -0.318  0.00  0.00    +0.156 HD
ENDROOT
BRANCH  12  14
ATOM     14  C   UNL     1       1.337 -11.284  -1.484  0.00  0.00    -0.036 A 
ATOM     15  C   UNL     1       2.446 -11.033  -2.270  0.00  0.00    +0.008 A 
ATOM     16  C   UNL     1       2.492 -11.490  -3.574  0.00  0.00    +0.049 A 
ATOM     17  C   UNL     1       1.423 -12.201  -4.096  0.00  0.00    +0.158 A 
ATOM     18  C   UNL     1       0.306 -12.454  -3.305  0.00  0.00    +0.162 A 
ATOM     19  C   UNL     1       0.270 -11.997  -1.997  0.00  0.00    +0.053 A 
BRANCH  18  20
ATOM     20  O   UNL     1      -0.745 -13.151  -3.813  0.00  0.00    -0.491 OA
ATOM     21  C   UNL     1      -1.857 -13.373  -2.944  0.00  0.00    +0.277 C 
ENDBRANCH  18  20
BRANCH  17  22
ATOM     22  O   UNL     1       1.466 -12.651  -5.379  0.00  0.00    -0.503 OA
ATOM     23  H   UNL     1       1.845 -13.535  -5.473  0.00  0.00    +0.292 HD
ENDBRANCH  17  22
ENDBRANCH  12  14
BRANCH   1  24
ATOM     24  S   UNL     1       1.777  -4.858  -0.034  0.00  0.00    -0.081 S 
BRANCH  24  25
ATOM     25  C   UNL     1       0.059  -4.275  -0.021  0.00  0.00    +0.112 C 
BRANCH  25  30
ATOM     26  C   UNL     1      -0.018   1.503   0.010  0.00  0.00    +0.044 C 
ATOM     27  C   UNL     1       0.002  -0.004   0.002  0.00  0.00    -0.050 A 
ATOM     28  C   UNL     1       0.006  -0.689  -1.199  0.00  0.00    +0.003 A 
ATOM     29  C   UNL     1       0.025  -2.071  -1.206  0.00  0.00    +0.005 A 
ATOM     30  C   UNL     1       0.040  -2.768  -0.013  0.00  0.00    -0.037 A 
ATOM     31  C   UNL     1       0.037  -2.084   1.188  0.00  0.00    +0.005 A 
ATOM     32  C   UNL     1       0.023  -0.702   1.195  0.00  0.00    +0.003 A 
ENDBRANCH  25  30
ENDBRANCH  24  25
ENDBRANCH   1  24
TORSDOF 6
