REMARK  Name = ZINC17082396
REMARK  8 active torsions:
REMARK  status: ('A' for Active; 'I' for Inactive)
REMARK    1  A    between atoms: C_1  and  C_2
REMARK    2  A    between atoms: C_3  and  C_29
REMARK    3  A    between atoms: C_5  and  C_27
REMARK    4  A    between atoms: C_7  and  C_10
REMARK    5  A    between atoms: N_12  and  C_13
REMARK    6  A    between atoms: C_14  and  C_18
REMARK    7  A    between atoms: N_20  and  C_21
REMARK    8  A    between atoms: C_21  and  C_22
REMARK                            x       y       z     vdW  Elec       q    Type
REMARK                         _______ _______ _______ _____ _____    ______ ____
ROOT
ATOM      1  C   UNL     1       0.091   4.101   1.920  0.00  0.00    +0.222 C 
ATOM      2  O   UNL     1       1.106   3.616   2.373  0.00  0.00    -0.275 OA
ATOM      3  N   UNL     1      -0.900   4.486   2.749  0.00  0.00    -0.279 N 
ATOM      4  H   UNL     1      -1.712   4.873   2.387  0.00  0.00    +0.155 HD
ENDROOT
BRANCH   1  10
ATOM      5  C   UNL     1       2.810   1.839  -0.465  0.00  0.00    +0.039 C 
ATOM      6  C   UNL     1       2.048   3.106  -0.170  0.00  0.00    -0.073 C 
ATOM      7  C   UNL     1       2.723   4.154   0.177  0.00  0.00    -0.073 C 
ATOM      8  C   UNL     1       2.106   5.482   0.505  0.00  0.00    +0.046 C 
ATOM      9  C   UNL     1       0.670   5.540  -0.022  0.00  0.00    +0.118 C 
ATOM     10  C   UNL     1      -0.064   4.271   0.431  0.00  0.00    +0.093 C 
ATOM     11  C   UNL     1       0.552   3.071  -0.291  0.00  0.00    +0.044 C 
ATOM     12  C   UNL     1       4.224   4.035   0.250  0.00  0.00    +0.039 C 
BRANCH   9  13
ATOM     13  C   UNL     1      -0.025   6.754   0.537  0.00  0.00    +0.360 C 
ATOM     14  O   UNL     1      -1.020   6.625   1.211  0.00  0.00    -0.246 OA
ATOM     15  O   UNL     1       0.459   7.980   0.285  0.00  0.00    -0.246 OA
ENDBRANCH   9  13
ENDBRANCH   1  10
BRANCH   3  16
ATOM     16  C   UNL     1      -0.757   4.329   4.120  0.00  0.00    +0.084 A 
ATOM     17  C   UNL     1      -1.655   4.667   5.125  0.00  0.00    +0.065 A 
ATOM     18  C   UNL     1      -1.247   4.386   6.481  0.00  0.00    +0.022 A 
ATOM     19  C   UNL     1      -0.033   3.833   6.655  0.00  0.00    +0.048 A 
ATOM     20  S   UNL     1       0.585   3.671   4.993  0.00  0.00    -0.081 S 
BRANCH  17  21
ATOM     21  C   UNL     1      -2.954   5.275   4.824  0.00  0.00    +0.247 C 
ATOM     22  O   UNL     1      -3.270   5.495   3.669  0.00  0.00    -0.270 OA
ATOM     23  N   UNL     1      -3.800   5.589   5.825  0.00  0.00    -0.304 N 
ATOM     24  H   UNL     1      -3.549   5.413   6.745  0.00  0.00    +0.149 HD
BRANCH  23  25
ATOM     25  C   UNL     1      -5.098   6.197   5.524  0.00  0.00    +0.179 C 
BRANCH  25  26
ATOM     26  C   UNL     1      -5.846   6.448   6.808  0.00  0.00    +0.122 A 
ATOM     27  C   UNL     1      -5.783   7.570   7.548  0.00  0.00    +0.046 A 
ATOM     28  C   UNL     1      -6.638   7.377   8.657  0.00  0.00    +0.041 A 
ATOM     29  C   UNL     1      -7.167   6.146   8.532  0.00  0.00    +0.195 A 
ATOM     30  O   UNL     1      -6.683   5.588   7.410  0.00  0.00    -0.466 OA
ENDBRANCH  25  26
ENDBRANCH  23  25
ENDBRANCH  17  21
ENDBRANCH   3  16
TORSDOF 6
