REMARK  Name = ZINC15598059
REMARK  5 active torsions:
REMARK  status: ('A' for Active; 'I' for Inactive)
REMARK    1  A    between atoms: C_1  and  S_2
REMARK    2  A    between atoms: S_2  and  C_5
REMARK    3  A    between atoms: C_7  and  C_12
REMARK    4  A    between atoms: N_14  and  C_15
REMARK    5  A    between atoms: C_18  and  C_22
REMARK                            x       y       z     vdW  Elec       q    Type
REMARK                         _______ _______ _______ _____ _____    ______ ____
ROOT
ATOM      1  C   UNL     1       4.025  -2.132  -2.538  0.00  0.00    +0.248 C 
ATOM      2  O   UNL     1       4.520  -2.402  -1.461  0.00  0.00    -0.270 OA
ATOM      3  N   UNL     1       4.666  -2.465  -3.676  0.00  0.00    -0.281 N 
ATOM      4  H   UNL     1       4.241  -2.310  -4.534  0.00  0.00    +0.155 HD
ENDROOT
BRANCH   1   7
ATOM      5  C   UNL     1       0.840  -0.447  -1.484  0.00  0.00    +0.107 A 
ATOM      6  C   UNL     1       2.056  -1.094  -1.421  0.00  0.00    +0.041 A 
ATOM      7  C   UNL     1       2.722  -1.440  -2.598  0.00  0.00    +0.039 A 
ATOM      8  C   UNL     1       2.151  -1.127  -3.834  0.00  0.00    +0.014 A 
ATOM      9  C   UNL     1       0.934  -0.480  -3.884  0.00  0.00    +0.022 A 
ATOM     10  C   UNL     1       0.276  -0.145  -2.712  0.00  0.00    +0.066 A 
ATOM     11 CL   UNL     1      -1.259   0.663  -2.784  0.00  0.00    -0.082 Cl
BRANCH   5  13
ATOM     12  C   UNL     1      -0.037   1.803   0.002  0.00  0.00    +0.200 C 
ATOM     13  S   UNL     1      -0.002  -0.011   0.001  0.00  0.00    -0.004 S 
ATOM     14  O   UNL     1       0.836  -0.485   1.046  0.00  0.00    -0.170 OA
ATOM     15  O   UNL     1      -1.317  -0.526  -0.163  0.00  0.00    -0.170 OA
ENDBRANCH   5  13
ENDBRANCH   1   7
BRANCH   3  16
ATOM     16  C   UNL     1       5.939  -3.031  -3.620  0.00  0.00    +0.035 A 
ATOM     17  C   UNL     1       6.266  -3.901  -2.584  0.00  0.00    +0.024 A 
ATOM     18  C   UNL     1       7.522  -4.463  -2.525  0.00  0.00    +0.022 A 
ATOM     19  C   UNL     1       8.469  -4.158  -3.507  0.00  0.00    +0.070 A 
ATOM     20  C   UNL     1       8.137  -3.284  -4.547  0.00  0.00    +0.060 A 
ATOM     21  C   UNL     1       6.876  -2.729  -4.602  0.00  0.00    +0.044 A 
ATOM     22 CL   UNL     1       9.309  -2.901  -5.770  0.00  0.00    -0.082 Cl
BRANCH  19  23
ATOM     23  C   UNL     1       9.776  -4.740  -3.449  0.00  0.00    +0.101 C 
ATOM     24  N   UNL     1      10.813  -5.202  -3.402  0.00  0.00    -0.191 NA
ENDBRANCH  19  23
ENDBRANCH   3  16
TORSDOF 4
