REMARK  Name = ZINC41405433
REMARK  12 active torsions:
REMARK  status: ('A' for Active; 'I' for Inactive)
REMARK    1  A    between atoms: C_1  and  C_2
REMARK    2  A    between atoms: C_2  and  C_3
REMARK    3  A    between atoms: C_3  and  N_4
REMARK    4  A    between atoms: C_5  and  C_7
REMARK    5  A    between atoms: C_7  and  N_8
REMARK    6  A    between atoms: C_11  and  N_14
REMARK    7  A    between atoms: C_15  and  C_17
REMARK    8  A    between atoms: C_17  and  C_19
REMARK    9  A    between atoms: C_17  and  N_24
REMARK   10  A    between atoms: C_19  and  C_21
REMARK   11  A    between atoms: C_19  and  C_22
REMARK   12  A    between atoms: C_22  and  C_23
REMARK                            x       y       z     vdW  Elec       q    Type
REMARK                         _______ _______ _______ _____ _____    ______ ____
ROOT
ATOM      1  N   UNL     1       2.383  -6.830   8.076  0.00  0.00    -0.311 N 
ATOM      2  C   UNL     1       2.733  -8.129   8.001  0.00  0.00    +0.234 C 
ATOM      3  O   UNL     1       2.162  -8.868   7.227  0.00  0.00    -0.274 OA
ATOM      4  H   UNL     1       2.787  -6.257   8.746  0.00  0.00    +0.149 HD
ENDROOT
BRANCH   1   8
ATOM      5  N   UNL     1       0.471  -4.040   5.561  0.00  0.00    +0.385 N 
ATOM      6  C   UNL     1      -0.258  -4.448   6.768  0.00  0.00    -0.076 C 
ATOM      7  C   UNL     1       0.718  -5.061   7.775  0.00  0.00    +0.003 C 
ATOM      8  C   UNL     1       1.392  -6.284   7.146  0.00  0.00    +0.069 C 
ATOM      9  C   UNL     1       2.087  -5.860   5.848  0.00  0.00    +0.003 C 
ATOM     10  C   UNL     1       1.060  -5.218   4.913  0.00  0.00    -0.076 C 
ATOM     11  H   UNL     1       1.205  -3.395   5.816  0.00  0.00    -0.081 HD
BRANCH   5  12
ATOM     12  C   UNL     1      -0.456  -3.382   4.631  0.00  0.00    +0.019 C 
BRANCH  12  14
ATOM     13  N   UNL     1      -1.837  -1.331   4.571  0.00  0.00    -0.317 N 
ATOM     14  C   UNL     1      -0.967  -2.107   5.248  0.00  0.00    +0.196 C 
ATOM     15  O   UNL     1      -0.597  -1.778   6.355  0.00  0.00    -0.278 OA
ATOM     16  H   UNL     1      -2.134  -1.595   3.686  0.00  0.00    +0.149 HD
BRANCH  13  17
ATOM     17  C   UNL     1      -2.335  -0.091   5.172  0.00  0.00    +0.104 C 
BRANCH  17  19
ATOM     18  C   UNL     1      -3.820   1.889   4.830  0.00  0.00    +0.005 C 
ATOM     19  C   UNL     1      -3.300   0.594   4.202  0.00  0.00    +0.015 C 
ENDBRANCH  17  19
ENDBRANCH  13  17
ENDBRANCH  12  14
ENDBRANCH   5  12
ENDBRANCH   1   8
BRANCH   2  20
ATOM     20  C   UNL     1       3.835  -8.665   8.879  0.00  0.00    +0.163 C 
BRANCH  20  21
ATOM     21  N   UNL     1       3.719 -10.122   8.975  0.00  0.00    -0.288 N 
ATOM     22  C   UNL     1       4.224 -10.770  10.043  0.00  0.00    +0.298 C 
ATOM     23  O   UNL     1       4.776 -10.145  10.928  0.00  0.00    -0.253 OA
ATOM     24  N   UNL     1       4.117 -12.110  10.131  0.00  0.00    -0.313 N 
ATOM     25  H   UNL     1       3.278 -10.620   8.269  0.00  0.00    +0.151 HD
ATOM     26  H   UNL     1       3.676 -12.609   9.425  0.00  0.00    +0.146 HD
ATOM     27  H   UNL     1       4.481 -12.576  10.900  0.00  0.00    +0.146 HD
ENDBRANCH  20  21
BRANCH  20  28
ATOM     28  C   UNL     1       5.192  -8.300   8.274  0.00  0.00    +0.015 C 
ATOM     29  C   UNL     1       5.373  -9.037   6.946  0.00  0.00    +0.010 C 
BRANCH  28  30
ATOM     30  C   UNL     1       6.307  -8.708   9.239  0.00  0.00    +0.002 C 
ATOM     31  C   UNL     1       6.230  -7.845  10.501  0.00  0.00    +0.004 C 
ENDBRANCH  28  30
ENDBRANCH  20  28
ENDBRANCH   2  20
TORSDOF 9
