REMARK  Name = ZINC10106323
REMARK  4 active torsions:
REMARK  status: ('A' for Active; 'I' for Inactive)
REMARK    1  A    between atoms: C_2  and  C_3
REMARK    2  A    between atoms: C_3  and  N_4
REMARK    3  A    between atoms: N_13  and  C_14
REMARK    4  A    between atoms: C_14  and  C_16
REMARK                            x       y       z     vdW  Elec       q    Type
REMARK                         _______ _______ _______ _____ _____    ______ ____
ROOT
ATOM      1  N   UNL     1       0.002  -0.004   0.002  0.00  0.00    -0.310 N 
ATOM      2  C   UNL     1      -0.017   1.379   0.010  0.00  0.00    +0.059 A 
ATOM      3  C   UNL     1      -1.129   2.235   0.030  0.00  0.00    +0.030 A 
ATOM      4  C   UNL     1      -0.968   3.600   0.031  0.00  0.00    +0.040 A 
ATOM      5  C   UNL     1       0.295   4.173   0.022  0.00  0.00    +0.125 A 
ATOM      6  C   UNL     1       1.411   3.352   0.007  0.00  0.00    +0.055 A 
ATOM      7  C   UNL     1       1.247   1.986   0.001  0.00  0.00    +0.042 A 
ATOM      8  S   UNL     1       2.362   0.605  -0.017  0.00  0.00    -0.052 S 
ATOM      9  C   UNL     1       1.187  -0.669  -0.012  0.00  0.00    +0.167 A 
ATOM     10  N   UNL     1       1.395  -1.984  -0.021  0.00  0.00    -0.154 NA
ATOM     11  F   UNL     1       0.436   5.517   0.029  0.00  0.00    -0.205 F 
ENDROOT
BRANCH  10  12
ATOM     12  C   UNL     1       2.635  -2.461  -0.035  0.00  0.00    +0.267 C 
ATOM     13  O   UNL     1       3.580  -1.695  -0.040  0.00  0.00    -0.271 OA
BRANCH  12  14
ATOM     14  C   UNL     1       2.871  -3.949  -0.045  0.00  0.00    +0.206 C 
ATOM     15  C   UNL     1       2.401  -4.559  -1.389  0.00  0.00    +0.043 C 
ATOM     16  C   UNL     1       3.278  -5.840  -1.454  0.00  0.00    +0.031 C 
ATOM     17  C   UNL     1       4.587  -5.375  -0.782  0.00  0.00    +0.161 C 
ATOM     18  O   UNL     1       4.278  -4.231   0.024  0.00  0.00    -0.367 OA
ENDBRANCH  12  14
ENDBRANCH  10  12
BRANCH   1  19
ATOM     19  C   UNL     1      -1.257  -0.753   0.010  0.00  0.00    +0.212 C 
BRANCH  19  21
ATOM     20  C   UNL     1      -2.039  -1.190  -2.480  0.00  0.00    +0.005 C 
ATOM     21  C   UNL     1      -1.692  -0.996  -1.375  0.00  0.00    -0.084 C 
ENDBRANCH  19  21
ENDBRANCH   1  19
TORSDOF 4
