REMARK  Name = ZINC12377153
REMARK  3 active torsions:
REMARK  status: ('A' for Active; 'I' for Inactive)
REMARK    1  A    between atoms: C_4  and  N_7
REMARK    2  A    between atoms: C_9  and  C_22
REMARK    3  A    between atoms: C_10  and  C_12
REMARK                            x       y       z     vdW  Elec       q    Type
REMARK                         _______ _______ _______ _____ _____    ______ ____
ROOT
ATOM      1  N   UNL     1       2.168   0.384   0.633  0.00  0.00    -0.239 N 
ATOM      2  C   UNL     1       1.316  -0.653   0.516  0.00  0.00    +0.122 A 
ATOM      3  C   UNL     1       0.069  -0.130   0.223  0.00  0.00    +0.018 A 
ATOM      4  C   UNL     1       0.210   1.277   0.168  0.00  0.00    +0.077 A 
ATOM      5  N   UNL     1       1.458   1.569   0.413  0.00  0.00    -0.170 NA
ENDROOT
BRANCH   3   6
ATOM      6  C   UNL     1      -1.168  -0.892   0.008  0.00  0.00    +0.031 C 
ATOM      7  C   UNL     1      -1.133  -2.066  -0.673  0.00  0.00    +0.079 C 
ATOM      8  C   UNL     1      -0.014  -2.690  -1.400  0.00  0.00    +0.265 C 
ATOM      9  O   UNL     1       1.080  -2.159  -1.460  0.00  0.00    -0.269 OA
ATOM     10  N   UNL     1      -0.248  -3.853  -1.982  0.00  0.00    -0.192 N 
ATOM     11  C   UNL     1      -1.501  -4.435  -1.907  0.00  0.00    +0.167 C 
ATOM     12  N   UNL     1      -1.904  -5.564  -2.422  0.00  0.00    -0.279 NA
ATOM     13  S   UNL     1      -2.433  -3.263  -0.935  0.00  0.00    -0.049 S 
ATOM     14  C   UNL     1       0.771  -4.495  -2.680  0.00  0.00    +0.173 A 
ATOM     15  N   UNL     1       0.737  -5.644  -3.326  0.00  0.00    -0.233 NA
ATOM     16  C   UNL     1       1.804  -6.114  -3.941  0.00  0.00    +0.120 A 
ATOM     17  C   UNL     1       2.948  -5.387  -3.898  0.00  0.00    +0.068 A 
ATOM     18  S   UNL     1       2.411  -3.983  -2.931  0.00  0.00    -0.060 S 
ATOM     19  H   UNL     1      -2.819  -5.858  -2.292  0.00  0.00    +0.189 HD
ENDBRANCH   3   6
BRANCH   4  20
ATOM     20  C   UNL     1      -0.889   2.264  -0.128  0.00  0.00    +0.016 C 
ATOM     21  C   UNL     1      -1.468   1.982  -1.516  0.00  0.00    +0.016 C 
ATOM     22  C   UNL     1      -2.584   2.985  -1.817  0.00  0.00    -0.010 C 
ATOM     23  C   UNL     1      -2.016   4.405  -1.780  0.00  0.00    +0.007 C 
ATOM     24  C   UNL     1      -1.436   4.688  -0.393  0.00  0.00    -0.010 C 
ATOM     25  C   UNL     1      -0.321   3.685  -0.092  0.00  0.00    +0.016 C 
ATOM     26  C   UNL     1      -2.540   4.553   0.658  0.00  0.00    +0.007 C 
ATOM     27  C   UNL     1      -3.108   3.133   0.622  0.00  0.00    -0.010 C 
ATOM     28  C   UNL     1      -3.688   2.850  -0.766  0.00  0.00    +0.007 C 
ATOM     29  C   UNL     1      -1.993   2.130   0.922  0.00  0.00    +0.016 C 
ENDBRANCH   4  20
BRANCH   1  33
ATOM     30  C   UNL     1       6.236   0.109   1.503  0.00  0.00    +0.000 A 
ATOM     31  C   UNL     1       5.654   1.348   1.307  0.00  0.00    +0.002 A 
ATOM     32  C   UNL     1       4.307   1.443   1.019  0.00  0.00    +0.028 A 
ATOM     33  C   UNL     1       3.536   0.292   0.926  0.00  0.00    +0.065 A 
ATOM     34  C   UNL     1       4.121  -0.951   1.129  0.00  0.00    +0.028 A 
ATOM     35  C   UNL     1       5.470  -1.040   1.411  0.00  0.00    +0.002 A 
ENDBRANCH   1  33
TORSDOF 3
