REMARK  Name = ZINC63140711
REMARK  5 active torsions:
REMARK  status: ('A' for Active; 'I' for Inactive)
REMARK    1  A    between atoms: C_1  and  O_2
REMARK    2  A    between atoms: O_2  and  C_3
REMARK    3  A    between atoms: C_3  and  C_4
REMARK    4  A    between atoms: C_4  and  N_5
REMARK    5  A    between atoms: C_25  and  C_27
REMARK                            x       y       z     vdW  Elec       q    Type
REMARK                         _______ _______ _______ _____ _____    ______ ____
ROOT
ATOM      1  N   UNL     1      -0.836  -2.379  -1.491  0.00  0.00    -0.289 N 
ATOM      2  C   UNL     1      -1.462  -2.539  -0.190  0.00  0.00    +0.203 C 
ATOM      3  C   UNL     1      -2.846  -3.088  -0.294  0.00  0.00    +0.234 C 
ATOM      4  O   UNL     1      -3.462  -3.264   0.737  0.00  0.00    -0.274 OA
ATOM      5  N   UNL     1      -3.457  -3.401  -1.443  0.00  0.00    -0.279 N 
ATOM      6  C   UNL     1      -2.826  -3.218  -2.746  0.00  0.00    +0.167 C 
ATOM      7  C   UNL     1      -1.439  -2.674  -2.641  0.00  0.00    +0.237 C 
ATOM      8  O   UNL     1      -0.821  -2.494  -3.669  0.00  0.00    -0.274 OA
ATOM      9  C   UNL     1      -3.682  -2.279  -3.616  0.00  0.00    +0.065 C 
ATOM     10  C   UNL     1      -5.108  -2.750  -3.482  0.00  0.00    -0.034 C 
ATOM     11  C   UNL     1      -6.027  -3.045  -4.393  0.00  0.00    -0.001 A 
ATOM     12  C   UNL     1      -6.031  -2.914  -5.859  0.00  0.00    +0.010 A 
ATOM     13  C   UNL     1      -7.153  -3.341  -6.496  0.00  0.00    +0.001 A 
ATOM     14  C   UNL     1      -8.259  -3.878  -5.830  0.00  0.00    +0.002 A 
ATOM     15  C   UNL     1      -8.346  -4.026  -4.484  0.00  0.00    +0.026 A 
ATOM     16  C   UNL     1      -7.229  -3.605  -3.704  0.00  0.00    +0.043 A 
ATOM     17  N   UNL     1      -7.054  -3.609  -2.415  0.00  0.00    -0.375 N 
ATOM     18  C   UNL     1      -5.755  -3.001  -2.125  0.00  0.00    +0.131 C 
ATOM     19  C   UNL     1      -4.827  -3.956  -1.369  0.00  0.00    +0.133 C 
ATOM     20  H   UNL     1      -7.678  -3.956  -1.759  0.00  0.00    +0.160 HD
ENDROOT
BRANCH  19  21
ATOM     21  C   UNL     1      -4.863  -5.319  -2.011  0.00  0.00    -0.025 A 
ATOM     22  C   UNL     1      -4.497  -5.468  -3.336  0.00  0.00    +0.006 A 
ATOM     23  C   UNL     1      -4.530  -6.718  -3.925  0.00  0.00    +0.015 A 
ATOM     24  C   UNL     1      -4.928  -7.819  -3.189  0.00  0.00    +0.018 A 
ATOM     25  C   UNL     1      -5.293  -7.669  -1.863  0.00  0.00    +0.015 A 
ATOM     26  C   UNL     1      -5.256  -6.420  -1.273  0.00  0.00    +0.006 A 
ATOM     27 BR   UNL     1      -4.973  -9.529  -3.994  0.00  0.00    -0.050 Br
ENDBRANCH  19  21
BRANCH   1  28
ATOM     28  C   UNL     1       0.533  -1.859  -1.541  0.00  0.00    +0.136 C 
BRANCH  28  29
ATOM     29  C   UNL     1       0.496  -0.332  -1.634  0.00  0.00    +0.178 C 
BRANCH  29  31
ATOM     30  C   UNL     1      -0.150   1.631  -0.420  0.00  0.00    +0.194 C 
ATOM     31  O   UNL     1      -0.069   0.204  -0.436  0.00  0.00    -0.381 OA
ENDBRANCH  29  31
ENDBRANCH  28  29
ENDBRANCH   1  28
TORSDOF 4
