REMARK  Name = ZINC28083674
REMARK  6 active torsions:
REMARK  status: ('A' for Active; 'I' for Inactive)
REMARK    1  A    between atoms: C_1  and  C_2
REMARK    2  A    between atoms: N_4  and  C_5
REMARK    3  A    between atoms: C_8  and  S_11
REMARK    4  A    between atoms: S_11  and  C_12
REMARK    5  A    between atoms: C_12  and  C_13
REMARK    6  A    between atoms: N_18  and  C_19
REMARK                            x       y       z     vdW  Elec       q    Type
REMARK                         _______ _______ _______ _____ _____    ______ ____
ROOT
ATOM      1  C   UNL     1      -5.770   6.353  -0.465  0.00  0.00    +0.231 C 
ATOM      2  O   UNL     1      -6.855   5.819  -0.559  0.00  0.00    -0.274 OA
ATOM      3  N   UNL     1      -5.686   7.694  -0.365  0.00  0.00    -0.239 N 
ATOM      4  C   UNL     1      -6.808   8.442  -0.369  0.00  0.00    +0.310 C 
ATOM      5  O   UNL     1      -7.895   7.907  -0.463  0.00  0.00    -0.252 OA
ATOM      6  N   UNL     1      -6.724   9.784  -0.269  0.00  0.00    -0.269 N 
ATOM      7  H   UNL     1      -4.703   8.179  -0.281  0.00  0.00    +0.159 HD
ATOM      8  H   UNL     1      -5.739  10.274  -0.270  0.00  0.00    +0.156 HD
ENDROOT
BRANCH   6   9
ATOM      9  C   UNL     1      -7.890  10.553  -0.165  0.00  0.00    +0.038 A 
ATOM     10  C   UNL     1      -7.936  11.822  -0.724  0.00  0.00    +0.027 A 
ATOM     11  C   UNL     1      -9.087  12.582  -0.628  0.00  0.00    +0.051 A 
ATOM     12  C   UNL     1     -10.192  12.078   0.038  0.00  0.00    +0.162 A 
ATOM     13  C   UNL     1     -10.147  10.811   0.603  0.00  0.00    +0.164 A 
ATOM     14  C   UNL     1      -8.998  10.046   0.504  0.00  0.00    +0.072 A 
ATOM     15  O   UNL     1     -11.242  10.325   1.256  0.00  0.00    -0.488 OA
ATOM     16  C   UNL     1     -11.578  10.975   2.483  0.00  0.00    +0.232 C 
ATOM     17  C   UNL     1     -12.421  12.214   2.225  0.00  0.00    +0.082 C 
ATOM     18  C   UNL     1     -11.660  13.282   1.455  0.00  0.00    +0.232 C 
ATOM     19  O   UNL     1     -11.331  12.823   0.142  0.00  0.00    -0.488 OA
ENDBRANCH   6   9
BRANCH   1  20
ATOM     20  C   UNL     1      -4.516   5.517  -0.461  0.00  0.00    +0.170 C 
BRANCH  20  21
ATOM     21  S   UNL     1      -4.958   3.764  -0.609  0.00  0.00    -0.116 S 
BRANCH  21  25
ATOM     22  C   UNL     1      -0.966   1.620  -0.560  0.00  0.00    +0.033 A 
ATOM     23  C   UNL     1      -1.012   3.004  -0.458  0.00  0.00    +0.024 A 
ATOM     24  C   UNL     1      -2.228   3.658  -0.478  0.00  0.00    +0.016 A 
ATOM     25  C   UNL     1      -3.406   2.930  -0.589  0.00  0.00    +0.008 A 
ATOM     26  C   UNL     1      -3.360   1.545  -0.685  0.00  0.00    +0.016 A 
ATOM     27  C   UNL     1      -2.144   0.892  -0.671  0.00  0.00    +0.024 A 
BRANCH  22  31
ATOM     28  C   UNL     1       1.804  -0.804  -1.355  0.00  0.00    +0.109 C 
ATOM     29  C   UNL     1       0.449  -0.148  -1.295  0.00  0.00    +0.214 C 
ATOM     30  O   UNL     1      -0.479  -0.614  -1.922  0.00  0.00    -0.276 OA
ATOM     31  N   UNL     1       0.269   0.957  -0.544  0.00  0.00    -0.286 N 
ATOM     32  H   UNL     1       1.090   1.338   0.080  0.00  0.00    +0.155 HD
ENDBRANCH  22  31
ENDBRANCH  21  25
ENDBRANCH  20  21
ENDBRANCH   1  20
TORSDOF 5
