REMARK  Name = ZINC40404283
REMARK  16 active torsions:
REMARK  status: ('A' for Active; 'I' for Inactive)
REMARK    1  A    between atoms: C_1  and  O_2
REMARK    2  A    between atoms: O_2  and  C_3
REMARK    3  A    between atoms: C_3  and  C_4
REMARK    4  A    between atoms: C_4  and  N_5
REMARK    5  A    between atoms: N_5  and  C_6
REMARK    6  A    between atoms: N_5  and  C_22
REMARK    7  A    between atoms: C_6  and  C_7
REMARK    8  A    between atoms: C_10  and  C_12
REMARK    9  A    between atoms: C_12  and  C_13
REMARK   10  A    between atoms: C_12  and  C_17
REMARK   11  A    between atoms: C_12  and  O_21
REMARK   12  A    between atoms: C_13  and  C_14
REMARK   13  A    between atoms: C_14  and  C_15
REMARK   14  A    between atoms: C_17  and  C_18
REMARK   15  A    between atoms: C_18  and  C_19
REMARK   16  A    between atoms: C_22  and  C_23
REMARK                            x       y       z     vdW  Elec       q    Type
REMARK                         _______ _______ _______ _____ _____    ______ ____
ROOT
ATOM      1  C   UNL     1      -1.599  -0.937  -2.180  0.00  0.00    +0.089 A 
ATOM      2  C   UNL     1      -0.579  -0.468  -2.920  0.00  0.00    +0.043 A 
ATOM      3  C   UNL     1      -0.786   0.923  -3.069  0.00  0.00    +0.048 A 
ATOM      4  C   UNL     1      -1.921   1.220  -2.412  0.00  0.00    +0.137 A 
ATOM      5  O   UNL     1      -2.412   0.089  -1.880  0.00  0.00    -0.464 OA
ENDROOT
BRANCH   1   6
ATOM      6  C   UNL     1      -1.799  -2.372  -1.764  0.00  0.00    -0.003 C 
BRANCH   6   7
ATOM      7  N   UNL     1      -1.030  -2.639  -0.541  0.00  0.00    +0.389 N 
ATOM      8  H   UNL     1      -0.065  -2.385  -0.689  0.00  0.00    -0.081 HD
BRANCH   7   9
ATOM      9  C   UNL     1      -1.116  -4.068  -0.211  0.00  0.00    -0.049 C 
BRANCH   9  10
ATOM     10  C   UNL     1      -0.415  -4.885  -1.299  0.00  0.00    +0.141 C 
BRANCH  10  12
ATOM     11  C   UNL     1       1.727  -5.275  -2.301  0.00  0.00    +0.193 C 
ATOM     12  O   UNL     1       0.977  -4.562  -1.315  0.00  0.00    -0.385 OA
ENDBRANCH  10  12
ENDBRANCH   9  10
ENDBRANCH   7   9
BRANCH   7  13
ATOM     13  C   UNL     1      -1.581  -1.847   0.567  0.00  0.00    -0.035 C 
BRANCH  13  14
ATOM     14  C   UNL     1      -0.718  -2.026   1.789  0.00  0.00    -0.027 A 
ATOM     15  C   UNL     1       0.356  -1.302   2.190  0.00  0.00    +0.009 A 
ATOM     16  C   UNL     1       1.001  -1.652   3.361  0.00  0.00    +0.008 A 
ATOM     17  C   UNL     1       0.540  -2.708   4.075  0.00  0.00    +0.045 A 
ATOM     18  S   UNL     1      -0.851  -3.241   3.090  0.00  0.00    -0.103 S 
ENDBRANCH  13  14
ENDBRANCH   7  13
ENDBRANCH   6   7
ENDBRANCH   1   6
BRANCH   4  19
ATOM     19  C   UNL     1      -2.540   2.589  -2.296  0.00  0.00    +0.124 C 
BRANCH  19  20
ATOM     20  O   UNL     1      -2.222   3.356  -3.459  0.00  0.00    -0.381 OA
ATOM     21  H   UNL     1      -2.542   2.967  -4.285  0.00  0.00    +0.211 HD
ENDBRANCH  19  20
BRANCH  19  22
ATOM     22  C   UNL     1      -4.059   2.454  -2.173  0.00  0.00    +0.047 C 
BRANCH  22  23
ATOM     23  C   UNL     1      -4.690   3.845  -2.088  0.00  0.00    +0.030 C 
BRANCH  23  24
ATOM     24  C   UNL     1      -6.176   3.711  -1.876  0.00  0.00    -0.034 C 
ATOM     25  C   UNL     1      -6.749   4.303  -0.858  0.00  0.00    +0.004 C 
ENDBRANCH  23  24
ENDBRANCH  22  23
ENDBRANCH  19  22
BRANCH  19  26
ATOM     26  C   UNL     1      -1.989   3.294  -1.054  0.00  0.00    +0.047 C 
BRANCH  26  27
ATOM     27  C   UNL     1      -0.471   3.433  -1.178  0.00  0.00    +0.030 C 
BRANCH  27  28
ATOM     28  C   UNL     1       0.083   4.043   0.084  0.00  0.00    -0.034 C 
ATOM     29  C   UNL     1       1.031   3.429   0.747  0.00  0.00    +0.004 C 
ENDBRANCH  27  28
ENDBRANCH  26  27
ENDBRANCH  19  26
ENDBRANCH   4  19
TORSDOF 15
