REMARK  Name = ZINC19625356
REMARK  12 active torsions:
REMARK  status: ('A' for Active; 'I' for Inactive)
REMARK    1  A    between atoms: C_1  and  C_2
REMARK    2  A    between atoms: C_2  and  C_4
REMARK    3  A    between atoms: C_2  and  N_17
REMARK    4  A    between atoms: N_6  and  C_7
REMARK    5  A    between atoms: C_10  and  S_13
REMARK    6  A    between atoms: S_13  and  N_16
REMARK    7  A    between atoms: N_17  and  C_18
REMARK    8  A    between atoms: C_18  and  C_20
REMARK    9  A    between atoms: C_18  and  C_24
REMARK   10  A    between atoms: C_20  and  C_21
REMARK   11  A    between atoms: C_21  and  C_22
REMARK   12  A    between atoms: C_21  and  C_23
REMARK                            x       y       z     vdW  Elec       q    Type
REMARK                         _______ _______ _______ _____ _____    ______ ____
ROOT
ATOM      1  C   UNL     1       0.752   2.104  -0.214  0.00  0.00    -0.004 C 
ATOM      2  C   UNL     1       0.860   0.761   0.513  0.00  0.00    +0.014 C 
ENDROOT
BRANCH   2   3
ATOM      3  C   UNL     1       1.913   0.855   1.587  0.00  0.00    +0.203 C 
ATOM      4  O   UNL     1       1.614   0.663   2.747  0.00  0.00    -0.277 OA
ATOM      5  N   UNL     1       3.186   1.151   1.258  0.00  0.00    -0.287 N 
ATOM      6  H   UNL     1       3.410   1.376   0.342  0.00  0.00    +0.155 HD
BRANCH   5   7
ATOM      7  C   UNL     1       4.184   1.133   2.239  0.00  0.00    +0.033 A 
ATOM      8  C   UNL     1       5.256   2.011   2.157  0.00  0.00    +0.025 A 
ATOM      9  C   UNL     1       6.239   1.990   3.127  0.00  0.00    +0.030 A 
ATOM     10  C   UNL     1       6.157   1.096   4.179  0.00  0.00    +0.105 A 
ATOM     11  C   UNL     1       5.090   0.220   4.263  0.00  0.00    +0.030 A 
ATOM     12  C   UNL     1       4.100   0.240   3.300  0.00  0.00    +0.025 A 
BRANCH  10  13
ATOM     13  S   UNL     1       7.413   1.073   5.414  0.00  0.00    +0.056 S 
ATOM     14  O   UNL     1       7.387  -0.223   5.995  0.00  0.00    -0.153 OA
ATOM     15  O   UNL     1       8.582   1.616   4.814  0.00  0.00    -0.153 OA
BRANCH  13  16
ATOM     16  N   UNL     1       6.953   2.134   6.600  0.00  0.00    -0.204 NA
ATOM     17  H   UNL     1       6.119   2.622   6.517  0.00  0.00    +0.144 HD
ATOM     18  H   UNL     1       7.518   2.266   7.377  0.00  0.00    +0.144 HD
ENDBRANCH  13  16
ENDBRANCH  10  13
ENDBRANCH   5   7
ENDBRANCH   2   3
BRANCH   2  19
ATOM     19  N   UNL     1      -0.434   0.429   1.123  0.00  0.00    +0.391 N 
ATOM     20  H   UNL     1      -0.328  -0.379   1.718  0.00  0.00    -0.084 HD
ATOM     21  H   UNL     1      -0.757   1.211   1.673  0.00  0.00    -0.084 HD
BRANCH  19  22
ATOM     22  C   UNL     1      -1.413   0.136   0.068  0.00  0.00    -0.040 C 
BRANCH  22  23
ATOM     23  C   UNL     1      -1.774   1.410  -0.651  0.00  0.00    -0.061 A 
ATOM     24  C   UNL     1      -1.939   2.583   0.062  0.00  0.00    +0.002 A 
ATOM     25  C   UNL     1      -2.270   3.752  -0.597  0.00  0.00    +0.000 A 
ATOM     26  C   UNL     1      -2.437   3.748  -1.969  0.00  0.00    +0.000 A 
ATOM     27  C   UNL     1      -2.272   2.575  -2.683  0.00  0.00    +0.000 A 
ATOM     28  C   UNL     1      -1.937   1.407  -2.024  0.00  0.00    +0.002 A 
ENDBRANCH  22  23
BRANCH  22  29
ATOM     29  C   UNL     1      -2.670  -0.472   0.692  0.00  0.00    -0.008 C 
BRANCH  29  30
ATOM     30  C   UNL     1      -2.331  -1.835   1.300  0.00  0.00    -0.018 C 
ATOM     31  C   UNL     1      -3.548  -2.375   2.053  0.00  0.00    +0.007 C 
ATOM     32  C   UNL     1      -1.948  -2.809   0.184  0.00  0.00    +0.007 C 
ENDBRANCH  29  30
ENDBRANCH  22  29
ENDBRANCH  19  22
ENDBRANCH   2  19
TORSDOF 9
