REMARK  Name = ZINC04345821
REMARK  15 active torsions:
REMARK  status: ('A' for Active; 'I' for Inactive)
REMARK    1  A    between atoms: C_1  and  C_2
REMARK    2  A    between atoms: C_2  and  C_3
REMARK    3  A    between atoms: C_3  and  C_4
REMARK    4  A    between atoms: C_4  and  C_5
REMARK    5  A    between atoms: C_5  and  C_7
REMARK    6  A    between atoms: C_5  and  C_9
REMARK    7  A    between atoms: C_7  and  C_8
REMARK    8  A    between atoms: N_11  and  C_12
REMARK    9  A    between atoms: N_11  and  C_29
REMARK   10  A    between atoms: C_12  and  C_13
REMARK   11  A    between atoms: N_15  and  C_16
REMARK   12  A    between atoms: N_15  and  C_23
REMARK   13  A    between atoms: C_16  and  C_17
REMARK   14  A    between atoms: N_21  and  C_22
REMARK   15  A    between atoms: C_23  and  C_24
REMARK                            x       y       z     vdW  Elec       q    Type
REMARK                         _______ _______ _______ _____ _____    ______ ____
ROOT
ATOM      1  C   UNL     1      -0.771   2.333  -1.549  0.00  0.00    +0.234 C 
ATOM      2  O   UNL     1      -1.285   2.944  -2.461  0.00  0.00    -0.274 OA
ATOM      3  N   UNL     1      -1.047   1.025  -1.374  0.00  0.00    -0.287 N 
ENDROOT
BRANCH   1   4
ATOM      4  C   UNL     1       0.176   3.034  -0.610  0.00  0.00    +0.204 C 
BRANCH   4   7
ATOM      5  C   UNL     1       1.265   4.802  -1.886  0.00  0.00    +0.219 C 
ATOM      6  O   UNL     1       1.964   3.958  -2.405  0.00  0.00    -0.275 OA
ATOM      7  N   UNL     1       0.308   4.438  -1.009  0.00  0.00    -0.289 N 
BRANCH   7   8
ATOM      8  C   UNL     1      -0.599   5.446  -0.455  0.00  0.00    +0.077 C 
ATOM      9  C   UNL     1      -1.625   4.979   0.580  0.00  0.00    +0.024 C 
ATOM     10  C   UNL     1      -2.078   5.349  -0.834  0.00  0.00    +0.024 C 
ENDBRANCH   7   8
BRANCH   5  11
ATOM     11  C   UNL     1       1.466   6.258  -2.220  0.00  0.00    +0.075 C 
BRANCH  11  12
ATOM     12  C   UNL     1       2.176   6.955  -1.059  0.00  0.00    +0.009 C 
ATOM     13  C   UNL     1       3.575   6.360  -0.885  0.00  0.00    +0.004 C 
ENDBRANCH  11  12
BRANCH  11  14
ATOM     14  C   UNL     1       2.318   6.377  -3.485  0.00  0.00    +0.013 C 
BRANCH  14  15
ATOM     15  C   UNL     1       2.419   7.848  -3.895  0.00  0.00    +0.000 C 
BRANCH  15  17
ATOM     16  C   UNL     1       3.264   9.426  -5.638  0.00  0.00    +0.004 C 
ATOM     17  C   UNL     1       3.164   7.956  -5.228  0.00  0.00    -0.003 C 
ENDBRANCH  15  17
ENDBRANCH  14  15
ENDBRANCH  11  14
ENDBRANCH   5  11
ENDBRANCH   4   7
ENDBRANCH   1   4
BRANCH   3  18
ATOM     18  C   UNL     1      -1.968   0.343  -2.287  0.00  0.00    +0.161 C 
BRANCH  18  19
ATOM     19  C   UNL     1      -1.180  -0.359  -3.364  0.00  0.00    +0.036 A 
ATOM     20  C   UNL     1      -0.819  -1.658  -3.360  0.00  0.00    +0.024 A 
ATOM     21  C   UNL     1      -0.099  -1.899  -4.547  0.00  0.00    +0.019 A 
ATOM     22  C   UNL     1      -0.048  -0.738  -5.231  0.00  0.00    +0.085 A 
ATOM     23  N   UNL     1      -0.715   0.210  -4.512  0.00  0.00    -0.352 N 
ATOM     24  C   UNL     1      -0.898   1.609  -4.907  0.00  0.00    +0.148 C 
ENDBRANCH  18  19
ENDBRANCH   3  18
BRANCH   3  25
ATOM     25  C   UNL     1      -0.426   0.286  -0.272  0.00  0.00    +0.182 C 
BRANCH  25  26
ATOM     26  C   UNL     1      -1.279   0.416   0.963  0.00  0.00    +0.122 A 
ATOM     27  C   UNL     1      -2.224  -0.453   1.362  0.00  0.00    +0.046 A 
ATOM     28  C   UNL     1      -2.771   0.057   2.562  0.00  0.00    +0.041 A 
ATOM     29  C   UNL     1      -2.127   1.208   2.825  0.00  0.00    +0.195 A 
ATOM     30  O   UNL     1      -1.220   1.418   1.856  0.00  0.00    -0.466 OA
ENDBRANCH  25  26
ENDBRANCH   3  25
TORSDOF 12
