REMARK  Name = ZINC63351344
REMARK  4 active torsions:
REMARK  status: ('A' for Active; 'I' for Inactive)
REMARK    1  A    between atoms: C_1  and  C_2
REMARK    2  A    between atoms: C_2  and  C_32
REMARK    3  A    between atoms: N_20  and  N_23
REMARK    4  A    between atoms: C_24  and  C_25
REMARK                            x       y       z     vdW  Elec       q    Type
REMARK                         _______ _______ _______ _____ _____    ______ ____
ROOT
ATOM      1  C   UNL     1      -0.019   1.522   0.010  0.00  0.00    +0.034 C 
ATOM      2  C   UNL     1       0.002  -0.004   0.002  0.00  0.00    +0.057 C 
ATOM      3  C   UNL     1       0.750  -0.510  -1.238  0.00  0.00    +0.129 C 
ATOM      4  C   UNL     1       0.798  -2.029  -1.109  0.00  0.00    -0.034 C 
ATOM      5  C   UNL     1       0.267  -2.516  -2.222  0.00  0.00    -0.001 A 
ATOM      6  C   UNL     1       0.084  -3.896  -2.700  0.00  0.00    +0.010 A 
ATOM      7  C   UNL     1      -0.513  -4.037  -3.913  0.00  0.00    +0.001 A 
ATOM      8  C   UNL     1      -0.942  -2.956  -4.689  0.00  0.00    +0.002 A 
ATOM      9  C   UNL     1      -0.813  -1.654  -4.329  0.00  0.00    +0.026 A 
ATOM     10  C   UNL     1      -0.197  -1.378  -3.074  0.00  0.00    +0.043 A 
ATOM     11  N   UNL     1       0.058  -0.241  -2.493  0.00  0.00    -0.375 N 
ATOM     12  C   UNL     1       1.348  -2.708   0.122  0.00  0.00    +0.065 C 
ATOM     13  C   UNL     1       0.656  -2.045   1.329  0.00  0.00    +0.168 C 
ATOM     14  N   UNL     1       0.699  -0.582   1.167  0.00  0.00    -0.281 N 
ATOM     15  C   UNL     1       1.392   0.152   2.039  0.00  0.00    +0.236 C 
ATOM     16  O   UNL     1       1.992   1.148   1.731  0.00  0.00    -0.274 OA
ATOM     17  C   UNL     1       1.505  -0.245   3.488  0.00  0.00    +0.230 C 
ATOM     18  N   UNL     1       1.653  -1.690   3.590  0.00  0.00    -0.183 N 
ATOM     19  C   UNL     1       1.302  -2.505   2.595  0.00  0.00    +0.256 C 
ATOM     20  O   UNL     1       1.519  -3.690   2.726  0.00  0.00    -0.272 OA
ATOM     21  C   UNL     1      -1.450  -0.504  -0.043  0.00  0.00    +0.034 C 
ATOM     22  H   UNL     1      -0.175   0.632  -2.848  0.00  0.00    +0.160 HD
ENDROOT
BRANCH  18  23
ATOM     23  N   UNL     1       2.178  -2.235   4.763  0.00  0.00    -0.184 NA
ATOM     24  C   UNL     1       2.525  -1.456   5.741  0.00  0.00    +0.138 C 
BRANCH  24  25
ATOM     25  C   UNL     1       3.079  -2.032   6.981  0.00  0.00    -0.004 A 
ATOM     26  C   UNL     1       3.237  -3.415   7.103  0.00  0.00    +0.009 A 
ATOM     27  C   UNL     1       3.757  -3.947   8.264  0.00  0.00    +0.002 A 
ATOM     28  C   UNL     1       4.121  -3.115   9.308  0.00  0.00    +0.015 A 
ATOM     29  C   UNL     1       3.967  -1.743   9.195  0.00  0.00    +0.018 A 
ATOM     30  C   UNL     1       3.454  -1.197   8.036  0.00  0.00    +0.024 A 
ATOM     31 BR   UNL     1       4.467  -0.616  10.629  0.00  0.00    -0.050 Br
ENDBRANCH  24  25
ENDBRANCH  18  23
TORSDOF 2
