REMARK  Name = ZINC19869027
REMARK  9 active torsions:
REMARK  status: ('A' for Active; 'I' for Inactive)
REMARK    1  A    between atoms: C_1  and  C_2
REMARK    2  A    between atoms: C_4  and  C_31
REMARK    3  A    between atoms: N_10  and  C_11
REMARK    4  A    between atoms: N_13  and  C_14
REMARK    5  A    between atoms: N_20  and  C_21
REMARK    6  A    between atoms: C_23  and  C_29
REMARK    7  A    between atoms: C_23  and  C_30
REMARK    8  A    between atoms: C_25  and  C_27
REMARK    9  A    between atoms: C_25  and  C_28
REMARK                            x       y       z     vdW  Elec       q    Type
REMARK                         _______ _______ _______ _____ _____    ______ ____
ROOT
ATOM      1  C   UNL     1      -3.542  -3.452   2.974  0.00  0.00    +0.066 C 
ATOM      2  C   UNL     1      -2.304  -3.351   2.121  0.00  0.00    +0.044 A 
ATOM      3  C   UNL     1      -2.257  -3.963   0.878  0.00  0.00    +0.046 A 
ATOM      4  C   UNL     1      -1.099  -3.845   0.125  0.00  0.00    +0.044 A 
ATOM      5  N   UNL     1      -0.081  -3.156   0.612  0.00  0.00    -0.217 NA
ATOM      6  C   UNL     1      -0.159  -2.583   1.804  0.00  0.00    +0.231 A 
ATOM      7  N   UNL     1      -1.252  -2.673   2.546  0.00  0.00    -0.217 NA
ATOM      8  N   UNL     1       0.930  -1.867   2.284  0.00  0.00    -0.297 N 
ATOM      9  C   UNL     1       0.911  -1.364   3.555  0.00  0.00    +0.198 C 
ATOM     10  N   UNL     1       0.490  -2.116   4.558  0.00  0.00    -0.129 NA
ATOM     11  N   UNL     1       1.325  -0.086   3.789  0.00  0.00    -0.355 N 
ATOM     12  C   UNL     1      -1.002  -4.495  -1.231  0.00  0.00    +0.066 C 
ATOM     13  H   UNL     1       1.704  -1.724   1.717  0.00  0.00    +0.171 HD
ATOM     14  H   UNL     1       1.359   0.255   4.697  0.00  0.00    +0.163 HD
ENDROOT
BRANCH  11  15
ATOM     15  C   UNL     1       1.720   0.775   2.667  0.00  0.00    +0.079 C 
ATOM     16  C   UNL     1       3.207   0.566   2.373  0.00  0.00    +0.011 C 
ATOM     17  C   UNL     1       3.637   1.464   1.214  0.00  0.00    -0.071 C 
ATOM     18  N   UNL     1       3.306   2.861   1.452  0.00  0.00    +0.386 N 
ATOM     19  C   UNL     1       1.970   3.167   1.937  0.00  0.00    -0.071 C 
ATOM     20  C   UNL     1       1.510   2.238   3.055  0.00  0.00    +0.011 C 
ATOM     21  C   UNL     1       2.003   4.601   2.516  0.00  0.00    -0.010 C 
ATOM     22  C   UNL     1       0.942   3.167   0.802  0.00  0.00    -0.010 C 
ATOM     23  C   UNL     1       3.050   0.950  -0.100  0.00  0.00    -0.010 C 
ATOM     24  C   UNL     1       5.175   1.361   1.100  0.00  0.00    -0.010 C 
ATOM     25  H   UNL     1       3.985   3.243   2.116  0.00  0.00    -0.084 HD
ATOM     26  H   UNL     1       3.461   3.380   0.584  0.00  0.00    -0.084 HD
ENDBRANCH  11  15
BRANCH  10  27
ATOM     27  C   UNL     1       0.435  -3.449   4.420  0.00  0.00    +0.330 C 
ATOM     28  O   UNL     1       0.877  -3.975   3.414  0.00  0.00    -0.250 OA
ATOM     29  N   UNL     1      -0.109  -4.206   5.393  0.00  0.00    -0.268 N 
ATOM     30  H   UNL     1      -0.532  -3.784   6.157  0.00  0.00    +0.156 HD
BRANCH  29  31
ATOM     31  C   UNL     1      -0.065  -5.601   5.300  0.00  0.00    +0.035 A 
ATOM     32  C   UNL     1       1.003  -6.223   4.668  0.00  0.00    +0.023 A 
ATOM     33  C   UNL     1       1.044  -7.601   4.579  0.00  0.00    +0.002 A 
ATOM     34  C   UNL     1       0.022  -8.361   5.118  0.00  0.00    +0.000 A 
ATOM     35  C   UNL     1      -1.044  -7.744   5.748  0.00  0.00    +0.002 A 
ATOM     36  C   UNL     1      -1.087  -6.367   5.846  0.00  0.00    +0.023 A 
ENDBRANCH  29  31
ENDBRANCH  10  27
TORSDOF 3
