REMARK  Name = ZINC22942591
REMARK  3 active torsions:
REMARK  status: ('A' for Active; 'I' for Inactive)
REMARK    1  A    between atoms: C_9  and  N_12
REMARK    2  A    between atoms: N_15  and  C_18
REMARK    3  A    between atoms: N_23  and  C_26
REMARK                            x       y       z     vdW  Elec       q    Type
REMARK                         _______ _______ _______ _____ _____    ______ ____
ROOT
ATOM      1  N   UNL     1       4.975  -3.243   0.437  0.00  0.00    +0.383 N 
ATOM      2  C   UNL     1       4.916  -4.667   0.083  0.00  0.00    -0.063 C 
ATOM      3  C   UNL     1       6.330  -5.252   0.081  0.00  0.00    +0.066 C 
ATOM      4  N   UNL     1       7.157  -4.522  -0.891  0.00  0.00    -0.295 NA
ATOM      5  C   UNL     1       7.205  -3.090  -0.564  0.00  0.00    +0.066 C 
ATOM      6  C   UNL     1       5.784  -2.523  -0.556  0.00  0.00    -0.063 C 
ATOM      7  H   UNL     1       5.394  -3.140   1.350  0.00  0.00    -0.081 HD
ENDROOT
BRANCH   1  16
ATOM      8  C   UNL     1      -0.222   0.424   1.545  0.00  0.00    +0.000 A 
ATOM      9  C   UNL     1       0.862   1.250   1.313  0.00  0.00    +0.000 A 
ATOM     10  C   UNL     1       2.107   0.700   1.091  0.00  0.00    +0.004 A 
ATOM     11  C   UNL     1       2.281  -0.679   1.095  0.00  0.00    -0.046 A 
ATOM     12  C   UNL     1       1.200  -1.501   1.321  0.00  0.00    -0.044 A 
ATOM     13  C   UNL     1      -0.052  -0.945   1.549  0.00  0.00    +0.004 A 
ATOM     14  C   UNL     1       1.311  -3.003   1.324  0.00  0.00    +0.034 C 
ATOM     15  C   UNL     1       2.767  -3.434   1.492  0.00  0.00    -0.010 C 
ATOM     16  C   UNL     1       3.616  -2.686   0.457  0.00  0.00    -0.064 C 
ATOM     17  C   UNL     1       3.669  -1.212   0.852  0.00  0.00    +0.020 C 
ENDBRANCH   1  16
BRANCH   4  18
ATOM     18  C   UNL     1       8.509  -5.091  -0.964  0.00  0.00    +0.153 C 
ATOM     19  C   UNL     1       9.352  -4.353  -2.024  0.00  0.00    +0.125 C 
ATOM     20  C   UNL     1       9.691  -5.437  -3.025  0.00  0.00    +0.228 C 
ATOM     21  O   UNL     1      10.351  -5.283  -4.030  0.00  0.00    -0.275 OA
ATOM     22  N   UNL     1       9.147  -6.593  -2.624  0.00  0.00    -0.209 N 
ATOM     23  C   UNL     1       8.460  -6.515  -1.473  0.00  0.00    +0.244 C 
ATOM     24  O   UNL     1       7.891  -7.437  -0.929  0.00  0.00    -0.273 OA
BRANCH  22  25
ATOM     25  C   UNL     1       9.286  -7.787  -3.345  0.00  0.00    +0.044 A 
ATOM     26  C   UNL     1      10.529  -8.396  -3.449  0.00  0.00    +0.025 A 
ATOM     27  C   UNL     1      10.663  -9.573  -4.160  0.00  0.00    +0.017 A 
ATOM     28  C   UNL     1       9.560 -10.144  -4.768  0.00  0.00    +0.018 A 
ATOM     29  C   UNL     1       8.320  -9.539  -4.666  0.00  0.00    +0.017 A 
ATOM     30  C   UNL     1       8.180  -8.365  -3.952  0.00  0.00    +0.025 A 
ATOM     31 BR   UNL     1       9.747 -11.755  -5.742  0.00  0.00    -0.050 Br
ENDBRANCH  22  25
ENDBRANCH   4  18
TORSDOF 3
