REMARK  Name = ZINC64490946
REMARK  5 active torsions:
REMARK  status: ('A' for Active; 'I' for Inactive)
REMARK    1  A    between atoms: C_1  and  C_2
REMARK    2  A    between atoms: C_2  and  C_4
REMARK    3  A    between atoms: C_2  and  S_17
REMARK    4  A    between atoms: N_6  and  C_7
REMARK    5  A    between atoms: S_17  and  C_18
REMARK                            x       y       z     vdW  Elec       q    Type
REMARK                         _______ _______ _______ _____ _____    ______ ____
ROOT
ATOM      1  C   UNL     1      -0.008   1.520   0.019  0.00  0.00    +0.029 C 
ATOM      2  C   UNL     1       0.004  -0.010   0.003  0.00  0.00    +0.133 C 
ENDROOT
BRANCH   2   3
ATOM      3  C   UNL     1      -1.412  -0.524   0.013  0.00  0.00    +0.230 C 
ATOM      4  O   UNL     1      -1.931  -0.891  -1.021  0.00  0.00    -0.274 OA
ATOM      5  N   UNL     1      -2.103  -0.575   1.169  0.00  0.00    -0.284 N 
ATOM      6  H   UNL     1      -1.668  -0.345   2.004  0.00  0.00    +0.155 HD
BRANCH   5   7
ATOM      7  C   UNL     1      -3.450  -0.960   1.163  0.00  0.00    +0.037 A 
ATOM      8  C   UNL     1      -4.344  -0.374   2.050  0.00  0.00    +0.027 A 
ATOM      9  C   UNL     1      -5.671  -0.755   2.046  0.00  0.00    +0.051 A 
ATOM     10  C   UNL     1      -6.117  -1.722   1.156  0.00  0.00    +0.162 A 
ATOM     11  C   UNL     1      -5.225  -2.308   0.266  0.00  0.00    +0.164 A 
ATOM     12  C   UNL     1      -3.893  -1.924   0.268  0.00  0.00    +0.072 A 
ATOM     13  O   UNL     1      -5.645  -3.253  -0.620  0.00  0.00    -0.485 OA
ATOM     14  C   UNL     1      -6.904  -3.877  -0.346  0.00  0.00    +0.270 C 
ATOM     15  C   UNL     1      -7.915  -2.781   0.016  0.00  0.00    +0.270 C 
ATOM     16  O   UNL     1      -7.429  -2.086   1.169  0.00  0.00    -0.485 OA
ENDBRANCH   5   7
ENDBRANCH   2   3
BRANCH   2  17
ATOM     17  S   UNL     1       0.849  -0.593  -1.492  0.00  0.00    -0.102 S 
BRANCH  17  18
ATOM     18  C   UNL     1       2.559  -0.026  -1.280  0.00  0.00    +0.237 C 
ATOM     19  N   UNL     1       3.130  -0.596  -0.052  0.00  0.00    -0.354 N 
ATOM     20  C   UNL     1       3.450   0.395   0.725  0.00  0.00    +0.080 A 
ATOM     21  C   UNL     1       4.053   0.460   2.069  0.00  0.00    +0.030 A 
ATOM     22  C   UNL     1       4.257   1.687   2.605  0.00  0.00    +0.022 A 
ATOM     23  C   UNL     1       3.903   2.851   1.899  0.00  0.00    +0.113 A 
ATOM     24  N   UNL     1       3.368   2.836   0.713  0.00  0.00    -0.236 NA
ATOM     25  C   UNL     1       3.110   1.681   0.059  0.00  0.00    +0.152 A 
ATOM     26  N   UNL     1       2.590   1.432  -1.113  0.00  0.00    -0.340 N 
ATOM     27  H   UNL     1       2.281   2.089  -1.756  0.00  0.00    +0.164 HD
ATOM     28  H   UNL     1       3.246  -1.539   0.143  0.00  0.00    +0.163 HD
ENDBRANCH  17  18
ENDBRANCH   2  17
TORSDOF 4
