REMARK  Name = ZINC63011645
REMARK  3 active torsions:
REMARK  status: ('A' for Active; 'I' for Inactive)
REMARK    1  A    between atoms: C_1  and  C_2
REMARK    2  A    between atoms: C_6  and  N_8
REMARK    3  A    between atoms: C_9  and  C_11
REMARK                            x       y       z     vdW  Elec       q    Type
REMARK                         _______ _______ _______ _____ _____    ______ ____
ROOT
ATOM      1  N   UNL     1       0.051  -2.637   2.419  0.00  0.00    -0.265 N 
ATOM      2  C   UNL     1       0.046  -1.921   3.561  0.00  0.00    +0.250 C 
ATOM      3  O   UNL     1       0.029  -0.706   3.516  0.00  0.00    -0.270 OA
ATOM      4  H   UNL     1       0.064  -3.606   2.454  0.00  0.00    +0.157 HD
ENDROOT
BRANCH   1  10
ATOM      5  C   UNL     1      -0.018   1.503   0.010  0.00  0.00    +0.067 C 
ATOM      6  C   UNL     1       0.002  -0.004   0.002  0.00  0.00    +0.059 A 
ATOM      7  C   UNL     1       0.006  -0.680  -1.204  0.00  0.00    +0.063 A 
ATOM      8  C   UNL     1       0.025  -2.068  -1.205  0.00  0.00    +0.045 A 
ATOM      9  C   UNL     1       0.040  -2.729   0.012  0.00  0.00    +0.082 A 
ATOM     10  C   UNL     1       0.035  -1.984   1.187  0.00  0.00    +0.144 A 
ATOM     11  N   UNL     1       0.022  -0.661   1.146  0.00  0.00    -0.234 NA
ATOM     12 CL   UNL     1       0.064  -4.464   0.071  0.00  0.00    -0.080 Cl
ATOM     13 CL   UNL     1      -0.015   0.199  -2.701  0.00  0.00    -0.082 Cl
ENDBRANCH   1  10
BRANCH   2  14
ATOM     14  C   UNL     1       0.062  -2.612   4.865  0.00  0.00    +0.043 A 
ATOM     15  C   UNL     1       0.088  -4.008   4.919  0.00  0.00    +0.054 A 
ATOM     16  C   UNL     1       0.103  -4.649   6.141  0.00  0.00    +0.162 A 
ATOM     17  C   UNL     1       0.093  -3.910   7.316  0.00  0.00    +0.193 A 
ATOM     18  C   UNL     1       0.068  -2.523   7.268  0.00  0.00    +0.162 A 
ATOM     19  C   UNL     1       0.058  -1.873   6.050  0.00  0.00    +0.054 A 
ATOM     20  F   UNL     1       0.058  -1.809   8.414  0.00  0.00    -0.202 F 
ATOM     21  F   UNL     1       0.108  -4.543   8.509  0.00  0.00    -0.199 F 
ATOM     22  F   UNL     1       0.127  -5.999   6.194  0.00  0.00    -0.202 F 
ENDBRANCH   2  14
TORSDOF 2
