REMARK  Name = ZINC15443265
REMARK  6 active torsions:
REMARK  status: ('A' for Active; 'I' for Inactive)
REMARK    1  A    between atoms: C_4  and  N_31
REMARK    2  A    between atoms: C_5  and  N_7
REMARK    3  A    between atoms: C_12  and  C_13
REMARK    4  A    between atoms: C_12  and  N_60
REMARK    5  A    between atoms: N_18  and  S_21
REMARK    6  A    between atoms: S_21  and  C_24
REMARK                            x       y       z     vdW  Elec       q    Type
REMARK                         _______ _______ _______ _____ _____    ______ ____
ROOT
ATOM      1  C   UNL     1      -0.580   3.909  -2.014  0.00  0.00    +0.199 C 
ATOM      2  O   UNL     1      -0.004   3.503  -3.002  0.00  0.00    -0.278 OA
ATOM      3  N   UNL     1      -0.997   3.039  -1.073  0.00  0.00    -0.300 N 
ATOM      4  C   UNL     1      -0.761   1.597  -1.229  0.00  0.00    +0.125 C 
ATOM      5  C   UNL     1      -0.013   1.086   0.008  0.00  0.00    +0.128 C 
ATOM      6  N   UNL     1      -0.707   1.563   1.212  0.00  0.00    -0.174 NA
ATOM      7  C   UNL     1      -0.947   3.005   1.367  0.00  0.00    +0.128 C 
ATOM      8  C   UNL     1      -1.695   3.517   0.130  0.00  0.00    +0.125 C 
ENDROOT
BRANCH   6   9
ATOM      9  S   UNL     1      -1.216   0.495   2.371  0.00  0.00    +0.061 S 
ATOM     10  O   UNL     1      -2.282   1.127   3.066  0.00  0.00    -0.153 OA
ATOM     11  O   UNL     1      -1.367  -0.762   1.726  0.00  0.00    -0.153 OA
BRANCH   9  12
ATOM     12  C   UNL     1       0.102   0.313   3.526  0.00  0.00    +0.106 A 
ATOM     13  C   UNL     1       1.055  -0.670   3.338  0.00  0.00    +0.031 A 
ATOM     14  C   UNL     1       2.091  -0.811   4.241  0.00  0.00    +0.040 A 
ATOM     15  C   UNL     1       2.169   0.027   5.341  0.00  0.00    +0.124 A 
ATOM     16  C   UNL     1       1.211   1.008   5.531  0.00  0.00    +0.040 A 
ATOM     17  C   UNL     1       0.178   1.150   4.624  0.00  0.00    +0.031 A 
ATOM     18  F   UNL     1       3.179  -0.113   6.227  0.00  0.00    -0.205 F 
ENDBRANCH   9  12
ENDBRANCH   6   9
BRANCH   1  19
ATOM     19  C   UNL     1      -0.829   5.385  -1.840  0.00  0.00    +0.019 C 
BRANCH  19  25
ATOM     20  N   UNL     1       1.278   8.119  -4.275  0.00  0.00    -0.332 N 
ATOM     21  C   UNL     1      -0.187   8.221  -4.234  0.00  0.00    +0.086 C 
ATOM     22  C   UNL     1      -0.710   7.519  -2.978  0.00  0.00    -0.059 C 
ATOM     23  C   UNL     1       1.183   6.011  -3.034  0.00  0.00    -0.059 C 
ATOM     24  C   UNL     1       1.705   6.713  -4.290  0.00  0.00    +0.086 C 
ATOM     25  N   UNL     1      -0.292   6.102  -3.017  0.00  0.00    +0.387 N 
ATOM     26  H   UNL     1      -0.664   5.667  -3.870  0.00  0.00    -0.081 HD
BRANCH  20  31
ATOM     27  C   UNL     1       1.939   9.141  -7.743  0.00  0.00    +0.002 A 
ATOM     28  C   UNL     1       2.826  10.183  -7.544  0.00  0.00    +0.002 A 
ATOM     29  C   UNL     1       3.200  10.541  -6.262  0.00  0.00    +0.034 A 
ATOM     30  C   UNL     1       2.689   9.858  -5.175  0.00  0.00    +0.147 A 
ATOM     31  C   UNL     1       1.798   8.811  -5.372  0.00  0.00    +0.060 A 
ATOM     32  C   UNL     1       1.428   8.450  -6.662  0.00  0.00    +0.025 A 
BRANCH  30  33
ATOM     33  N   UNL     1       3.090  10.242  -3.804  0.00  0.00    +0.058 N 
ATOM     34  O   UNL     1       3.872  11.161  -3.632  0.00  0.00    -0.126 OA
ATOM     35  O   UNL     1       2.639   9.640  -2.846  0.00  0.00    -0.126 OA
ENDBRANCH  30  33
ENDBRANCH  20  31
ENDBRANCH  19  25
ENDBRANCH   1  19
TORSDOF 6
