REMARK  Name = ZINC30977967
REMARK  13 active torsions:
REMARK  status: ('A' for Active; 'I' for Inactive)
REMARK    1  A    between atoms: C_1  and  C_2
REMARK    2  A    between atoms: C_2  and  C_40
REMARK    3  A    between atoms: C_4  and  N_15
REMARK    4  A    between atoms: C_8  and  O_13
REMARK    5  A    between atoms: O_13  and  C_14
REMARK    6  A    between atoms: C_16  and  C_18
REMARK    7  A    between atoms: N_21  and  C_24
REMARK    8  A    between atoms: C_24  and  C_25
REMARK    9  A    between atoms: C_27  and  C_30
REMARK   10  A    between atoms: C_33  and  C_36
REMARK   11  A    between atoms: C_36  and  C_37
REMARK   12  A    between atoms: C_36  and  C_38
REMARK   13  A    between atoms: C_36  and  C_39
REMARK                            x       y       z     vdW  Elec       q    Type
REMARK                         _______ _______ _______ _____ _____    ______ ____
ROOT
ATOM      1  C   UNL     1      -3.929   1.612   1.495  0.00  0.00    +0.071 C 
ATOM      2  C   UNL     1      -4.970   0.593   1.968  0.00  0.00    -0.006 C 
ATOM      3  C   UNL     1      -5.970   1.286   2.897  0.00  0.00    -0.077 C 
ATOM      4  N   UNL     1      -6.626   2.386   2.178  0.00  0.00    +0.386 N 
ATOM      5  C   UNL     1      -5.652   3.400   1.755  0.00  0.00    -0.077 C 
ATOM      6  C   UNL     1      -4.643   2.770   0.793  0.00  0.00    -0.006 C 
ATOM      7  H   UNL     1      -7.088   1.966   1.272  0.00  0.00    -0.081 HD
ENDROOT
BRANCH   1   9
ATOM      8  N   UNL     1      -2.236  -0.102   0.935  0.00  0.00    -0.308 N 
ATOM      9  C   UNL     1      -2.977   0.949   0.533  0.00  0.00    +0.216 C 
ATOM     10  O   UNL     1      -2.878   1.362  -0.603  0.00  0.00    -0.276 OA
ATOM     11  H   UNL     1      -2.326  -0.477   1.966  0.00  0.00    +0.149 HD
BRANCH   8  15
ATOM     12  C   UNL     1      -0.168  -2.584  -1.873  0.00  0.00    +0.055 C 
ATOM     13  C   UNL     1       0.098  -2.758  -0.376  0.00  0.00    +0.107 C 
ATOM     14  C   UNL     1      -1.083  -2.198   0.428  0.00  0.00    +0.074 C 
ATOM     15  C   UNL     1      -1.310  -0.746   0.000  0.00  0.00    +0.111 C 
ATOM     16  C   UNL     1       0.002  -0.004   0.002  0.00  0.00    +0.018 A 
ATOM     17  C   UNL     1      -0.017   1.381   0.010  0.00  0.00    +0.054 A 
ATOM     18  C   UNL     1       1.170   2.095   0.002  0.00  0.00    +0.121 A 
ATOM     19  C   UNL     1       2.382   1.421  -0.013  0.00  0.00    +0.049 A 
ATOM     20  C   UNL     1       2.402   0.042  -0.018  0.00  0.00    +0.049 A 
ATOM     21  C   UNL     1       1.211  -0.677  -0.009  0.00  0.00    +0.126 A 
ATOM     22  O   UNL     1       1.274  -2.035  -0.010  0.00  0.00    -0.486 OA
ATOM     23  C   UNL     1       0.284  -4.242  -0.054  0.00  0.00    +0.055 C 
BRANCH  18  24
ATOM     24  O   UNL     1       1.147   3.455   0.009  0.00  0.00    -0.495 OA
ATOM     25  C   UNL     1       2.408   4.126   0.001  0.00  0.00    +0.277 C 
ENDBRANCH  18  24
ENDBRANCH   8  15
ENDBRANCH   1   9
BRANCH   4  26
ATOM     26  C   UNL     1      -7.691   2.986   2.993  0.00  0.00    +0.022 C 
BRANCH  26  27
ATOM     27  C   UNL     1      -8.793   1.979   3.201  0.00  0.00    +0.211 A 
ATOM     28  N   UNL     1      -8.881   1.114   4.181  0.00  0.00    -0.193 NA
ATOM     29  C   UNL     1     -10.025   0.429   3.958  0.00  0.00    +0.202 A 
ATOM     30  N   UNL     1     -10.555   0.907   2.863  0.00  0.00    -0.056 NA
ATOM     31  O   UNL     1      -9.860   1.796   2.417  0.00  0.00    -0.340 OA
BRANCH  29  32
ATOM     32  C   UNL     1     -10.574  -0.665   4.797  0.00  0.00    +0.022 A 
ATOM     33  C   UNL     1      -9.895  -1.078   5.941  0.00  0.00    +0.012 A 
ATOM     34  C   UNL     1     -10.412  -2.093   6.720  0.00  0.00    +0.005 A 
ATOM     35  C   UNL     1     -11.598  -2.708   6.361  0.00  0.00    -0.042 A 
ATOM     36  C   UNL     1     -12.274  -2.306   5.223  0.00  0.00    +0.005 A 
ATOM     37  C   UNL     1     -11.768  -1.288   4.440  0.00  0.00    +0.012 A 
BRANCH  35  38
ATOM     38  C   UNL     1     -12.155  -3.820   7.212  0.00  0.00    -0.013 C 
ATOM     39  C   UNL     1     -12.265  -5.096   6.375  0.00  0.00    +0.015 C 
ATOM     40  C   UNL     1     -11.223  -4.068   8.400  0.00  0.00    +0.015 C 
ATOM     41  C   UNL     1     -13.541  -3.424   7.725  0.00  0.00    +0.015 C 
ENDBRANCH  35  38
ENDBRANCH  29  32
ENDBRANCH  26  27
ENDBRANCH   4  26
TORSDOF 7
