REMARK  Name = ZINC00940005
REMARK  11 active torsions:
REMARK  status: ('A' for Active; 'I' for Inactive)
REMARK    1  A    between atoms: C_1  and  C_2
REMARK    2  A    between atoms: C_6  and  C_9
REMARK    3  A    between atoms: C_10  and  C_11
REMARK    4  A    between atoms: C_10  and  N_61
REMARK    5  A    between atoms: C_12  and  O_36
REMARK    6  A    between atoms: C_18  and  C_32
REMARK    7  A    between atoms: C_19  and  C_22
REMARK    8  A    between atoms: C_25  and  O_30
REMARK    9  A    between atoms: C_26  and  O_28
REMARK   10  A    between atoms: O_28  and  C_29
REMARK   11  A    between atoms: O_30  and  C_31
REMARK                            x       y       z     vdW  Elec       q    Type
REMARK                         _______ _______ _______ _____ _____    ______ ____
ROOT
ATOM      1  C   UNL     1       6.093  -1.059   0.144  0.00  0.00    +0.020 A 
ATOM      2  C   UNL     1       7.002  -1.014  -0.899  0.00  0.00    +0.122 A 
ATOM      3  C   UNL     1       6.739  -0.256  -2.038  0.00  0.00    +0.046 A 
ATOM      4  C   UNL     1       5.577   0.455  -2.139  0.00  0.00    +0.019 A 
ATOM      5  C   UNL     1       4.650   0.419  -1.097  0.00  0.00    +0.065 A 
ATOM      6  C   UNL     1       4.906  -0.343   0.057  0.00  0.00    +0.144 A 
ATOM      7  O   UNL     1       4.011  -0.375   1.063  0.00  0.00    -0.450 OA
ATOM      8  C   UNL     1       2.856   0.296   1.039  0.00  0.00    +0.219 A 
ATOM      9  C   UNL     1       2.480   1.066  -0.015  0.00  0.00    +0.077 A 
ATOM     10  C   UNL     1       3.386   1.173  -1.172  0.00  0.00    +0.201 A 
ATOM     11  O   UNL     1       3.103   1.852  -2.144  0.00  0.00    -0.286 OA
ENDROOT
BRANCH   9  12
ATOM     12  C   UNL     1       1.185   1.789   0.000  0.00  0.00    -0.007 A 
ATOM     13  C   UNL     1      -0.013   1.076   0.008  0.00  0.00    +0.012 A 
ATOM     14  C   UNL     1      -1.217   1.749   0.017  0.00  0.00    +0.050 A 
ATOM     15  C   UNL     1      -1.239   3.136   0.031  0.00  0.00    +0.162 A 
ATOM     16  C   UNL     1      -0.046   3.853   0.023  0.00  0.00    +0.162 A 
ATOM     17  C   UNL     1       1.164   3.182   0.008  0.00  0.00    +0.058 A 
BRANCH  16  18
ATOM     18  O   UNL     1      -0.070   5.213   0.031  0.00  0.00    -0.491 OA
ATOM     19  C   UNL     1       1.192   5.884   0.023  0.00  0.00    +0.277 C 
ENDBRANCH  16  18
BRANCH  15  20
ATOM     20  O   UNL     1      -2.428   3.796   0.046  0.00  0.00    -0.491 OA
ATOM     21  C   UNL     1      -3.614   2.997   0.053  0.00  0.00    +0.277 C 
ENDBRANCH  15  20
ENDBRANCH   9  12
BRANCH   8  22
ATOM     22  C   UNL     1       1.932   0.191   2.224  0.00  0.00    +0.451 C 
ATOM     23  F   UNL     1       1.057  -0.884   2.040  0.00  0.00    -0.163 F 
ATOM     24  F   UNL     1       2.685  -0.014   3.386  0.00  0.00    -0.163 F 
ATOM     25  F   UNL     1       1.196   1.375   2.349  0.00  0.00    -0.163 F 
ENDBRANCH   8  22
BRANCH   2  26
ATOM     26  O   UNL     1       8.161  -1.715  -0.812  0.00  0.00    -0.506 OA
ATOM     27  H   UNL     1       8.103  -2.616  -1.159  0.00  0.00    +0.292 HD
ENDBRANCH   2  26
BRANCH   1  28
ATOM     28  C   UNL     1       6.390  -1.882   1.371  0.00  0.00    -0.035 C 
BRANCH  28  36
ATOM     29  C   UNL     1       2.374  -4.686   0.878  0.00  0.00    +0.036 C 
ATOM     30  C   UNL     1       3.904  -4.667   0.867  0.00  0.00    +0.099 C 
ATOM     31  C   UNL     1       4.400  -3.241   1.120  0.00  0.00    -0.047 C 
ATOM     32  C   UNL     1       6.343  -4.138   2.251  0.00  0.00    -0.047 C 
ATOM     33  C   UNL     1       5.827  -5.555   1.986  0.00  0.00    +0.099 C 
ATOM     34  O   UNL     1       4.400  -5.529   1.895  0.00  0.00    -0.378 OA
ATOM     35  C   UNL     1       6.250  -6.475   3.133  0.00  0.00    +0.036 C 
ATOM     36  N   UNL     1       5.878  -3.254   1.162  0.00  0.00    +0.386 N 
ATOM     37  H   UNL     1       6.234  -3.610   0.267  0.00  0.00    -0.081 HD
ENDBRANCH  28  36
ENDBRANCH   1  28
TORSDOF 7
