REMARK  Name = ZINC12413561
REMARK  9 active torsions:
REMARK  status: ('A' for Active; 'I' for Inactive)
REMARK    1  A    between atoms: C_1  and  C_2
REMARK    2  A    between atoms: C_2  and  C_3
REMARK    3  A    between atoms: C_8  and  N_9
REMARK    4  A    between atoms: C_12  and  C_19
REMARK    5  A    between atoms: C_14  and  C_17
REMARK    6  A    between atoms: C_15  and  N_16
REMARK    7  A    between atoms: C_22  and  N_24
REMARK    8  A    between atoms: C_30  and  C_32
REMARK    9  A    between atoms: C_30  and  C_33
REMARK                            x       y       z     vdW  Elec       q    Type
REMARK                         _______ _______ _______ _____ _____    ______ ____
ROOT
ATOM      1  N   UNL     1      -3.678   0.414  -0.150  0.00  0.00    -0.260 N 
ATOM      2  C   UNL     1      -3.148  -0.091   1.008  0.00  0.00    +0.025 C 
ATOM      3  C   UNL     1      -1.984  -0.775   0.990  0.00  0.00    +0.026 C 
ATOM      4  C   UNL     1      -1.229  -0.986  -0.297  0.00  0.00    +0.104 C 
ATOM      5  C   UNL     1      -2.113  -0.759  -1.488  0.00  0.00    +0.077 C 
ATOM      6  C   UNL     1      -3.282  -0.077  -1.374  0.00  0.00    +0.107 C 
ATOM      7  C   UNL     1      -1.443  -1.313   2.171  0.00  0.00    +0.162 C 
ATOM      8  O   UNL     1      -0.388  -1.915   2.123  0.00  0.00    -0.292 OA
ATOM      9  C   UNL     1      -2.144  -1.158   3.493  0.00  0.00    +0.086 C 
ATOM     10  C   UNL     1      -3.652  -1.042   3.246  0.00  0.00    -0.023 C 
ATOM     11  C   UNL     1      -3.899   0.133   2.297  0.00  0.00    +0.058 C 
ATOM     12  C   UNL     1      -4.170  -2.334   2.611  0.00  0.00    +0.011 C 
ATOM     13  C   UNL     1      -4.372  -0.797   4.574  0.00  0.00    +0.011 C 
ENDROOT
BRANCH   1  19
ATOM     14  C   UNL     1      -4.228   2.767  -0.136  0.00  0.00    -0.026 A 
ATOM     15  C   UNL     1      -5.171   3.775  -0.080  0.00  0.00    +0.005 A 
ATOM     16  C   UNL     1      -6.513   3.463   0.033  0.00  0.00    +0.000 A 
ATOM     17  C   UNL     1      -6.917   2.141   0.085  0.00  0.00    +0.002 A 
ATOM     18  C   UNL     1      -5.980   1.128   0.025  0.00  0.00    +0.024 A 
ATOM     19  C   UNL     1      -4.631   1.438  -0.089  0.00  0.00    +0.043 A 
BRANCH  14  21
ATOM     20  C   UNL     1      -2.362   3.129  -1.728  0.00  0.00    +0.009 C 
ATOM     21  C   UNL     1      -2.765   3.108  -0.252  0.00  0.00    +0.033 C 
ENDBRANCH  14  21
ENDBRANCH   1  19
BRANCH   4  22
ATOM     22  C   UNL     1      -0.069  -0.025  -0.353  0.00  0.00    +0.005 A 
ATOM     23  C   UNL     1       1.257  -0.292  -0.441  0.00  0.00    +0.014 A 
ATOM     24  C   UNL     1       2.151   0.761  -0.478  0.00  0.00    +0.041 A 
ATOM     25  C   UNL     1       1.676   2.030  -0.425  0.00  0.00    +0.164 A 
ATOM     26  S   UNL     1      -0.086   1.760  -0.320  0.00  0.00    -0.068 S 
BRANCH  25  27
ATOM     27  N   UNL     1       2.424   3.307  -0.450  0.00  0.00    +0.063 N 
ATOM     28  O   UNL     1       3.639   3.300  -0.526  0.00  0.00    -0.126 OA
ATOM     29  O   UNL     1       1.823   4.365  -0.394  0.00  0.00    -0.126 OA
ENDBRANCH  25  27
ENDBRANCH   4  22
BRANCH   6  30
ATOM     30  N   UNL     1      -4.071   0.123  -2.482  0.00  0.00    -0.345 N 
ATOM     31  H   UNL     1      -4.905   0.611  -2.401  0.00  0.00    +0.144 HD
ATOM     32  H   UNL     1      -3.792  -0.223  -3.344  0.00  0.00    +0.144 HD
ENDBRANCH   6  30
BRANCH   5  33
ATOM     33  C   UNL     1      -1.718  -1.270  -2.766  0.00  0.00    +0.099 C 
ATOM     34  N   UNL     1      -1.405  -1.676  -3.780  0.00  0.00    -0.191 NA
ENDBRANCH   5  33
TORSDOF 6
