REMARK  Name = ZINC48053409
REMARK  9 active torsions:
REMARK  status: ('A' for Active; 'I' for Inactive)
REMARK    1  A    between atoms: C_1  and  C_2
REMARK    2  A    between atoms: C_6  and  C_29
REMARK    3  A    between atoms: C_7  and  N_8
REMARK    4  A    between atoms: N_11  and  C_12
REMARK    5  A    between atoms: C_12  and  C_13
REMARK    6  A    between atoms: C_13  and  C_15
REMARK    7  A    between atoms: C_13  and  N_23
REMARK    8  A    between atoms: C_20  and  O_21
REMARK    9  A    between atoms: O_21  and  C_22
REMARK                            x       y       z     vdW  Elec       q    Type
REMARK                         _______ _______ _______ _____ _____    ______ ____
ROOT
ATOM      1  C   UNL     1      -0.500  -0.108   7.125  0.00  0.00    -0.017 C 
ENDROOT
BRANCH   1   2
ATOM      2  N   UNL     1      -1.581   0.884   7.059  0.00  0.00    +0.385 N 
ATOM      3  C   UNL     1      -1.518   1.590   5.774  0.00  0.00    -0.078 C 
ATOM      4  C   UNL     1      -2.690   2.567   5.666  0.00  0.00    -0.019 C 
ATOM      5  C   UNL     1      -2.610   3.580   6.812  0.00  0.00    -0.004 C 
ATOM      6  C   UNL     1      -2.603   2.828   8.146  0.00  0.00    -0.019 C 
ATOM      7  C   UNL     1      -1.433   1.841   8.162  0.00  0.00    -0.078 C 
ATOM      8  H   UNL     1      -2.471   0.415   7.139  0.00  0.00    -0.081 HD
ENDBRANCH   1   2
BRANCH   1   9
ATOM      9  C   UNL     1      -0.633  -0.914   8.392  0.00  0.00    -0.018 A 
ATOM     10  C   UNL     1      -1.868  -1.050   8.997  0.00  0.00    +0.005 A 
ATOM     11  C   UNL     1      -1.991  -1.789  10.159  0.00  0.00    +0.000 A 
ATOM     12  C   UNL     1      -0.880  -2.393  10.719  0.00  0.00    +0.004 A 
ATOM     13  C   UNL     1       0.356  -2.259  10.117  0.00  0.00    +0.046 A 
ATOM     14  C   UNL     1       0.482  -1.523   8.948  0.00  0.00    +0.122 A 
BRANCH  14  15
ATOM     15  O   UNL     1       1.696  -1.395   8.351  0.00  0.00    -0.495 OA
ATOM     16  C   UNL     1       2.800  -2.050   8.979  0.00  0.00    +0.277 C 
ENDBRANCH  14  15
ENDBRANCH   1   9
BRANCH   1  17
ATOM     17  C   UNL     1      -0.589  -1.041   5.916  0.00  0.00    +0.095 C 
BRANCH  17  21
ATOM     18  N   UNL     1      -3.502  -2.958   4.751  0.00  0.00    -0.269 N 
ATOM     19  C   UNL     1      -2.271  -2.413   4.809  0.00  0.00    +0.304 C 
ATOM     20  O   UNL     1      -1.470  -2.624   3.919  0.00  0.00    -0.253 OA
ATOM     21  N   UNL     1      -1.927  -1.633   5.853  0.00  0.00    -0.300 N 
ATOM     22  H   UNL     1      -4.157  -2.748   5.435  0.00  0.00    +0.156 HD
ATOM     23  H   UNL     1      -2.566  -1.464   6.563  0.00  0.00    +0.150 HD
BRANCH  18  30
ATOM     24  C   UNL     1      -5.985  -2.565   3.418  0.00  0.00    +0.045 C 
ATOM     25  C   UNL     1      -5.037  -3.669   3.027  0.00  0.00    -0.029 A 
ATOM     26  C   UNL     1      -5.360  -4.524   1.991  0.00  0.00    +0.005 A 
ATOM     27  C   UNL     1      -4.491  -5.537   1.632  0.00  0.00    +0.001 A 
ATOM     28  C   UNL     1      -3.296  -5.699   2.309  0.00  0.00    +0.005 A 
ATOM     29  C   UNL     1      -2.967  -4.848   3.346  0.00  0.00    -0.029 A 
ATOM     30  C   UNL     1      -3.835  -3.825   3.705  0.00  0.00    +0.041 A 
ATOM     31  C   UNL     1      -1.665  -5.026   4.084  0.00  0.00    +0.045 C 
ENDBRANCH  18  30
ENDBRANCH  17  21
ENDBRANCH   1  17
TORSDOF 6
