REMARK  Name = ZINC64277643
REMARK  4 active torsions:
REMARK  status: ('A' for Active; 'I' for Inactive)
REMARK    1  A    between atoms: C_5  and  C_7
REMARK    2  A    between atoms: C_7  and  N_8
REMARK    3  A    between atoms: C_28  and  C_30
REMARK    4  A    between atoms: C_34  and  N_36
REMARK                            x       y       z     vdW  Elec       q    Type
REMARK                         _______ _______ _______ _____ _____    ______ ____
ROOT
ATOM      1  N   UNL     1       1.243  -2.948   1.336  0.00  0.00    -0.287 N 
ATOM      2  C   UNL     1       2.679  -2.925   1.560  0.00  0.00    +0.204 C 
ATOM      3  C   UNL     1       3.041  -3.343   2.946  0.00  0.00    +0.234 C 
ATOM      4  O   UNL     1       4.218  -3.359   3.241  0.00  0.00    -0.274 OA
ATOM      5  N   UNL     1       2.160  -3.700   3.888  0.00  0.00    -0.279 N 
ATOM      6  C   UNL     1       0.721  -3.737   3.647  0.00  0.00    +0.167 C 
ATOM      7  C   UNL     1       0.359  -3.306   2.265  0.00  0.00    +0.237 C 
ATOM      8  O   UNL     1      -0.817  -3.284   1.967  0.00  0.00    -0.274 OA
ATOM      9  C   UNL     1       0.181  -5.155   3.911  0.00  0.00    +0.065 C 
ATOM     10  C   UNL     1       0.781  -5.607   5.220  0.00  0.00    -0.034 C 
ATOM     11  C   UNL     1       0.227  -6.111   6.315  0.00  0.00    -0.001 A 
ATOM     12  C   UNL     1      -1.155  -6.518   6.616  0.00  0.00    +0.010 A 
ATOM     13  C   UNL     1      -1.383  -6.983   7.872  0.00  0.00    +0.001 A 
ATOM     14  C   UNL     1      -0.387  -7.083   8.848  0.00  0.00    +0.002 A 
ATOM     15  C   UNL     1       0.912  -6.741   8.656  0.00  0.00    +0.026 A 
ATOM     16  C   UNL     1       1.277  -6.246   7.370  0.00  0.00    +0.043 A 
ATOM     17  N   UNL     1       2.434  -5.873   6.910  0.00  0.00    -0.375 N 
ATOM     18  C   UNL     1       2.277  -5.516   5.500  0.00  0.00    +0.131 C 
ATOM     19  C   UNL     1       2.686  -4.067   5.223  0.00  0.00    +0.133 C 
ATOM     20  H   UNL     1       3.262  -5.838   7.415  0.00  0.00    +0.160 HD
ENDROOT
BRANCH  19  21
ATOM     21  C   UNL     1       2.096  -3.160   6.272  0.00  0.00    -0.023 A 
ATOM     22  C   UNL     1       0.725  -3.100   6.442  0.00  0.00    +0.005 A 
ATOM     23  C   UNL     1       0.184  -2.268   7.404  0.00  0.00    +0.003 A 
ATOM     24  C   UNL     1       1.014  -1.497   8.197  0.00  0.00    +0.033 A 
ATOM     25  C   UNL     1       2.385  -1.558   8.027  0.00  0.00    +0.127 A 
ATOM     26  C   UNL     1       2.926  -2.393   7.068  0.00  0.00    +0.038 A 
BRANCH  25  27
ATOM     27  N   UNL     1       3.273  -0.732   8.876  0.00  0.00    +0.056 N 
ATOM     28  O   UNL     1       2.800  -0.004   9.717  0.00  0.00    -0.126 OA
ATOM     29  O   UNL     1       4.471  -0.785   8.727  0.00  0.00    -0.126 OA
ENDBRANCH  25  27
ENDBRANCH  19  21
BRANCH   1  30
ATOM     30  C   UNL     1       0.742  -2.549   0.019  0.00  0.00    +0.145 C 
BRANCH  30  35
ATOM     31  C   UNL     1      -1.320   0.600   0.306  0.00  0.00    +0.000 A 
ATOM     32  C   UNL     1      -0.363   1.577   0.102  0.00  0.00    +0.001 A 
ATOM     33  C   UNL     1       0.952   1.219  -0.129  0.00  0.00    +0.020 A 
ATOM     34  C   UNL     1       1.310  -0.117  -0.156  0.00  0.00    +0.046 A 
ATOM     35  C   UNL     1       0.352  -1.094   0.048  0.00  0.00    -0.012 A 
ATOM     36  C   UNL     1      -0.963  -0.735   0.279  0.00  0.00    +0.006 A 
ATOM     37 CL   UNL     1       2.961  -0.568  -0.446  0.00  0.00    -0.083 Cl
ENDBRANCH  30  35
ENDBRANCH   1  30
TORSDOF 4
