REMARK  Name = ZINC31401685
REMARK  5 active torsions:
REMARK  status: ('A' for Active; 'I' for Inactive)
REMARK    1  A    between atoms: C_1  and  C_2
REMARK    2  A    between atoms: C_6  and  C_16
REMARK    3  A    between atoms: N_8  and  C_9
REMARK    4  A    between atoms: N_21  and  C_24
REMARK    5  A    between atoms: C_29  and  C_30
REMARK                            x       y       z     vdW  Elec       q    Type
REMARK                         _______ _______ _______ _____ _____    ______ ____
ROOT
ATOM      1  C   UNL     1      -0.245   0.046  -2.536  0.00  0.00    +0.271 C 
ATOM      2  O   UNL     1      -0.021  -1.148  -2.583  0.00  0.00    -0.268 OA
ATOM      3  N   UNL     1       0.776   0.925  -2.552  0.00  0.00    -0.293 N 
ATOM      4  C   UNL     1       0.527   2.370  -2.666  0.00  0.00    +0.127 C 
ATOM      5  C   UNL     1       1.393   2.925  -3.802  0.00  0.00    +0.124 C 
ATOM      6  N   UNL     1       2.795   2.553  -3.572  0.00  0.00    -0.326 N 
ATOM      7  C   UNL     1       2.971   1.095  -3.600  0.00  0.00    +0.124 C 
ATOM      8  C   UNL     1       2.170   0.465  -2.456  0.00  0.00    +0.127 C 
ENDROOT
BRANCH   1  14
ATOM      9  C   UNL     1      -5.558   2.104  -2.222  0.00  0.00    +0.066 C 
ATOM     10  C   UNL     1      -4.188   1.482  -2.316  0.00  0.00    +0.044 A 
ATOM     11  C   UNL     1      -4.073   0.145  -2.500  0.00  0.00    +0.076 A 
ATOM     12  C   UNL     1      -2.766  -0.401  -2.588  0.00  0.00    +0.213 A 
ATOM     13  O   UNL     1      -2.586  -1.597  -2.758  0.00  0.00    -0.285 OA
ATOM     14  C   UNL     1      -1.637   0.533  -2.461  0.00  0.00    +0.193 A 
ATOM     15  N   UNL     1      -1.891   1.813  -2.284  0.00  0.00    -0.158 NA
ATOM     16  N   UNL     1      -3.088   2.267  -2.215  0.00  0.00    -0.233 N 
BRANCH  16  17
ATOM     17  C   UNL     1      -3.268   3.641  -2.025  0.00  0.00    +0.101 A 
ATOM     18  C   UNL     1      -3.438   4.479  -3.120  0.00  0.00    +0.031 A 
ATOM     19  C   UNL     1      -3.620   5.834  -2.929  0.00  0.00    +0.002 A 
ATOM     20  C   UNL     1      -3.622   6.361  -1.651  0.00  0.00    +0.003 A 
ATOM     21  C   UNL     1      -3.447   5.533  -0.557  0.00  0.00    +0.040 A 
ATOM     22  C   UNL     1      -3.270   4.174  -0.740  0.00  0.00    +0.149 A 
ATOM     23  F   UNL     1      -3.099   3.364   0.328  0.00  0.00    -0.203 F 
ENDBRANCH  16  17
ENDBRANCH   1  14
BRANCH   6  24
ATOM     24  C   UNL     1       3.633   3.174  -4.492  0.00  0.00    +0.050 A 
ATOM     25  C   UNL     1       3.098   3.822  -5.596  0.00  0.00    +0.024 A 
ATOM     26  C   UNL     1       3.930   4.438  -6.509  0.00  0.00    +0.005 A 
ATOM     27  C   UNL     1       5.304   4.416  -6.334  0.00  0.00    +0.040 A 
ATOM     28  C   UNL     1       5.857   3.776  -5.242  0.00  0.00    +0.142 A 
ATOM     29  C   UNL     1       5.025   3.152  -4.305  0.00  0.00    +0.108 A 
ATOM     30  F   UNL     1       7.197   3.757  -5.075  0.00  0.00    -0.204 F 
BRANCH  29  31
ATOM     31  C   UNL     1       5.589   2.492  -3.166  0.00  0.00    +0.104 C 
ATOM     32  N   UNL     1       6.037   1.968  -2.263  0.00  0.00    -0.191 NA
ENDBRANCH  29  31
ENDBRANCH   6  24
TORSDOF 4
