REMARK  Name = ZINC08828333
REMARK  2 active torsions:
REMARK  status: ('A' for Active; 'I' for Inactive)
REMARK    1  A    between atoms: C_9  and  C_11
REMARK    2  A    between atoms: N_15  and  C_19
REMARK                            x       y       z     vdW  Elec       q    Type
REMARK                         _______ _______ _______ _____ _____    ______ ____
ROOT
ATOM      1  C   UNL     1      -1.095   5.436   0.919  0.00  0.00    +0.066 C 
ATOM      2  C   UNL     1      -0.584   4.254   0.486  0.00  0.00    +0.080 C 
ATOM      3  C   UNL     1       0.816   3.768   0.500  0.00  0.00    +0.263 C 
ATOM      4  O   UNL     1       1.724   4.444   0.942  0.00  0.00    -0.269 OA
ATOM      5  N   UNL     1       1.025   2.558   0.006  0.00  0.00    -0.224 N 
ATOM      6  C   UNL     1       0.014   1.812  -0.483  0.00  0.00    +0.125 C 
ATOM      7  S   UNL     1       0.085   0.240  -1.158  0.00  0.00    -0.027 S 
ATOM      8  S   UNL     1      -1.414   2.860  -0.265  0.00  0.00    -0.061 S 
ENDROOT
BRANCH   1  17
ATOM      9  C   UNL     1      -6.856   7.053   0.694  0.00  0.00    +0.002 A 
ATOM     10  C   UNL     1      -6.995   5.795   0.123  0.00  0.00    +0.002 A 
ATOM     11  C   UNL     1      -5.910   4.986  -0.054  0.00  0.00    +0.030 A 
ATOM     12  C   UNL     1      -4.640   5.425   0.342  0.00  0.00    +0.089 A 
ATOM     13  C   UNL     1      -4.500   6.702   0.921  0.00  0.00    +0.066 A 
ATOM     14  C   UNL     1      -5.617   7.508   1.092  0.00  0.00    +0.028 A 
ATOM     15  N   UNL     1      -3.159   6.851   1.208  0.00  0.00    -0.338 N 
ATOM     16  H   UNL     1      -2.727   7.646   1.633  0.00  0.00    +0.167 HD
ATOM     17  C   UNL     1      -2.530   5.700   0.802  0.00  0.00    +0.133 A 
ATOM     18  N   UNL     1      -3.415   4.868   0.297  0.00  0.00    -0.228 NA
ENDBRANCH   1  17
BRANCH   5  19
ATOM     19  C   UNL     1       2.327   2.042  -0.009  0.00  0.00    +0.044 A 
ATOM     20  C   UNL     1       2.797   1.307   1.072  0.00  0.00    +0.024 A 
ATOM     21  C   UNL     1       4.080   0.798   1.054  0.00  0.00    +0.003 A 
ATOM     22  C   UNL     1       4.898   1.019  -0.039  0.00  0.00    +0.015 A 
ATOM     23  C   UNL     1       4.434   1.750  -1.117  0.00  0.00    +0.020 A 
ATOM     24  C   UNL     1       3.148   2.258  -1.107  0.00  0.00    +0.039 A 
ATOM     25 BR   UNL     1       5.556   2.049  -2.610  0.00  0.00    -0.050 Br
ENDBRANCH   5  19
TORSDOF 2
