REMARK  Name = ZINC13066516
REMARK  13 active torsions:
REMARK  status: ('A' for Active; 'I' for Inactive)
REMARK    1  A    between atoms: C_1  and  C_2
REMARK    2  A    between atoms: C_2  and  C_15
REMARK    3  A    between atoms: N_3  and  N_4
REMARK    4  A    between atoms: N_4  and  C_5
REMARK    5  A    between atoms: C_5  and  N_7
REMARK    6  A    between atoms: N_7  and  C_8
REMARK    7  A    between atoms: C_18  and  S_21
REMARK    8  A    between atoms: S_21  and  N_24
REMARK    9  A    between atoms: N_24  and  C_25
REMARK   10  A    between atoms: N_24  and  C_26
REMARK   11  A    between atoms: C_26  and  C_27
REMARK   12  A    between atoms: C_27  and  C_28
REMARK   13  A    between atoms: C_28  and  C_29
REMARK                            x       y       z     vdW  Elec       q    Type
REMARK                         _______ _______ _______ _____ _____    ______ ____
ROOT
ATOM      1  C   UNL     1       2.177   5.955   0.362  0.00  0.00    -0.002 A 
ATOM      2  C   UNL     1       3.365   6.689   0.378  0.00  0.00    +0.011 A 
ATOM      3  C   UNL     1       3.333   8.041   0.650  0.00  0.00    +0.029 A 
ATOM      4  C   UNL     1       2.128   8.667   0.919  0.00  0.00    +0.106 A 
ATOM      5  C   UNL     1       0.948   7.945   0.911  0.00  0.00    +0.029 A 
ATOM      6  C   UNL     1       0.965   6.594   0.634  0.00  0.00    +0.011 A 
ENDROOT
BRANCH   1   8
ATOM      7  C   UNL     1       3.512   3.825  -0.229  0.00  0.00    +0.068 C 
ATOM      8  C   UNL     1       2.203   4.510   0.065  0.00  0.00    +0.063 C 
ATOM      9  N   UNL     1       1.098   3.830   0.056  0.00  0.00    -0.185 NA
BRANCH   9  10
ATOM     10  N   UNL     1       1.122   2.458  -0.227  0.00  0.00    -0.218 N 
ATOM     11  H   UNL     1       1.965   2.017  -0.415  0.00  0.00    +0.176 HD
BRANCH  10  12
ATOM     12  C   UNL     1      -0.026   1.751  -0.236  0.00  0.00    +0.154 C 
ATOM     13  S   UNL     1       0.004   0.075  -0.581  0.00  0.00    -0.017 S 
BRANCH  12  14
ATOM     14  N   UNL     1      -1.197   2.366   0.021  0.00  0.00    -0.294 N 
ATOM     15  H   UNL     1      -1.209   3.301   0.277  0.00  0.00    +0.154 HD
BRANCH  14  16
ATOM     16  C   UNL     1      -2.398   1.654  -0.083  0.00  0.00    +0.051 A 
ATOM     17  C   UNL     1      -2.517   0.401   0.502  0.00  0.00    +0.025 A 
ATOM     18  C   UNL     1      -3.704  -0.297   0.402  0.00  0.00    +0.002 A 
ATOM     19  C   UNL     1      -4.772   0.246  -0.289  0.00  0.00    +0.002 A 
ATOM     20  C   UNL     1      -4.656   1.492  -0.878  0.00  0.00    +0.022 A 
ATOM     21  C   UNL     1      -3.472   2.198  -0.777  0.00  0.00    +0.062 A 
ATOM     22 CL   UNL     1      -3.327   3.762  -1.516  0.00  0.00    -0.082 Cl
ENDBRANCH  14  16
ENDBRANCH  12  14
ENDBRANCH  10  12
ENDBRANCH   9  10
ENDBRANCH   1   8
BRANCH   4  23
ATOM     23  S   UNL     1       2.097  10.393   1.273  0.00  0.00    +0.061 S 
ATOM     24  O   UNL     1       3.264  10.950   0.683  0.00  0.00    -0.153 OA
ATOM     25  O   UNL     1       0.790  10.850   0.953  0.00  0.00    -0.153 OA
BRANCH  23  26
ATOM     26  N   UNL     1       2.269  10.560   2.912  0.00  0.00    -0.180 NA
ATOM     27  C   UNL     1       3.606  10.685   3.499  0.00  0.00    +0.131 C 
BRANCH  26  28
ATOM     28  C   UNL     1       1.085  10.583   3.774  0.00  0.00    +0.109 C 
BRANCH  28  29
ATOM     29  C   UNL     1       0.819   9.176   4.313  0.00  0.00    +0.028 C 
BRANCH  29  30
ATOM     30  C   UNL     1      -0.417   9.200   5.213  0.00  0.00    +0.126 C 
BRANCH  30  31
ATOM     31  C   UNL     1      -0.679   7.815   5.744  0.00  0.00    +0.356 C 
ATOM     32  O   UNL     1       0.048   6.901   5.434  0.00  0.00    -0.246 OA
ATOM     33  O   UNL     1      -1.721   7.595   6.561  0.00  0.00    -0.246 OA
ENDBRANCH  30  31
ENDBRANCH  29  30
ENDBRANCH  28  29
ENDBRANCH  26  28
ENDBRANCH  23  26
ENDBRANCH   4  23
TORSDOF 11
