REMARK  Name = ZINC22473237
REMARK  10 active torsions:
REMARK  status: ('A' for Active; 'I' for Inactive)
REMARK    1  A    between atoms: C_4  and  C_7
REMARK    2  A    between atoms: C_7  and  N_8
REMARK    3  A    between atoms: N_8  and  C_9
REMARK    4  A    between atoms: C_9  and  C_10
REMARK    5  A    between atoms: C_10  and  C_11
REMARK    6  A    between atoms: C_11  and  N_12
REMARK    7  A    between atoms: C_15  and  O_16
REMARK    8  A    between atoms: C_24  and  C_26
REMARK    9  A    between atoms: C_26  and  C_27
REMARK   10  A    between atoms: C_26  and  C_33
REMARK                            x       y       z     vdW  Elec       q    Type
REMARK                         _______ _______ _______ _____ _____    ______ ____
ROOT
ATOM      1  N   UNL     1      -1.420   1.504   0.367  0.00  0.00    -0.296 N 
ATOM      2  C   UNL     1      -1.870   0.684   1.338  0.00  0.00    +0.228 C 
ATOM      3  O   UNL     1      -2.355   1.149   2.347  0.00  0.00    -0.275 OA
ENDROOT
BRANCH   1   4
ATOM      4  C   UNL     1      -0.903   0.944  -0.884  0.00  0.00    +0.142 C 
BRANCH   4   8
ATOM      5  C   UNL     1      -3.995   0.951  -3.832  0.00  0.00    +0.000 A 
ATOM      6  C   UNL     1      -3.153   2.041  -3.710  0.00  0.00    +0.000 A 
ATOM      7  C   UNL     1      -2.153   2.038  -2.756  0.00  0.00    +0.005 A 
ATOM      8  C   UNL     1      -1.994   0.946  -1.924  0.00  0.00    -0.030 A 
ATOM      9  C   UNL     1      -2.832  -0.146  -2.049  0.00  0.00    +0.005 A 
ATOM     10  C   UNL     1      -3.836  -0.141  -3.000  0.00  0.00    +0.000 A 
ENDBRANCH   4   8
ENDBRANCH   1   4
BRANCH   1  11
ATOM     11  C   UNL     1      -1.447   2.956   0.563  0.00  0.00    +0.110 C 
BRANCH  11  12
ATOM     12  C   UNL     1      -2.781   3.513   0.062  0.00  0.00    +0.040 C 
BRANCH  12  13
ATOM     13  C   UNL     1      -2.810   5.029   0.266  0.00  0.00    +0.114 C 
BRANCH  13  14
ATOM     14  N   UNL     1      -4.087   5.562  -0.214  0.00  0.00    -0.384 N 
ATOM     15  C   UNL     1      -4.344   6.913  -0.132  0.00  0.00    +0.053 A 
ATOM     16  C   UNL     1      -3.419   7.777   0.395  0.00  0.00    +0.113 A 
ATOM     17  C   UNL     1      -3.709   9.146   0.465  0.00  0.00    +0.286 A 
ATOM     18  O   UNL     1      -4.876   9.647   0.029  0.00  0.00    -0.425 OA
ATOM     19  C   UNL     1      -5.834   8.857  -0.503  0.00  0.00    +0.141 A 
ATOM     20  C   UNL     1      -5.617   7.474  -0.614  0.00  0.00    +0.041 A 
ATOM     21  C   UNL     1      -6.602   6.654  -1.168  0.00  0.00    +0.013 A 
ATOM     22  C   UNL     1      -7.782   7.212  -1.609  0.00  0.00    +0.001 A 
ATOM     23  C   UNL     1      -7.993   8.578  -1.505  0.00  0.00    +0.004 A 
ATOM     24  C   UNL     1      -7.033   9.397  -0.948  0.00  0.00    +0.047 A 
ATOM     25  H   UNL     1      -4.841   4.884  -0.640  0.00  0.00    +0.160 HD
BRANCH  17  26
ATOM     26  O   UNL     1      -2.878   9.903   0.936  0.00  0.00    -0.480 OA
ATOM     27  H   UNL     1      -3.090  10.981   0.998  0.00  0.00    +0.295 HD
ENDBRANCH  17  26
ENDBRANCH  13  14
ENDBRANCH  12  13
ENDBRANCH  11  12
ENDBRANCH   1  11
BRANCH   2  28
ATOM     28  C   UNL     1      -1.769  -0.810   1.169  0.00  0.00    +0.135 C 
BRANCH  28  29
ATOM     29  C   UNL     1      -0.329  -1.234   1.296  0.00  0.00    -0.031 A 
ATOM     30  C   UNL     1       0.210  -2.131   0.394  0.00  0.00    +0.005 A 
ATOM     31  C   UNL     1       1.533  -2.517   0.508  0.00  0.00    +0.000 A 
ATOM     32  C   UNL     1       2.313  -2.013   1.532  0.00  0.00    +0.000 A 
ATOM     33  C   UNL     1       1.773  -1.121   2.438  0.00  0.00    +0.000 A 
ATOM     34  C   UNL     1       0.452  -0.731   2.320  0.00  0.00    +0.005 A 
ENDBRANCH  28  29
BRANCH  28  35
ATOM     35  C   UNL     1      -2.590  -1.492   2.232  0.00  0.00    -0.031 A 
ATOM     36  C   UNL     1      -2.288  -1.302   3.567  0.00  0.00    +0.005 A 
ATOM     37  C   UNL     1      -3.044  -1.923   4.543  0.00  0.00    +0.000 A 
ATOM     38  C   UNL     1      -4.097  -2.744   4.183  0.00  0.00    +0.000 A 
ATOM     39  C   UNL     1      -4.396  -2.939   2.848  0.00  0.00    +0.000 A 
ATOM     40  C   UNL     1      -3.643  -2.313   1.872  0.00  0.00    +0.005 A 
ENDBRANCH  28  35
ENDBRANCH   2  28
TORSDOF 10
