REMARK  Name = ZINC33109828
REMARK  6 active torsions:
REMARK  status: ('A' for Active; 'I' for Inactive)
REMARK    1  A    between atoms: C_1  and  C_2
REMARK    2  A    between atoms: C_7  and  C_8
REMARK    3  A    between atoms: N_10  and  C_11
REMARK    4  A    between atoms: C_16  and  C_17
REMARK    5  A    between atoms: N_19  and  C_20
REMARK    6  A    between atoms: N_19  and  C_21
REMARK                            x       y       z     vdW  Elec       q    Type
REMARK                         _______ _______ _______ _____ _____    ______ ____
ROOT
ATOM      1  C   UNL     1       1.250   1.355  -0.175  0.00  0.00    +0.265 C 
ATOM      2  O   UNL     1       1.350   2.563  -0.274  0.00  0.00    -0.268 OA
ATOM      3  N   UNL     1       0.032   0.782  -0.117  0.00  0.00    -0.280 N 
ATOM      4  H   UNL     1      -0.060  -0.314  -0.090  0.00  0.00    +0.155 HD
ENDROOT
BRANCH   1  11
ATOM      5  C   UNL     1       4.190   2.410  -0.292  0.00  0.00    +0.047 C 
ATOM      6  C   UNL     1       3.746   0.975  -0.170  0.00  0.00    -0.010 A 
ATOM      7  C   UNL     1       4.572  -0.152  -0.086  0.00  0.00    +0.042 A 
ATOM      8  C   UNL     1       3.748  -1.274   0.011  0.00  0.00    +0.027 A 
ATOM      9  N   UNL     1       2.482  -0.856  -0.003  0.00  0.00    -0.354 N 
ATOM     10  H   UNL     1       1.661  -1.585   0.073  0.00  0.00    +0.166 HD
ATOM     11  C   UNL     1       2.457   0.521  -0.120  0.00  0.00    +0.106 A 
ATOM     12  C   UNL     1       4.287  -2.678   0.116  0.00  0.00    +0.054 C 
ATOM     13  C   UNL     1       5.727  -2.706  -0.405  0.00  0.00    +0.014 C 
ATOM     14  C   UNL     1       6.576  -1.640   0.294  0.00  0.00    +0.080 C 
ATOM     15  C   UNL     1       6.038  -0.270  -0.087  0.00  0.00    +0.165 C 
ATOM     16  O   UNL     1       6.765   0.659  -0.371  0.00  0.00    -0.292 OA
ENDBRANCH   1  11
BRANCH   3  17
ATOM     17  C   UNL     1      -1.110   1.577  -0.090  0.00  0.00    +0.046 A 
ATOM     18  C   UNL     1      -1.145   2.773  -0.795  0.00  0.00    +0.024 A 
ATOM     19  C   UNL     1      -2.281   3.557  -0.772  0.00  0.00    +0.002 A 
ATOM     20  C   UNL     1      -3.388   3.165  -0.037  0.00  0.00    +0.001 A 
ATOM     21  C   UNL     1      -3.370   1.985   0.674  0.00  0.00    +0.015 A 
ATOM     22  C   UNL     1      -2.230   1.178   0.655  0.00  0.00    +0.058 A 
BRANCH  22  23
ATOM     23  C   UNL     1      -2.203  -0.087   1.415  0.00  0.00    +0.248 C 
ATOM     24  O   UNL     1      -1.902  -1.125   0.857  0.00  0.00    -0.270 OA
ATOM     25  N   UNL     1      -2.513  -0.092   2.726  0.00  0.00    -0.304 N 
ATOM     26  C   UNL     1      -2.610  -1.361   3.451  0.00  0.00    +0.132 C 
ATOM     27  C   UNL     1      -2.752   1.172   3.427  0.00  0.00    +0.132 C 
ENDBRANCH  22  23
ENDBRANCH   3  17
TORSDOF 3
