REMARK  Name = ZINC18202784
REMARK  10 active torsions:
REMARK  status: ('A' for Active; 'I' for Inactive)
REMARK    1  A    between atoms: C_1  and  C_2
REMARK    2  A    between atoms: C_4  and  N_25
REMARK    3  A    between atoms: C_9  and  N_12
REMARK    4  A    between atoms: N_12  and  C_13
REMARK    5  A    between atoms: C_13  and  N_15
REMARK    6  A    between atoms: N_15  and  C_16
REMARK    7  A    between atoms: C_16  and  C_17
REMARK    8  A    between atoms: C_22  and  O_23
REMARK    9  A    between atoms: O_23  and  C_24
REMARK   10  A    between atoms: N_28  and  C_31
REMARK                            x       y       z     vdW  Elec       q    Type
REMARK                         _______ _______ _______ _____ _____    ______ ____
ROOT
ATOM      1  C   UNL     1      -0.991   1.352   0.048  0.00  0.00    +0.044 C 
ATOM      2  C   UNL     1      -0.693  -0.125   0.041  0.00  0.00    -0.038 A 
ATOM      3  C   UNL     1      -0.660  -0.825  -1.127  0.00  0.00    +0.047 A 
ATOM      4  C   UNL     1      -0.381  -2.199  -1.110  0.00  0.00    +0.122 A 
ATOM      5  N   UNL     1      -0.148  -2.841   0.016  0.00  0.00    -0.232 NA
ATOM      6  C   UNL     1      -0.168  -2.207   1.194  0.00  0.00    +0.073 A 
ATOM      7  C   UNL     1      -0.437  -0.817   1.242  0.00  0.00    +0.005 A 
ATOM      8  C   UNL     1      -0.451  -0.154   2.479  0.00  0.00    +0.033 A 
ATOM      9  C   UNL     1      -0.195  -0.865   3.632  0.00  0.00    +0.033 A 
ATOM     10  C   UNL     1       0.076  -2.236   3.577  0.00  0.00    +0.025 A 
ATOM     11  C   UNL     1       0.082  -2.901   2.391  0.00  0.00    +0.030 A 
ENDROOT
BRANCH   4  12
ATOM     12  N   UNL     1      -0.350  -2.899  -2.308  0.00  0.00    -0.319 N 
ATOM     13  C   UNL     1       0.163  -4.277  -2.366  0.00  0.00    +0.088 C 
ATOM     14  C   UNL     1      -0.868  -5.148  -3.092  0.00  0.00    -0.060 C 
ATOM     15  N   UNL     1      -1.169  -4.559  -4.402  0.00  0.00    +0.380 N 
ATOM     16  C   UNL     1      -1.813  -3.251  -4.226  0.00  0.00    -0.060 C 
ATOM     17  C   UNL     1      -0.835  -2.287  -3.555  0.00  0.00    +0.088 C 
ATOM     18  C   UNL     1      -2.072  -5.450  -5.143  0.00  0.00    -0.096 C 
ATOM     19  H   UNL     1      -0.313  -4.443  -4.923  0.00  0.00    -0.082 HD
ENDBRANCH   4  12
BRANCH   9  20
ATOM     20  N   UNL     1      -0.207  -0.209   4.868  0.00  0.00    -0.297 N 
ATOM     21  H   UNL     1      -0.897   0.444   5.064  0.00  0.00    +0.154 HD
BRANCH  20  22
ATOM     22  C   UNL     1       0.739  -0.485   5.787  0.00  0.00    +0.135 C 
ATOM     23  S   UNL     1       2.037  -1.529   5.391  0.00  0.00    -0.019 S 
BRANCH  22  24
ATOM     24  N   UNL     1       0.665   0.061   7.017  0.00  0.00    -0.322 N 
ATOM     25  H   UNL     1      -0.071   0.653   7.240  0.00  0.00    +0.148 HD
BRANCH  24  26
ATOM     26  C   UNL     1       1.694  -0.239   8.015  0.00  0.00    +0.142 C 
BRANCH  26  27
ATOM     27  C   UNL     1       1.379   0.491   9.296  0.00  0.00    +0.011 A 
ATOM     28  C   UNL     1       2.031   1.672   9.596  0.00  0.00    +0.009 A 
ATOM     29  C   UNL     1       1.744   2.342  10.771  0.00  0.00    +0.001 A 
ATOM     30  C   UNL     1       0.803   1.833  11.647  0.00  0.00    +0.004 A 
ATOM     31  C   UNL     1       0.148   0.653  11.351  0.00  0.00    +0.046 A 
ATOM     32  C   UNL     1       0.431  -0.018  10.170  0.00  0.00    +0.125 A 
BRANCH  32  33
ATOM     33  O   UNL     1      -0.215  -1.176   9.874  0.00  0.00    -0.495 OA
ATOM     34  C   UNL     1      -1.179  -1.642  10.821  0.00  0.00    +0.277 C 
ENDBRANCH  32  33
ENDBRANCH  26  27
ENDBRANCH  24  26
ENDBRANCH  22  24
ENDBRANCH  20  22
ENDBRANCH   9  20
TORSDOF 7
