REMARK  Name = ZINC64220530
REMARK  5 active torsions:
REMARK  status: ('A' for Active; 'I' for Inactive)
REMARK    1  A    between atoms: C_7  and  C_10
REMARK    2  A    between atoms: C_10  and  C_11
REMARK    3  A    between atoms: N_13  and  N_14
REMARK    4  A    between atoms: C_15  and  C_17
REMARK    5  A    between atoms: C_23  and  C_25
REMARK                            x       y       z     vdW  Elec       q    Type
REMARK                         _______ _______ _______ _____ _____    ______ ____
ROOT
ATOM      1  N   UNL     1      -1.984  -5.218  -2.109  0.00  0.00    -0.234 N 
ATOM      2  C   UNL     1      -2.555  -6.327  -2.620  0.00  0.00    +0.232 C 
ATOM      3  O   UNL     1      -3.180  -7.074  -1.898  0.00  0.00    -0.274 OA
ATOM      4  H   UNL     1      -1.484  -4.620  -2.686  0.00  0.00    +0.173 HD
ENDROOT
BRANCH   2   5
ATOM      5  C   UNL     1      -2.416  -6.638  -4.088  0.00  0.00    +0.079 C 
ATOM      6  C   UNL     1      -3.021  -5.497  -4.910  0.00  0.00    +0.032 C 
ATOM      7  C   UNL     1      -2.847  -5.801  -6.401  0.00  0.00    +0.109 C 
ATOM      8  N   UNL     1      -3.424  -7.121  -6.686  0.00  0.00    -0.297 N 
ATOM      9  C   UNL     1      -2.979  -8.273  -5.890  0.00  0.00    +0.109 C 
ATOM     10  C   UNL     1      -3.151  -7.942  -4.404  0.00  0.00    +0.032 C 
ATOM     11  C   UNL     1      -4.345  -7.273  -7.658  0.00  0.00    +0.247 C 
ATOM     12  O   UNL     1      -4.764  -8.381  -7.930  0.00  0.00    -0.270 OA
BRANCH  11  13
ATOM     13  C   UNL     1      -4.845  -6.093  -8.393  0.00  0.00    +0.037 A 
ATOM     14  C   UNL     1      -3.946  -5.185  -8.957  0.00  0.00    +0.014 A 
ATOM     15  C   UNL     1      -4.419  -4.086  -9.642  0.00  0.00    +0.021 A 
ATOM     16  C   UNL     1      -5.783  -3.881  -9.771  0.00  0.00    +0.041 A 
ATOM     17  C   UNL     1      -6.679  -4.777  -9.214  0.00  0.00    +0.021 A 
ATOM     18  C   UNL     1      -6.219  -5.883  -8.532  0.00  0.00    +0.014 A 
ATOM     19 CL   UNL     1      -6.370  -2.494 -10.634  0.00  0.00    -0.084 Cl
ENDBRANCH  11  13
ENDBRANCH   2   5
BRANCH   1  22
ATOM     20  C   UNL     1      -1.543  -3.819  -0.233  0.00  0.00    +0.233 C 
ATOM     21  O   UNL     1      -0.918  -3.071  -0.955  0.00  0.00    -0.274 OA
ATOM     22  N   UNL     1      -2.114  -4.928  -0.744  0.00  0.00    -0.234 N 
ATOM     23  H   UNL     1      -2.613  -5.527  -0.167  0.00  0.00    +0.173 HD
BRANCH  20  24
ATOM     24  C   UNL     1      -1.682  -3.508   1.235  0.00  0.00    +0.130 C 
BRANCH  24  31
ATOM     25  C   UNL     1      -3.087   0.850   1.523  0.00  0.00    +0.001 A 
ATOM     26  C   UNL     1      -2.063   1.751   1.844  0.00  0.00    +0.002 A 
ATOM     27  C   UNL     1      -0.786   1.362   2.047  0.00  0.00    +0.026 A 
ATOM     28  C   UNL     1      -0.428  -0.011   1.940  0.00  0.00    +0.043 A 
ATOM     29  N   UNL     1       0.719  -0.627   2.088  0.00  0.00    -0.380 N 
ATOM     30  C   UNL     1       0.512  -2.062   1.860  0.00  0.00    +0.145 C 
ATOM     31  C   UNL     1      -0.958  -2.224   1.546  0.00  0.00    -0.033 C 
ATOM     32  C   UNL     1      -1.492  -0.982   1.602  0.00  0.00    -0.001 A 
ATOM     33  C   UNL     1      -2.855  -0.476   1.397  0.00  0.00    +0.010 A 
ATOM     34  H   UNL     1       1.564  -0.205   2.311  0.00  0.00    +0.160 HD
ENDBRANCH  24  31
ENDBRANCH  20  24
ENDBRANCH   1  22
TORSDOF 5
