REMARK  Name = ZINC15188106
REMARK  6 active torsions:
REMARK  status: ('A' for Active; 'I' for Inactive)
REMARK    1  A    between atoms: C_1  and  C_2
REMARK    2  A    between atoms: C_4  and  C_24
REMARK    3  A    between atoms: N_13  and  C_16
REMARK    4  A    between atoms: C_16  and  C_17
REMARK    5  A    between atoms: N_29  and  C_32
REMARK    6  A    between atoms: C_32  and  C_33
REMARK                            x       y       z     vdW  Elec       q    Type
REMARK                         _______ _______ _______ _____ _____    ______ ____
ROOT
ATOM      1  C   UNL     1      -0.072   1.470   0.045  0.00  0.00    +0.039 C 
ATOM      2  C   UNL     1      -0.060  -0.037   0.012  0.00  0.00    -0.064 C 
ATOM      3  C   UNL     1      -0.021  -0.740  -1.112  0.00  0.00    -0.023 C 
ATOM      4  C   UNL     1       0.037  -2.233  -1.151  0.00  0.00    +0.025 C 
ATOM      5  C   UNL     1      -0.659  -2.939   0.015  0.00  0.00    +0.022 C 
ATOM      6  C   UNL     1      -1.242  -1.907   0.946  0.00  0.00    +0.092 C 
ATOM      7  C   UNL     1      -0.086  -0.889   1.248  0.00  0.00    +0.113 C 
ATOM      8  C   UNL     1      -0.616  -0.269   2.506  0.00  0.00    +0.230 C 
ATOM      9  O   UNL     1      -0.434   0.868   2.888  0.00  0.00    -0.274 OA
ATOM     10  N   UNL     1      -1.340  -1.232   3.132  0.00  0.00    -0.237 N 
ATOM     11  C   UNL     1      -1.629  -2.316   2.333  0.00  0.00    +0.226 C 
ATOM     12  O   UNL     1      -2.080  -3.387   2.677  0.00  0.00    -0.275 OA
ENDROOT
BRANCH   4  13
ATOM     13  C   UNL     1       1.507  -2.658  -1.158  0.00  0.00    +0.091 C 
ATOM     14  C   UNL     1       2.219  -2.129  -2.419  0.00  0.00    +0.109 C 
ATOM     15  C   UNL     1       2.665  -3.388  -3.130  0.00  0.00    +0.223 C 
ATOM     16  O   UNL     1       3.272  -3.425  -4.179  0.00  0.00    -0.275 OA
ATOM     17  N   UNL     1       2.285  -4.455  -2.416  0.00  0.00    -0.237 N 
ATOM     18  C   UNL     1       1.626  -4.162  -1.284  0.00  0.00    +0.226 C 
ATOM     19  O   UNL     1       1.194  -4.969  -0.490  0.00  0.00    -0.275 OA
BRANCH  17  20
ATOM     20  C   UNL     1       2.566  -5.830  -2.834  0.00  0.00    +0.153 C 
BRANCH  20  21
ATOM     21  C   UNL     1       3.963  -6.207  -2.414  0.00  0.00    -0.011 A 
ATOM     22  C   UNL     1       5.012  -6.080  -3.306  0.00  0.00    +0.006 A 
ATOM     23  C   UNL     1       6.293  -6.425  -2.920  0.00  0.00    +0.000 A 
ATOM     24  C   UNL     1       6.528  -6.899  -1.643  0.00  0.00    +0.001 A 
ATOM     25  C   UNL     1       5.480  -7.027  -0.750  0.00  0.00    +0.020 A 
ATOM     26  C   UNL     1       4.198  -6.676  -1.134  0.00  0.00    +0.046 A 
ATOM     27 CL   UNL     1       2.883  -6.830  -0.011  0.00  0.00    -0.083 Cl
ENDBRANCH  20  21
ENDBRANCH  17  20
ENDBRANCH   4  13
BRANCH  10  28
ATOM     28  C   UNL     1      -1.800  -1.118   4.518  0.00  0.00    +0.153 C 
BRANCH  28  29
ATOM     29  C   UNL     1      -3.159  -0.468   4.545  0.00  0.00    -0.011 A 
ATOM     30  C   UNL     1      -3.276   0.877   4.841  0.00  0.00    +0.006 A 
ATOM     31  C   UNL     1      -4.523   1.474   4.865  0.00  0.00    +0.000 A 
ATOM     32  C   UNL     1      -5.654   0.726   4.594  0.00  0.00    +0.001 A 
ATOM     33  C   UNL     1      -5.538  -0.619   4.298  0.00  0.00    +0.020 A 
ATOM     34  C   UNL     1      -4.290  -1.216   4.268  0.00  0.00    +0.046 A 
ATOM     35 CL   UNL     1      -4.143  -2.904   3.890  0.00  0.00    -0.083 Cl
ENDBRANCH  28  29
ENDBRANCH  10  28
TORSDOF 5
