REMARK  Name = ZINC12612735
REMARK  7 active torsions:
REMARK  status: ('A' for Active; 'I' for Inactive)
REMARK    1  A    between atoms: C_1  and  C_2
REMARK    2  A    between atoms: C_3  and  C_27
REMARK    3  A    between atoms: C_5  and  C_9
REMARK    4  A    between atoms: C_6  and  C_8
REMARK    5  A    between atoms: C_9  and  N_50
REMARK    6  A    between atoms: C_10  and  N_50
REMARK    7  A    between atoms: C_19  and  C_21
REMARK                            x       y       z     vdW  Elec       q    Type
REMARK                         _______ _______ _______ _____ _____    ______ ____
ROOT
ATOM      1  C   UNL     1       3.549   2.078   0.039  0.00  0.00    -0.037 C 
ATOM      2  C   UNL     1       4.910   1.394   0.150  0.00  0.00    -0.011 C 
ATOM      3  C   UNL     1       4.848   0.061  -0.606  0.00  0.00    +0.005 C 
ATOM      4  C   UNL     1       3.945  -0.896   0.171  0.00  0.00    +0.056 C 
ATOM      5  C   UNL     1       2.629  -0.238   0.485  0.00  0.00    +0.047 A 
ATOM      6  C   UNL     1       2.450   1.129   0.430  0.00  0.00    -0.022 A 
ATOM      7  C   UNL     1       1.200   1.650   0.746  0.00  0.00    +0.117 A 
ATOM      8  N   UNL     1       0.222   0.829   1.085  0.00  0.00    -0.235 NA
ATOM      9  C   UNL     1       0.425  -0.481   1.126  0.00  0.00    +0.161 A 
ATOM     10  N   UNL     1       1.605  -1.007   0.833  0.00  0.00    -0.232 NA
ENDROOT
BRANCH   9  11
ATOM     11  C   UNL     1      -0.694  -1.376   1.507  0.00  0.00    +0.037 A 
ATOM     12  C   UNL     1      -1.950  -0.849   1.821  0.00  0.00    +0.014 A 
ATOM     13  C   UNL     1      -2.962  -1.727   2.170  0.00  0.00    +0.020 A 
ATOM     14  C   UNL     1      -2.699  -3.085   2.198  0.00  0.00    +0.111 A 
ATOM     15  N   UNL     1      -1.503  -3.553   1.897  0.00  0.00    -0.263 NA
ATOM     16  C   UNL     1      -0.512  -2.757   1.553  0.00  0.00    +0.122 A 
ENDBRANCH   9  11
BRANCH   1  17
ATOM     17  N   UNL     1       3.522   3.248   0.937  0.00  0.00    +0.387 N 
ATOM     18  H   UNL     1       2.962   3.025   1.768  0.00  0.00    -0.084 HD
ATOM     19  H   UNL     1       4.482   3.477   1.223  0.00  0.00    -0.084 HD
BRANCH  17  20
ATOM     20  C   UNL     1       2.930   4.410   0.247  0.00  0.00    -0.023 C 
BRANCH  20  25
ATOM     21  C   UNL     1       6.970   7.136  -2.685  0.00  0.00    +0.067 C 
ATOM     22  C   UNL     1       5.904   6.420  -1.896  0.00  0.00    +0.059 A 
ATOM     23  C   UNL     1       5.088   5.492  -2.519  0.00  0.00    +0.059 A 
ATOM     24  N   UNL     1       4.153   4.865  -1.827  0.00  0.00    -0.255 NA
ATOM     25  C   UNL     1       3.997   5.124  -0.541  0.00  0.00    +0.046 A 
ATOM     26  C   UNL     1       4.809   6.056   0.080  0.00  0.00    +0.058 A 
ATOM     27  N   UNL     1       5.747   6.680  -0.610  0.00  0.00    -0.254 NA
ATOM     28  C   UNL     1       4.626   6.357   1.546  0.00  0.00    +0.067 C 
ATOM     29  C   UNL     1       5.266   5.196  -3.986  0.00  0.00    +0.067 C 
ENDBRANCH  20  25
ENDBRANCH  17  20
ENDBRANCH   1  17
TORSDOF 4
