REMARK  Name = ZINC20605164
REMARK  4 active torsions:
REMARK  status: ('A' for Active; 'I' for Inactive)
REMARK    1  A    between atoms: C_3  and  C_11
REMARK    2  A    between atoms: C_5  and  C_7
REMARK    3  A    between atoms: N_19  and  S_23
REMARK    4  A    between atoms: S_23  and  C_26
REMARK                            x       y       z     vdW  Elec       q    Type
REMARK                         _______ _______ _______ _____ _____    ______ ____
ROOT
ATOM      1  C   UNL     1       0.165   2.785   4.819  0.00  0.00    +0.247 C 
ATOM      2  O   UNL     1      -0.435   2.649   3.771  0.00  0.00    -0.270 OA
ATOM      3  N   UNL     1      -0.502   3.132   5.938  0.00  0.00    -0.297 N 
ATOM      4  C   UNL     1      -1.965   3.261   5.927  0.00  0.00    +0.112 C 
ATOM      5  C   UNL     1      -2.348   4.640   6.460  0.00  0.00    +0.072 C 
ATOM      6  C   UNL     1      -1.703   4.851   7.831  0.00  0.00    +0.145 C 
ATOM      7  C   UNL     1      -0.180   4.778   7.711  0.00  0.00    +0.072 C 
ATOM      8  C   UNL     1       0.221   3.394   7.190  0.00  0.00    +0.112 C 
ATOM      9  N   UNL     1      -2.176   3.818   8.765  0.00  0.00    -0.143 NA
ATOM     10  C   UNL     1      -2.882   4.537   9.849  0.00  0.00    +0.140 C 
ATOM     11  C   UNL     1      -3.235   5.893   9.187  0.00  0.00    +0.179 C 
ATOM     12  O   UNL     1      -2.083   6.137   8.347  0.00  0.00    -0.356 OA
ENDROOT
BRANCH   1  15
ATOM     13  C   UNL     1       3.571   1.731   6.001  0.00  0.00    +0.001 A 
ATOM     14  C   UNL     1       2.206   1.928   5.963  0.00  0.00    +0.013 A 
ATOM     15  C   UNL     1       1.627   2.571   4.867  0.00  0.00    +0.037 A 
ATOM     16  C   UNL     1       2.435   3.009   3.817  0.00  0.00    +0.025 A 
ATOM     17  C   UNL     1       3.799   2.805   3.867  0.00  0.00    +0.056 A 
ATOM     18  C   UNL     1       4.365   2.163   4.954  0.00  0.00    +0.012 A 
BRANCH  17  19
ATOM     19  C   UNL     1       4.672   3.277   2.734  0.00  0.00    +0.417 C 
ATOM     20  F   UNL     1       5.094   4.587   2.984  0.00  0.00    -0.166 F 
ATOM     21  F   UNL     1       3.945   3.242   1.539  0.00  0.00    -0.166 F 
ATOM     22  F   UNL     1       5.788   2.440   2.625  0.00  0.00    -0.166 F 
ENDBRANCH  17  19
ENDBRANCH   1  15
BRANCH   9  23
ATOM     23  S   UNL     1      -1.963   2.181   8.630  0.00  0.00    +0.070 S 
ATOM     24  O   UNL     1      -1.268   1.962   7.410  0.00  0.00    -0.152 OA
ATOM     25  O   UNL     1      -1.465   1.732   9.882  0.00  0.00    -0.152 OA
BRANCH  23  26
ATOM     26  C   UNL     1      -3.560   1.462   8.435  0.00  0.00    +0.143 A 
ATOM     27  C   UNL     1      -4.295   1.308   7.307  0.00  0.00    +0.036 A 
ATOM     28  C   UNL     1      -5.536   0.705   7.393  0.00  0.00    +0.010 A 
ATOM     29  C   UNL     1      -5.986   0.295   8.604  0.00  0.00    +0.047 A 
ATOM     30  S   UNL     1      -4.633   0.755   9.675  0.00  0.00    -0.077 S 
ENDBRANCH  23  26
ENDBRANCH   9  23
TORSDOF 4
