REMARK  Name = ZINC04225793
REMARK  5 active torsions:
REMARK  status: ('A' for Active; 'I' for Inactive)
REMARK    1  A    between atoms: C_1  and  C_2
REMARK    2  A    between atoms: C_6  and  N_9
REMARK    3  A    between atoms: C_7  and  C_8
REMARK    4  A    between atoms: C_10  and  C_12
REMARK    5  A    between atoms: N_18  and  C_21
REMARK                            x       y       z     vdW  Elec       q    Type
REMARK                         _______ _______ _______ _____ _____    ______ ____
ROOT
ATOM      1  C   UNL     1       2.312   5.461   0.530  0.00  0.00    +0.118 A 
ATOM      2  C   UNL     1       1.074   5.951   0.898  0.00  0.00    +0.106 A 
ATOM      3  N   UNL     1      -0.023   5.162   0.755  0.00  0.00    -0.313 N 
ATOM      4  H   UNL     1      -0.918   5.518   1.022  0.00  0.00    +0.170 HD
ATOM      5  C   UNL     1       0.068   3.917   0.264  0.00  0.00    +0.334 A 
ATOM      6  O   UNL     1      -0.943   3.251   0.156  0.00  0.00    -0.246 OA
ATOM      7  N   UNL     1       1.242   3.381  -0.112  0.00  0.00    -0.228 N 
ATOM      8  C   UNL     1       2.385   4.090  -0.000  0.00  0.00    +0.273 A 
ATOM      9  O   UNL     1       3.451   3.608  -0.334  0.00  0.00    -0.266 OA
ENDROOT
BRANCH   7  10
ATOM     10  C   UNL     1       1.280   2.074  -0.619  0.00  0.00    +0.056 A 
ATOM     11  C   UNL     1       1.410   0.996   0.247  0.00  0.00    +0.029 A 
ATOM     12  C   UNL     1       1.448  -0.290  -0.254  0.00  0.00    +0.042 A 
ATOM     13  C   UNL     1       1.357  -0.507  -1.619  0.00  0.00    +0.142 A 
ATOM     14  C   UNL     1       1.228   0.567  -2.485  0.00  0.00    +0.078 A 
ATOM     15  C   UNL     1       1.190   1.856  -1.987  0.00  0.00    +0.049 A 
ATOM     16 CL   UNL     1       1.115   0.294  -4.195  0.00  0.00    -0.081 Cl
ATOM     17  F   UNL     1       1.395  -1.766  -2.106  0.00  0.00    -0.204 F 
ENDBRANCH   7  10
BRANCH   1  19
ATOM     18  N   UNL     1       4.702   5.831   0.198  0.00  0.00    -0.281 N 
ATOM     19  C   UNL     1       3.523   6.283   0.669  0.00  0.00    +0.255 C 
ATOM     20  O   UNL     1       3.461   7.371   1.210  0.00  0.00    -0.270 OA
ATOM     21  H   UNL     1       4.743   4.989  -0.280  0.00  0.00    +0.155 HD
BRANCH  18  27
ATOM     22  C   UNL     1       9.580   5.984   0.791  0.00  0.00    +0.044 C 
ATOM     23  C   UNL     1       8.246   6.678   0.690  0.00  0.00    -0.046 A 
ATOM     24  C   UNL     1       8.174   8.055   0.797  0.00  0.00    +0.004 A 
ATOM     25  C   UNL     1       6.952   8.695   0.706  0.00  0.00    +0.002 A 
ATOM     26  C   UNL     1       5.799   7.961   0.507  0.00  0.00    +0.023 A 
ATOM     27  C   UNL     1       5.868   6.578   0.399  0.00  0.00    +0.037 A 
ATOM     28  C   UNL     1       7.097   5.937   0.496  0.00  0.00    -0.026 A 
ATOM     29  C   UNL     1       7.176   4.436   0.386  0.00  0.00    +0.046 C 
ENDBRANCH  18  27
ENDBRANCH   1  19
TORSDOF 3
