REMARK  Name = ZINC38748295
REMARK  6 active torsions:
REMARK  status: ('A' for Active; 'I' for Inactive)
REMARK    1  A    between atoms: C_1  and  C_2
REMARK    2  A    between atoms: C_4  and  N_17
REMARK    3  A    between atoms: N_8  and  C_11
REMARK    4  A    between atoms: N_9  and  C_10
REMARK    5  A    between atoms: C_18  and  C_28
REMARK    6  A    between atoms: C_29  and  C_30
REMARK                            x       y       z     vdW  Elec       q    Type
REMARK                         _______ _______ _______ _____ _____    ______ ____
ROOT
ATOM      1  N   UNL     1       0.752   0.379  -2.542  0.00  0.00    -0.279 N 
ATOM      2  C   UNL     1      -0.011   0.045  -3.633  0.00  0.00    +0.138 A 
ATOM      3  N   UNL     1      -0.164   0.838  -4.668  0.00  0.00    -0.229 NA
ATOM      4  C   UNL     1       0.427   2.045  -4.726  0.00  0.00    +0.078 A 
ATOM      5  C   UNL     1       0.261   2.887  -5.832  0.00  0.00    +0.028 A 
ATOM      6  C   UNL     1       0.877   4.106  -5.855  0.00  0.00    +0.002 A 
ATOM      7  C   UNL     1       1.668   4.527  -4.794  0.00  0.00    +0.001 A 
ATOM      8  C   UNL     1       1.851   3.720  -3.691  0.00  0.00    +0.015 A 
ATOM      9  C   UNL     1       1.233   2.473  -3.646  0.00  0.00    +0.065 A 
ATOM     10  C   UNL     1       1.388   1.573  -2.492  0.00  0.00    +0.263 A 
ATOM     11  O   UNL     1       2.066   1.888  -1.532  0.00  0.00    -0.267 OA
ENDROOT
BRANCH   1  14
ATOM     12  C   UNL     1      -0.263   1.395  -0.277  0.00  0.00    +0.028 C 
ATOM     13  C   UNL     1      -0.003  -0.112  -0.230  0.00  0.00    +0.105 C 
ATOM     14  C   UNL     1       0.875  -0.560  -1.424  0.00  0.00    +0.198 C 
ATOM     15  C   UNL     1       2.271  -0.519  -0.829  0.00  0.00    +0.258 C 
ATOM     16  O   UNL     1       3.312  -0.547  -1.450  0.00  0.00    -0.272 OA
ATOM     17  N   UNL     1       2.149  -0.447   0.509  0.00  0.00    -0.200 N 
ATOM     18  N   UNL     1       0.851  -0.466   0.927  0.00  0.00    -0.217 NA
ATOM     19  C   UNL     1       0.490  -1.786   1.463  0.00  0.00    +0.128 C 
BRANCH  17  20
ATOM     20  C   UNL     1       3.240  -0.361   1.381  0.00  0.00    +0.053 A 
ATOM     21  C   UNL     1       4.478  -0.861   0.999  0.00  0.00    +0.025 A 
ATOM     22  C   UNL     1       5.553  -0.775   1.861  0.00  0.00    +0.002 A 
ATOM     23  C   UNL     1       5.398  -0.190   3.105  0.00  0.00    +0.000 A 
ATOM     24  C   UNL     1       4.167   0.309   3.489  0.00  0.00    +0.002 A 
ATOM     25  C   UNL     1       3.090   0.231   2.628  0.00  0.00    +0.025 A 
ENDBRANCH  17  20
ENDBRANCH   1  14
BRANCH   2  26
ATOM     26  C   UNL     1      -0.686  -1.254  -3.643  0.00  0.00    +0.047 C 
ATOM     27  C   UNL     1      -1.491  -1.594  -4.686  0.00  0.00    +0.009 C 
BRANCH  27  28
ATOM     28  C   UNL     1      -2.137  -2.839  -4.696  0.00  0.00    -0.019 C 
ATOM     29  C   UNL     1      -2.983  -3.340  -5.681  0.00  0.00    +0.003 A 
ATOM     30  C   UNL     1      -3.441  -2.810  -6.907  0.00  0.00    +0.010 A 
ATOM     31  C   UNL     1      -4.280  -3.539  -7.684  0.00  0.00    +0.001 A 
ATOM     32  C   UNL     1      -4.710  -4.816  -7.303  0.00  0.00    +0.002 A 
ATOM     33  C   UNL     1      -4.314  -5.388  -6.143  0.00  0.00    +0.026 A 
ATOM     34  C   UNL     1      -3.433  -4.685  -5.274  0.00  0.00    +0.043 A 
ATOM     35  N   UNL     1      -2.910  -5.013  -4.114  0.00  0.00    -0.380 N 
ATOM     36  C   UNL     1      -2.057  -3.920  -3.640  0.00  0.00    +0.149 C 
ATOM     37  H   UNL     1      -3.062  -5.849  -3.647  0.00  0.00    +0.160 HD
ENDBRANCH  27  28
ENDBRANCH   2  26
TORSDOF 4
