REMARK  Name = ZINC45165965
REMARK  5 active torsions:
REMARK  status: ('A' for Active; 'I' for Inactive)
REMARK    1  A    between atoms: C_3  and  N_20
REMARK    2  A    between atoms: C_4  and  S_8
REMARK    3  A    between atoms: S_8  and  N_11
REMARK    4  A    between atoms: N_11  and  C_12
REMARK    5  A    between atoms: C_15  and  C_18
REMARK                            x       y       z     vdW  Elec       q    Type
REMARK                         _______ _______ _______ _____ _____    ______ ____
ROOT
ATOM      1  S   UNL     1       3.887  -0.853  -0.482  0.00  0.00    +0.095 S 
ATOM      2  O   UNL     1       3.567  -1.987  -1.276  0.00  0.00    -0.148 OA
ATOM      3  O   UNL     1       4.846   0.115  -0.887  0.00  0.00    -0.148 OA
ENDROOT
BRANCH   1   7
ATOM      4  C   UNL     1       0.004   1.383   0.204  0.00  0.00    +0.003 A 
ATOM      5  C   UNL     1       1.210   2.021   0.418  0.00  0.00    +0.025 A 
ATOM      6  C   UNL     1       2.402   1.339   0.209  0.00  0.00    +0.053 A 
ATOM      7  C   UNL     1       2.377   0.017  -0.215  0.00  0.00    +0.149 A 
ATOM      8  C   UNL     1       1.167  -0.616  -0.428  0.00  0.00    +0.069 A 
ATOM      9  C   UNL     1      -0.018   0.067  -0.219  0.00  0.00    +0.022 A 
ATOM     10 CL   UNL     1       1.135  -2.269  -0.960  0.00  0.00    -0.081 Cl
BRANCH   6  11
ATOM     11  N   UNL     1       3.623   1.982   0.425  0.00  0.00    -0.356 N 
ATOM     12  H   UNL     1       3.652   2.946   0.526  0.00  0.00    +0.142 HD
ATOM     13  H   UNL     1       4.442   1.464   0.474  0.00  0.00    +0.142 HD
ENDBRANCH   6  11
ENDBRANCH   1   7
BRANCH   1  14
ATOM     14  N   UNL     1       4.387  -1.429   0.987  0.00  0.00    -0.098 NA
BRANCH  14  15
ATOM     15  C   UNL     1       5.565  -2.163   1.083  0.00  0.00    +0.074 A 
ATOM     16  C   UNL     1       6.325  -2.408  -0.058  0.00  0.00    +0.028 A 
ATOM     17  C   UNL     1       7.491  -3.134   0.033  0.00  0.00    +0.021 A 
ATOM     18  C   UNL     1       7.911  -3.626   1.272  0.00  0.00    +0.052 A 
ATOM     19  C   UNL     1       7.146  -3.378   2.415  0.00  0.00    +0.021 A 
ATOM     20  C   UNL     1       5.984  -2.647   2.319  0.00  0.00    +0.028 A 
BRANCH  18  21
ATOM     21  C   UNL     1       9.123  -4.382   1.370  0.00  0.00    +0.099 C 
ATOM     22  N   UNL     1      10.085  -4.982   1.448  0.00  0.00    -0.191 NA
ENDBRANCH  18  21
ENDBRANCH  14  15
ENDBRANCH   1  14
TORSDOF 5
