REMARK  Name = ZINC27256070
REMARK  16 active torsions:
REMARK  status: ('A' for Active; 'I' for Inactive)
REMARK    1  A    between atoms: C_1  and  C_2
REMARK    2  A    between atoms: C_2  and  C_3
REMARK    3  A    between atoms: C_3  and  C_4
REMARK    4  A    between atoms: C_4  and  C_5
REMARK    5  A    between atoms: C_5  and  C_6
REMARK    6  A    between atoms: C_5  and  C_15
REMARK    7  A    between atoms: C_5  and  O_34
REMARK    8  A    between atoms: C_9  and  O_12
REMARK    9  A    between atoms: O_12  and  C_13
REMARK   10  A    between atoms: C_13  and  C_14
REMARK   11  A    between atoms: C_15  and  C_17
REMARK   12  A    between atoms: C_15  and  C_27
REMARK   13  A    between atoms: C_17  and  N_18
REMARK   14  A    between atoms: N_18  and  C_19
REMARK   15  A    between atoms: N_18  and  C_20
REMARK   16  A    between atoms: C_20  and  C_21
REMARK                            x       y       z     vdW  Elec       q    Type
REMARK                         _______ _______ _______ _____ _____    ______ ____
ROOT
ATOM      1  C   UNL     1      -0.793  -0.057   0.415  0.00  0.00    +0.069 C 
ENDROOT
BRANCH   1   2
ATOM      2  C   UNL     1      -0.341   1.372   0.570  0.00  0.00    -0.040 A 
ATOM      3  C   UNL     1      -1.246   2.347   0.947  0.00  0.00    +0.005 A 
ATOM      4  C   UNL     1      -0.831   3.656   1.095  0.00  0.00    +0.020 A 
ATOM      5  C   UNL     1       0.489   3.994   0.856  0.00  0.00    +0.041 A 
ATOM      6  C   UNL     1       1.394   3.020   0.473  0.00  0.00    +0.020 A 
ATOM      7  C   UNL     1       0.978   1.709   0.331  0.00  0.00    +0.005 A 
ATOM      8 CL   UNL     1       1.011   5.641   1.034  0.00  0.00    -0.084 Cl
ENDBRANCH   1   2
BRANCH   1   9
ATOM      9  C   UNL     1      -1.270  -0.591   1.767  0.00  0.00    +0.099 C 
BRANCH   9  10
ATOM     10  C   UNL     1      -0.370  -0.070   2.858  0.00  0.00    -0.015 A 
ATOM     11  C   UNL     1       0.960   0.196   2.588  0.00  0.00    +0.010 A 
ATOM     12  C   UNL     1       1.785   0.679   3.585  0.00  0.00    +0.046 A 
ATOM     13  C   UNL     1       1.282   0.886   4.861  0.00  0.00    +0.121 A 
ATOM     14  C   UNL     1      -0.051   0.613   5.131  0.00  0.00    +0.046 A 
ATOM     15  C   UNL     1      -0.874   0.136   4.129  0.00  0.00    +0.010 A 
BRANCH  13  16
ATOM     16  O   UNL     1       2.093   1.356   5.845  0.00  0.00    -0.492 OA
BRANCH  16  17
ATOM     17  C   UNL     1       3.454   1.615   5.495  0.00  0.00    +0.225 C 
ATOM     18  C   UNL     1       4.206   2.134   6.722  0.00  0.00    +0.048 C 
ENDBRANCH  16  17
ENDBRANCH  13  16
ENDBRANCH   9  10
BRANCH   9  19
ATOM     19  O   UNL     1      -2.610  -0.155   2.006  0.00  0.00    -0.383 OA
ATOM     20  H   UNL     1      -2.839   0.920   2.049  0.00  0.00    +0.211 HD
ENDBRANCH   9  19
BRANCH   9  21
ATOM     21  C   UNL     1      -1.225  -2.120   1.756  0.00  0.00    +0.040 C 
BRANCH  21  22
ATOM     22  C   UNL     1      -2.007  -2.644   0.550  0.00  0.00    +0.003 C 
BRANCH  22  24
ATOM     23  C   UNL     1      -2.865  -4.695  -0.590  0.00  0.00    +0.004 C 
ATOM     24  C   UNL     1      -2.083  -4.171   0.616  0.00  0.00    -0.003 C 
ENDBRANCH  22  24
ENDBRANCH  21  22
ENDBRANCH   9  21
ENDBRANCH   1   9
BRANCH   1  25
ATOM     25  C   UNL     1      -1.943  -0.121  -0.593  0.00  0.00    +0.095 C 
BRANCH  25  26
ATOM     26  N   UNL     1      -1.439   0.209  -1.932  0.00  0.00    -0.300 NA
ATOM     27  C   UNL     1      -1.198   1.652  -2.064  0.00  0.00    +0.105 C 
BRANCH  26  28
ATOM     28  C   UNL     1      -2.360  -0.268  -2.973  0.00  0.00    +0.119 C 
BRANCH  28  29
ATOM     29  C   UNL     1      -1.704  -0.135  -4.323  0.00  0.00    -0.033 A 
ATOM     30  C   UNL     1      -1.856   1.028  -5.054  0.00  0.00    +0.005 A 
ATOM     31  C   UNL     1      -1.250   1.152  -6.291  0.00  0.00    +0.000 A 
ATOM     32  C   UNL     1      -0.500   0.108  -6.801  0.00  0.00    +0.000 A 
ATOM     33  C   UNL     1      -0.353  -1.058  -6.072  0.00  0.00    +0.000 A 
ATOM     34  C   UNL     1      -0.955  -1.179  -4.833  0.00  0.00    +0.005 A 
ENDBRANCH  28  29
ENDBRANCH  26  28
ENDBRANCH  25  26
ENDBRANCH   1  25
TORSDOF 13
