REMARK  Name = ZINC66243214
REMARK  7 active torsions:
REMARK  status: ('A' for Active; 'I' for Inactive)
REMARK    1  A    between atoms: C_1  and  C_2
REMARK    2  A    between atoms: N_5  and  C_9
REMARK    3  A    between atoms: C_9  and  C_11
REMARK    4  A    between atoms: C_9  and  C_22
REMARK    5  A    between atoms: C_11  and  N_12
REMARK    6  A    between atoms: N_14  and  C_15
REMARK    7  A    between atoms: C_15  and  C_16
REMARK                            x       y       z     vdW  Elec       q    Type
REMARK                         _______ _______ _______ _____ _____    ______ ____
ROOT
ATOM      1  C   UNL     1      -2.708  -2.733   0.133  0.00  0.00    +0.110 C 
ENDROOT
BRANCH   1   2
ATOM      2  C   UNL     1      -3.677  -2.486   1.260  0.00  0.00    +0.025 A 
ATOM      3  C   UNL     1      -4.503  -3.507   1.700  0.00  0.00    +0.130 A 
ATOM      4  C   UNL     1      -5.393  -3.279   2.736  0.00  0.00    +0.039 A 
ATOM      5  C   UNL     1      -5.457  -2.032   3.330  0.00  0.00    +0.004 A 
ATOM      6  C   UNL     1      -4.633  -1.013   2.891  0.00  0.00    +0.020 A 
ATOM      7  C   UNL     1      -3.739  -1.241   1.859  0.00  0.00    +0.048 A 
ATOM      8 CL   UNL     1      -2.699   0.037   1.313  0.00  0.00    -0.083 Cl
ATOM      9  F   UNL     1      -4.440  -4.725   1.119  0.00  0.00    -0.205 F 
ENDBRANCH   1   2
BRANCH   1  13
ATOM     10  C   UNL     1       1.575  -3.812   2.305  0.00  0.00    +0.039 C 
ATOM     11  C   UNL     1       0.741  -2.711   1.646  0.00  0.00    +0.129 C 
ATOM     12  C   UNL     1      -0.612  -3.283   1.215  0.00  0.00    +0.116 C 
ATOM     13  N   UNL     1      -1.377  -2.242   0.514  0.00  0.00    -0.289 NA
ATOM     14  C   UNL     1      -0.639  -1.754  -0.660  0.00  0.00    +0.113 C 
ATOM     15  C   UNL     1       0.714  -1.198  -0.210  0.00  0.00    +0.175 C 
ATOM     16  O   UNL     1       1.431  -2.213   0.497  0.00  0.00    -0.374 OA
ENDBRANCH   1  13
BRANCH   1  17
ATOM     17  C   UNL     1      -2.634  -4.234  -0.156  0.00  0.00    +0.139 C 
BRANCH  17  18
ATOM     18  N   UNL     1      -1.723  -4.471  -1.279  0.00  0.00    -0.356 N 
ATOM     19  C   UNL     1      -1.359  -5.755  -1.609  0.00  0.00    +0.169 C 
ATOM     20  N   UNL     1      -0.548  -5.965  -2.608  0.00  0.00    -0.351 N 
ATOM     21  N   UNL     1      -1.849  -6.816  -0.886  0.00  0.00    -0.371 N 
ATOM     22  H   UNL     1      -1.378  -3.722  -1.789  0.00  0.00    +0.162 HD
ATOM     23  H   UNL     1      -2.451  -6.659  -0.142  0.00  0.00    +0.159 HD
ATOM     24  H   UNL     1      -1.591  -7.722  -1.119  0.00  0.00    +0.159 HD
ATOM     25  H   UNL     1      -0.203  -5.216  -3.119  0.00  0.00    +0.163 HD
BRANCH  20  26
ATOM     26  C   UNL     1      -0.160  -7.333  -2.961  0.00  0.00    +0.190 C 
BRANCH  26  27
ATOM     27  C   UNL     1       0.775  -7.301  -4.142  0.00  0.00    +0.124 A 
ATOM     28  C   UNL     1       2.117  -7.222  -4.081  0.00  0.00    +0.046 A 
ATOM     29  C   UNL     1       2.588  -7.220  -5.414  0.00  0.00    +0.041 A 
ATOM     30  C   UNL     1       1.506  -7.298  -6.210  0.00  0.00    +0.195 A 
ATOM     31  O   UNL     1       0.411  -7.353  -5.434  0.00  0.00    -0.466 OA
ENDBRANCH  26  27
ENDBRANCH  20  26
ENDBRANCH  17  18
ENDBRANCH   1  17
TORSDOF 6
