REMARK  Name = ZINC26463095
REMARK  5 active torsions:
REMARK  status: ('A' for Active; 'I' for Inactive)
REMARK    1  A    between atoms: C_2  and  N_9
REMARK    2  A    between atoms: C_10  and  C_12
REMARK    3  A    between atoms: N_17  and  C_18
REMARK    4  A    between atoms: C_18  and  C_19
REMARK    5  A    between atoms: N_24  and  C_25
REMARK                            x       y       z     vdW  Elec       q    Type
REMARK                         _______ _______ _______ _____ _____    ______ ____
ROOT
ATOM      1  C   UNL     1       2.448   1.224  -0.077  0.00  0.00    +0.020 C 
ATOM      2  C   UNL     1       2.704   0.658   1.337  0.00  0.00    -0.008 C 
ATOM      3  C   UNL     1       4.171   1.017   1.652  0.00  0.00    -0.020 C 
ATOM      4  C   UNL     1       4.677   1.770   0.402  0.00  0.00    -0.077 C 
ATOM      5  N   UNL     1       3.448   2.311  -0.232  0.00  0.00    +0.393 N 
ATOM      6  H   UNL     1       3.119   3.259   0.219  0.00  0.00    -0.080 HD
ENDROOT
BRANCH   1   8
ATOM      7  N   UNL     1      -0.011   0.966   0.007  0.00  0.00    -0.287 N 
ATOM      8  C   UNL     1       1.049   1.777  -0.175  0.00  0.00    +0.204 C 
ATOM      9  O   UNL     1       0.879   2.953  -0.418  0.00  0.00    -0.277 OA
ATOM     10  H   UNL     1       0.141  -0.115   0.144  0.00  0.00    +0.155 HD
BRANCH   7  12
ATOM     11  C   UNL     1      -2.369   0.755  -0.472  0.00  0.00    +0.043 A 
ATOM     12  C   UNL     1      -1.305   1.498   0.022  0.00  0.00    +0.036 A 
ATOM     13  C   UNL     1      -1.528   2.769   0.536  0.00  0.00    +0.043 A 
ATOM     14  C   UNL     1      -2.807   3.294   0.545  0.00  0.00    +0.044 A 
ATOM     15  C   UNL     1      -3.865   2.551   0.052  0.00  0.00    +0.040 A 
ATOM     16  C   UNL     1      -3.646   1.283  -0.456  0.00  0.00    +0.044 A 
ATOM     17 CL   UNL     1      -4.976   0.354  -1.074  0.00  0.00    -0.083 Cl
ATOM     18 CL   UNL     1      -3.086   4.885   1.182  0.00  0.00    -0.083 Cl
ENDBRANCH   7  12
ENDBRANCH   1   8
BRANCH   5  19
ATOM     19  C   UNL     1       3.678   2.616  -1.650  0.00  0.00    +0.020 C 
BRANCH  19  20
ATOM     20  C   UNL     1       4.500   3.874  -1.766  0.00  0.00    +0.204 C 
ATOM     21  O   UNL     1       4.859   4.458  -0.767  0.00  0.00    -0.277 OA
ATOM     22  N   UNL     1       4.836   4.349  -2.982  0.00  0.00    -0.242 N 
ATOM     23  C   UNL     1       5.572   5.474  -3.086  0.00  0.00    +0.306 C 
ATOM     24  O   UNL     1       5.932   6.059  -2.084  0.00  0.00    -0.252 OA
ATOM     25  N   UNL     1       5.908   5.949  -4.302  0.00  0.00    -0.296 N 
ATOM     26  H   UNL     1       4.510   3.819  -3.889  0.00  0.00    +0.159 HD
ATOM     27  H   UNL     1       5.582   5.419  -5.209  0.00  0.00    +0.151 HD
BRANCH  25  28
ATOM     28  C   UNL     1       6.708   7.171  -4.415  0.00  0.00    +0.075 C 
ATOM     29  C   UNL     1       6.281   8.200  -5.464  0.00  0.00    +0.024 C 
ATOM     30  C   UNL     1       7.539   7.357  -5.686  0.00  0.00    +0.024 C 
ENDBRANCH  25  28
ENDBRANCH  19  20
ENDBRANCH   5  19
TORSDOF 5
