REMARK  Name = ZINC12850549
REMARK  11 active torsions:
REMARK  status: ('A' for Active; 'I' for Inactive)
REMARK    1  A    between atoms: C_1  and  C_2
REMARK    2  A    between atoms: C_2  and  C_4
REMARK    3  A    between atoms: C_2  and  O_38
REMARK    4  A    between atoms: C_7  and  N_10
REMARK    5  A    between atoms: C_11  and  C_13
REMARK    6  A    between atoms: C_19  and  C_28
REMARK    7  A    between atoms: C_22  and  C_24
REMARK    8  A    between atoms: C_31  and  O_36
REMARK    9  A    between atoms: C_32  and  O_34
REMARK   10  A    between atoms: O_34  and  C_35
REMARK   11  A    between atoms: O_36  and  C_37
REMARK                            x       y       z     vdW  Elec       q    Type
REMARK                         _______ _______ _______ _____ _____    ______ ____
ROOT
ATOM      1  C   UNL     1       4.680  -2.509  -5.846  0.00  0.00    +0.091 C 
ATOM      2  C   UNL     1       5.986  -2.946  -5.944  0.00  0.00    +0.104 C 
ATOM      3  N   UNL     1       6.280  -3.185  -7.247  0.00  0.00    -0.269 N 
ATOM      4  N   UNL     1       5.178  -2.894  -8.042  0.00  0.00    -0.226 N 
ATOM      5  C   UNL     1       4.142  -2.491  -7.212  0.00  0.00    +0.126 C 
ATOM      6  N   UNL     1       2.956  -2.168  -7.641  0.00  0.00    -0.364 N 
ATOM      7  C   UNL     1       2.665  -2.274  -9.076  0.00  0.00    +0.113 C 
ATOM      8  C   UNL     1       3.922  -1.991  -9.900  0.00  0.00    +0.062 C 
ATOM      9  C   UNL     1       5.039  -2.963  -9.501  0.00  0.00    +0.201 C 
ATOM     10  H   UNL     1       7.133  -3.511  -7.575  0.00  0.00    +0.170 HD
ATOM     11  H   UNL     1       2.275  -1.863  -7.022  0.00  0.00    +0.161 HD
ENDROOT
BRANCH   7  12
ATOM     12  C   UNL     1       1.597  -1.275  -9.441  0.00  0.00    -0.021 A 
ATOM     13  C   UNL     1       1.619  -0.008  -8.889  0.00  0.00    +0.009 A 
ATOM     14  C   UNL     1       0.641   0.911  -9.221  0.00  0.00    +0.050 A 
ATOM     15  C   UNL     1      -0.364   0.563 -10.109  0.00  0.00    +0.162 A 
ATOM     16  C   UNL     1      -0.386  -0.712 -10.666  0.00  0.00    +0.162 A 
ATOM     17  C   UNL     1       0.600  -1.627 -10.333  0.00  0.00    +0.055 A 
BRANCH  16  18
ATOM     18  O   UNL     1      -1.370  -1.058 -11.538  0.00  0.00    -0.491 OA
ATOM     19  C   UNL     1      -1.329  -2.384 -12.070  0.00  0.00    +0.277 C 
ENDBRANCH  16  18
BRANCH  15  20
ATOM     20  O   UNL     1      -1.326   1.466 -10.437  0.00  0.00    -0.491 OA
ATOM     21  C   UNL     1      -1.241   2.756  -9.826  0.00  0.00    +0.277 C 
ENDBRANCH  15  20
ENDBRANCH   7  12
BRANCH   1  23
ATOM     22  N   UNL     1       2.642  -1.908  -4.652  0.00  0.00    -0.281 N 
ATOM     23  C   UNL     1       3.968  -2.141  -4.617  0.00  0.00    +0.253 C 
ATOM     24  O   UNL     1       4.576  -2.047  -3.567  0.00  0.00    -0.270 OA
ATOM     25  H   UNL     1       2.135  -2.103  -5.456  0.00  0.00    +0.155 HD
BRANCH  22  29
ATOM     26  C   UNL     1       0.713  -0.348  -1.305  0.00  0.00    -0.019 A 
ATOM     27  C   UNL     1       0.289   0.005  -2.573  0.00  0.00    +0.008 A 
ATOM     28  C   UNL     1       0.926  -0.510  -3.684  0.00  0.00    +0.023 A 
ATOM     29  C   UNL     1       1.994  -1.384  -3.528  0.00  0.00    +0.034 A 
ATOM     30  C   UNL     1       2.418  -1.737  -2.253  0.00  0.00    +0.023 A 
ATOM     31  C   UNL     1       1.780  -1.214  -1.146  0.00  0.00    +0.008 A 
BRANCH  26  33
ATOM     32  C   UNL     1       0.519   1.637   0.168  0.00  0.00    +0.043 C 
ATOM     33  C   UNL     1       0.016   0.216  -0.094  0.00  0.00    +0.141 C 
BRANCH  33  34
ATOM     34  O   UNL     1      -1.394   0.245  -0.327  0.00  0.00    -0.387 OA
ATOM     35  H   UNL     1      -1.908   0.597   0.413  0.00  0.00    +0.210 HD
ENDBRANCH  33  34
ENDBRANCH  26  33
ENDBRANCH  22  29
ENDBRANCH   1  23
BRANCH   9  36
ATOM     36  C   UNL     1       6.356  -2.564 -10.170  0.00  0.00    +0.410 C 
ATOM     37  F   UNL     1       7.370  -3.437  -9.761  0.00  0.00    -0.169 F 
ATOM     38  F   UNL     1       6.213  -2.633 -11.560  0.00  0.00    -0.169 F 
ATOM     39  F   UNL     1       6.689  -1.256  -9.799  0.00  0.00    -0.169 F 
ENDBRANCH   9  36
TORSDOF 8
