REMARK  Name = ZINC64404513
REMARK  6 active torsions:
REMARK  status: ('A' for Active; 'I' for Inactive)
REMARK    1  A    between atoms: C_1  and  C_2
REMARK    2  A    between atoms: C_3  and  C_27
REMARK    3  A    between atoms: C_6  and  C_13
REMARK    4  A    between atoms: N_15  and  C_16
REMARK    5  A    between atoms: C_16  and  C_17
REMARK    6  A    between atoms: N_19  and  C_20
REMARK                            x       y       z     vdW  Elec       q    Type
REMARK                         _______ _______ _______ _____ _____    ______ ____
ROOT
ATOM      1  C   UNL     1       0.051  -4.853  -1.375  0.00  0.00    +0.247 C 
ATOM      2  O   UNL     1       0.028  -4.251  -2.431  0.00  0.00    -0.270 OA
ATOM      3  N   UNL     1       0.076  -6.200  -1.367  0.00  0.00    -0.303 N 
ATOM      4  H   UNL     1       0.094  -6.680  -0.524  0.00  0.00    +0.150 HD
ENDROOT
BRANCH   1  10
ATOM      5  C   UNL     1      -0.050   1.503   0.009  0.00  0.00    +0.067 C 
ATOM      6  C   UNL     1      -0.022  -0.004   0.001  0.00  0.00    +0.060 A 
ATOM      7  C   UNL     1      -0.022  -0.689  -1.216  0.00  0.00    +0.060 A 
ATOM      8  N   UNL     1       0.001  -2.002  -1.245  0.00  0.00    -0.248 NA
ATOM      9  C   UNL     1       0.026  -2.690  -0.102  0.00  0.00    +0.102 A 
ATOM     10  C   UNL     1       0.052  -4.108  -0.102  0.00  0.00    +0.067 A 
ATOM     11  C   UNL     1       0.077  -4.787   1.106  0.00  0.00    +0.053 A 
ATOM     12  C   UNL     1       0.077  -4.089   2.312  0.00  0.00    +0.126 A 
ATOM     13  C   UNL     1       0.052  -2.725   2.337  0.00  0.00    +0.068 A 
ATOM     14  C   UNL     1       0.026  -1.998   1.133  0.00  0.00    +0.093 A 
ATOM     15  N   UNL     1       0.007  -0.660   1.139  0.00  0.00    -0.248 NA
ATOM     16  F   UNL     1       0.102  -4.774   3.476  0.00  0.00    -0.205 F 
ATOM     17  C   UNL     1      -0.050   0.087  -2.508  0.00  0.00    +0.067 C 
ENDBRANCH   1  10
BRANCH   3  18
ATOM     18  C   UNL     1       0.075  -6.940  -2.631  0.00  0.00    +0.200 C 
BRANCH  18  19
ATOM     19  C   UNL     1       0.106  -8.420  -2.348  0.00  0.00    +0.234 C 
ATOM     20  O   UNL     1       0.126  -8.818  -1.202  0.00  0.00    -0.274 OA
ATOM     21  N   UNL     1       0.111  -9.302  -3.367  0.00  0.00    -0.284 N 
ATOM     22  H   UNL     1       0.027  -8.987  -4.281  0.00  0.00    +0.155 HD
BRANCH  21  23
ATOM     23  C   UNL     1       0.236 -10.672  -3.107  0.00  0.00    +0.034 A 
ATOM     24  C   UNL     1       0.944 -11.484  -3.983  0.00  0.00    +0.026 A 
ATOM     25  C   UNL     1       1.067 -12.835  -3.725  0.00  0.00    +0.040 A 
ATOM     26  C   UNL     1       0.485 -13.380  -2.593  0.00  0.00    +0.124 A 
ATOM     27  C   UNL     1      -0.221 -12.572  -1.718  0.00  0.00    +0.040 A 
ATOM     28  C   UNL     1      -0.341 -11.220  -1.969  0.00  0.00    +0.026 A 
ATOM     29  F   UNL     1       0.605 -14.702  -2.342  0.00  0.00    -0.205 F 
ENDBRANCH  21  23
ENDBRANCH  18  19
ENDBRANCH   3  18
TORSDOF 4
