REMARK  Name = ZINC50982080
REMARK  8 active torsions:
REMARK  status: ('A' for Active; 'I' for Inactive)
REMARK    1  A    between atoms: C_2  and  N_9
REMARK    2  A    between atoms: N_9  and  C_10
REMARK    3  A    between atoms: C_12  and  C_13
REMARK    4  A    between atoms: C_12  and  C_15
REMARK    5  A    between atoms: C_15  and  C_17
REMARK    6  A    between atoms: C_17  and  C_18
REMARK    7  A    between atoms: C_18  and  N_19
REMARK    8  A    between atoms: C_20  and  C_22
REMARK                            x       y       z     vdW  Elec       q    Type
REMARK                         _______ _______ _______ _____ _____    ______ ____
ROOT
ATOM      1  C   UNL     1       2.328   4.179   0.104  0.00  0.00    +0.262 C 
ATOM      2  O   UNL     1       3.504   3.523   0.090  0.00  0.00    -0.269 OA
ATOM      3  C   UNL     1       2.306   5.572   0.217  0.00  0.00    +0.156 C 
ENDROOT
BRANCH   1   4
ATOM      4  N   UNL     1       1.161   3.486   0.009  0.00  0.00    -0.281 N 
ATOM      5  H   UNL     1       0.314   3.948   0.102  0.00  0.00    +0.155 HD
BRANCH   4   7
ATOM      6  C   UNL     1       2.188   1.549  -1.003  0.00  0.00    +0.043 A 
ATOM      7  C   UNL     1       1.184   2.107  -0.222  0.00  0.00    +0.036 A 
ATOM      8  C   UNL     1       0.203   1.293   0.329  0.00  0.00    +0.043 A 
ATOM      9  C   UNL     1       0.229  -0.070   0.100  0.00  0.00    +0.044 A 
ATOM     10  C   UNL     1       1.230  -0.623  -0.679  0.00  0.00    +0.040 A 
ATOM     11  C   UNL     1       2.208   0.186  -1.230  0.00  0.00    +0.044 A 
ATOM     12 CL   UNL     1       3.463  -0.512  -2.206  0.00  0.00    -0.083 Cl
ATOM     13 CL   UNL     1      -0.997  -1.089   0.788  0.00  0.00    -0.083 Cl
ENDBRANCH   4   7
ENDBRANCH   1   4
BRANCH   3  14
ATOM     14  C   UNL     1       1.056   6.270   0.232  0.00  0.00    +0.108 C 
ATOM     15  N   UNL     1       0.064   6.823   0.244  0.00  0.00    -0.191 NA
ENDBRANCH   3  14
BRANCH   3  16
ATOM     16  C   UNL     1       3.515   6.290   0.316  0.00  0.00    +0.180 C 
ATOM     17  O   UNL     1       4.576   5.699   0.303  0.00  0.00    -0.291 OA
BRANCH  16  18
ATOM     18  C   UNL     1       3.491   7.792   0.437  0.00  0.00    +0.099 C 
BRANCH  18  19
ATOM     19  C   UNL     1       4.925   8.319   0.528  0.00  0.00    +0.112 C 
BRANCH  19  20
ATOM     20  N   UNL     1       4.902   9.779   0.646  0.00  0.00    -0.315 N 
ATOM     21  C   UNL     1       6.058  10.466   0.740  0.00  0.00    +0.216 C 
ATOM     22  O   UNL     1       7.117   9.875   0.727  0.00  0.00    -0.276 OA
ATOM     23  H   UNL     1       4.055  10.252   0.656  0.00  0.00    +0.149 HD
BRANCH  21  24
ATOM     24  C   UNL     1       6.034  11.968   0.861  0.00  0.00    +0.075 C 
ATOM     25  C   UNL     1       5.407  12.591  -0.403  0.00  0.00    +0.013 C 
ATOM     26  C   UNL     1       6.229  13.882  -0.638  0.00  0.00    +0.001 C 
ATOM     27  C   UNL     1       7.666  13.446  -0.258  0.00  0.00    +0.001 C 
ATOM     28  C   UNL     1       7.470  12.512   0.954  0.00  0.00    +0.013 C 
ENDBRANCH  21  24
ENDBRANCH  19  20
ENDBRANCH  18  19
ENDBRANCH  16  18
ENDBRANCH   3  16
TORSDOF 8
