REMARK  Name = ZINC36581777
REMARK  19 active torsions:
REMARK  status: ('A' for Active; 'I' for Inactive)
REMARK    1  A    between atoms: C_1  and  C_2
REMARK    2  A    between atoms: C_3  and  C_4
REMARK    3  A    between atoms: C_4  and  C_6
REMARK    4  A    between atoms: C_4  and  N_17
REMARK    5  A    between atoms: N_8  and  C_9
REMARK    6  A    between atoms: C_9  and  C_10
REMARK    7  A    between atoms: C_9  and  C_11
REMARK    8  A    between atoms: C_9  and  C_12
REMARK    9  A    between atoms: C_12  and  C_13
REMARK   10  A    between atoms: C_13  and  C_14
REMARK   11  A    between atoms: C_13  and  C_15
REMARK   12  A    between atoms: C_13  and  C_16
REMARK   13  A    between atoms: N_17  and  C_28
REMARK   14  A    between atoms: C_18  and  C_20
REMARK   15  A    between atoms: C_20  and  C_21
REMARK   16  A    between atoms: C_21  and  C_22
REMARK   17  A    between atoms: C_28  and  C_29
REMARK   18  A    between atoms: C_28  and  C_30
REMARK   19  A    between atoms: C_28  and  C_31
REMARK                            x       y       z     vdW  Elec       q    Type
REMARK                         _______ _______ _______ _____ _____    ______ ____
ROOT
ATOM      1  C   UNL     1       0.218  -2.305  -2.480  0.00  0.00    +0.185 C 
ENDROOT
BRANCH   1   2
ATOM      2  C   UNL     1       0.597  -3.576  -3.196  0.00  0.00    +0.238 C 
ATOM      3  O   UNL     1       0.028  -4.614  -2.932  0.00  0.00    -0.273 OA
ATOM      4  N   UNL     1       1.568  -3.559  -4.131  0.00  0.00    -0.308 N 
ATOM      5  H   UNL     1       2.023  -2.728  -4.342  0.00  0.00    +0.149 HD
BRANCH   4   6
ATOM      6  C   UNL     1       1.937  -4.794  -4.827  0.00  0.00    +0.030 C 
ATOM      7  C   UNL     1       2.752  -5.685  -3.889  0.00  0.00    +0.031 C 
ATOM      8  C   UNL     1       0.669  -5.533  -5.259  0.00  0.00    +0.031 C 
BRANCH   6   9
ATOM      9  C   UNL     1       2.773  -4.453  -6.062  0.00  0.00    +0.031 C 
BRANCH   9  10
ATOM     10  C   UNL     1       2.338  -3.093  -6.613  0.00  0.00    -0.036 C 
ATOM     11  C   UNL     1       3.059  -1.980  -5.851  0.00  0.00    +0.010 C 
ATOM     12  C   UNL     1       2.695  -3.007  -8.099  0.00  0.00    +0.010 C 
ATOM     13  C   UNL     1       0.827  -2.933  -6.441  0.00  0.00    +0.010 C 
ENDBRANCH   9  10
ENDBRANCH   6   9
ENDBRANCH   4   6
ENDBRANCH   1   2
BRANCH   1  16
ATOM     14  C   UNL     1      -1.710   0.533  -4.205  0.00  0.00    +0.035 C 
ATOM     15  C   UNL     1      -1.253  -0.496  -3.203  0.00  0.00    -0.032 C 
ATOM     16  C   UNL     1      -0.242  -1.280  -3.484  0.00  0.00    +0.000 C 
ENDBRANCH   1  16
BRANCH   1  17
ATOM     17  N   UNL     1      -0.865  -2.583  -1.534  0.00  0.00    -0.281 N 
ATOM     18  C   UNL     1      -0.674  -2.386  -0.214  0.00  0.00    +0.217 C 
ATOM     19  O   UNL     1       0.429  -2.109   0.204  0.00  0.00    -0.276 OA
BRANCH  17  20
ATOM     20  C   UNL     1      -2.156  -3.074  -2.022  0.00  0.00    +0.030 C 
ATOM     21  C   UNL     1      -2.143  -3.108  -3.552  0.00  0.00    +0.031 C 
ATOM     22  C   UNL     1      -2.402  -4.485  -1.482  0.00  0.00    +0.031 C 
ATOM     23  C   UNL     1      -3.271  -2.143  -1.542  0.00  0.00    +0.031 C 
ENDBRANCH  17  20
BRANCH  18  24
ATOM     24  C   UNL     1      -1.833  -2.511   0.742  0.00  0.00    +0.096 C 
BRANCH  24  25
ATOM     25  C   UNL     1      -1.303  -2.684   2.166  0.00  0.00    +0.013 C 
BRANCH  25  26
ATOM     26  C   UNL     1      -2.479  -2.810   3.136  0.00  0.00    -0.011 C 
ATOM     27  C   UNL     1      -3.253  -4.095   2.834  0.00  0.00    +0.003 C 
ATOM     28  C   UNL     1      -4.429  -4.222   3.805  0.00  0.00    +0.000 C 
ATOM     29  C   UNL     1      -3.903  -4.269   5.241  0.00  0.00    +0.000 C 
ATOM     30  C   UNL     1      -3.129  -2.984   5.543  0.00  0.00    +0.000 C 
ATOM     31  C   UNL     1      -1.953  -2.858   4.572  0.00  0.00    +0.003 C 
ENDBRANCH  25  26
ENDBRANCH  24  25
ENDBRANCH  18  24
ENDBRANCH   1  17
TORSDOF 10
