REMARK  Name = ZINC40685072
REMARK  5 active torsions:
REMARK  status: ('A' for Active; 'I' for Inactive)
REMARK    1  A    between atoms: C_4  and  C_7
REMARK    2  A    between atoms: C_7  and  N_8
REMARK    3  A    between atoms: C_16  and  N_31
REMARK    4  A    between atoms: C_17  and  N_21
REMARK    5  A    between atoms: N_21  and  C_22
REMARK                            x       y       z     vdW  Elec       q    Type
REMARK                         _______ _______ _______ _____ _____    ______ ____
ROOT
ATOM      1  N   UNL     1       3.030  -0.515   2.295  0.00  0.00    -0.264 N 
ATOM      2  C   UNL     1       1.768  -0.600   2.874  0.00  0.00    +0.127 A 
ATOM      3  C   UNL     1       0.835  -1.497   2.365  0.00  0.00    +0.044 A 
ATOM      4  C   UNL     1      -0.416  -1.571   2.951  0.00  0.00    +0.005 A 
ATOM      5  C   UNL     1      -0.693  -0.742   4.030  0.00  0.00    +0.020 A 
ATOM      6  C   UNL     1       0.281   0.125   4.483  0.00  0.00    +0.113 A 
ATOM      7  N   UNL     1       1.467   0.171   3.908  0.00  0.00    -0.240 NA
ATOM      8  C   UNL     1       4.024   0.247   2.901  0.00  0.00    +0.153 A 
ATOM      9  C   UNL     1       4.939  -0.346   3.772  0.00  0.00    +0.104 A 
ATOM     10  C   UNL     1       5.916   0.464   4.353  0.00  0.00    +0.126 A 
ATOM     11  N   UNL     1       5.938   1.762   4.056  0.00  0.00    -0.333 N 
ATOM     12  C   UNL     1       5.055   2.282   3.229  0.00  0.00    +0.200 A 
ATOM     13  N   UNL     1       4.120   1.551   2.655  0.00  0.00    -0.220 NA
ATOM     14  H   UNL     1       6.613   2.332   4.455  0.00  0.00    +0.168 HD
ENDROOT
BRANCH   9  15
ATOM     15  N   UNL     1       4.878  -1.719   4.057  0.00  0.00    -0.353 N 
ATOM     16  H   UNL     1       4.249  -2.285   3.583  0.00  0.00    +0.143 HD
ATOM     17  H   UNL     1       5.465  -2.102   4.728  0.00  0.00    +0.143 HD
ENDBRANCH   9  15
BRANCH  10  18
ATOM     18  N   UNL     1       6.852  -0.075   5.228  0.00  0.00    -0.299 N 
ATOM     19  H   UNL     1       6.887  -1.034   5.370  0.00  0.00    +0.154 HD
BRANCH  18  20
ATOM     20  C   UNL     1       7.744   0.765   5.905  0.00  0.00    +0.036 A 
ATOM     21  C   UNL     1       7.300   1.974   6.426  0.00  0.00    +0.027 A 
ATOM     22  C   UNL     1       8.179   2.804   7.094  0.00  0.00    +0.051 A 
ATOM     23  C   UNL     1       9.505   2.434   7.246  0.00  0.00    +0.166 A 
ATOM     24  C   UNL     1       9.954   1.223   6.726  0.00  0.00    +0.168 A 
ATOM     25  C   UNL     1       9.071   0.388   6.061  0.00  0.00    +0.072 A 
ATOM     26  O   UNL     1      11.284   1.093   7.005  0.00  0.00    -0.453 OA
ATOM     27  C   UNL     1      11.737   2.418   7.342  0.00  0.00    +0.466 C 
ATOM     28  O   UNL     1      10.556   3.064   7.852  0.00  0.00    -0.453 OA
ENDBRANCH  18  20
ENDBRANCH  10  18
BRANCH   1  29
ATOM     29  C   UNL     1       3.312  -1.228   1.046  0.00  0.00    +0.149 C 
BRANCH  29  33
ATOM     30  C   UNL     1       2.404   1.299  -2.276  0.00  0.00    +0.000 A 
ATOM     31  C   UNL     1       3.671   1.312  -1.724  0.00  0.00    +0.000 A 
ATOM     32  C   UNL     1       3.965   0.494  -0.649  0.00  0.00    +0.005 A 
ATOM     33  C   UNL     1       2.992  -0.336  -0.125  0.00  0.00    -0.030 A 
ATOM     34  C   UNL     1       1.724  -0.347  -0.676  0.00  0.00    +0.005 A 
ATOM     35  C   UNL     1       1.431   0.469  -1.752  0.00  0.00    +0.000 A 
ENDBRANCH  29  33
ENDBRANCH   1  29
TORSDOF 5
