REMARK  Name = ZINC32508220
REMARK  4 active torsions:
REMARK  status: ('A' for Active; 'I' for Inactive)
REMARK    1  A    between atoms: C_5  and  C_7
REMARK    2  A    between atoms: C_7  and  C_8
REMARK    3  A    between atoms: C_8  and  N_10
REMARK    4  A    between atoms: N_12  and  C_23
REMARK                            x       y       z     vdW  Elec       q    Type
REMARK                         _______ _______ _______ _____ _____    ______ ____
ROOT
ATOM      1  N   UNL     1       1.845  -3.951   1.396  0.00  0.00    -0.159 NA
ATOM      2  C   UNL     1       1.787  -4.538   2.586  0.00  0.00    +0.154 C 
ATOM      3  N   UNL     1       1.750  -3.940   3.818  0.00  0.00    -0.276 N 
ATOM      4  C   UNL     1       2.067  -4.726   4.983  0.00  0.00    +0.116 C 
ATOM      5  C   UNL     1       3.100  -4.079   5.904  0.00  0.00    +0.190 C 
ATOM      6  S   UNL     1       4.546  -5.205   5.786  0.00  0.00    -0.028 S 
ATOM      7  O   UNL     1       5.614  -4.518   5.149  0.00  0.00    -0.174 OA
ATOM      8  O   UNL     1       4.763  -5.809   7.054  0.00  0.00    -0.174 OA
ATOM      9  C   UNL     1       3.877  -6.467   4.632  0.00  0.00    +0.182 C 
ATOM     10  C   UNL     1       2.367  -6.204   4.684  0.00  0.00    +0.097 C 
ATOM     11  S   UNL     1       1.729  -6.287   2.946  0.00  0.00    -0.086 S 
ENDROOT
BRANCH   3  12
ATOM     12  C   UNL     1       1.411  -2.587   3.942  0.00  0.00    +0.039 A 
ATOM     13  C   UNL     1       0.095  -2.182   3.766  0.00  0.00    +0.027 A 
ATOM     14  C   UNL     1      -0.242  -0.848   3.889  0.00  0.00    +0.051 A 
ATOM     15  C   UNL     1       0.733   0.090   4.190  0.00  0.00    +0.166 A 
ATOM     16  C   UNL     1       2.054  -0.313   4.367  0.00  0.00    +0.168 A 
ATOM     17  C   UNL     1       2.389  -1.652   4.249  0.00  0.00    +0.073 A 
ATOM     18  O   UNL     1       2.812   0.786   4.652  0.00  0.00    -0.453 OA
ATOM     19  C   UNL     1       2.018   1.916   4.244  0.00  0.00    +0.466 C 
ATOM     20  O   UNL     1       0.663   1.443   4.363  0.00  0.00    -0.453 OA
ENDBRANCH   3  12
BRANCH   1  21
ATOM     21  C   UNL     1       2.014  -2.634   1.311  0.00  0.00    +0.243 C 
ATOM     22  O   UNL     1       2.992  -2.113   1.811  0.00  0.00    -0.273 OA
BRANCH  21  23
ATOM     23  C   UNL     1       0.993  -1.788   0.594  0.00  0.00    +0.134 C 
BRANCH  23  28
ATOM     24  C   UNL     1       1.488   1.917   1.125  0.00  0.00    +0.000 A 
ATOM     25  C   UNL     1       2.473   2.200   0.197  0.00  0.00    +0.001 A 
ATOM     26  C   UNL     1       2.979   1.193  -0.603  0.00  0.00    +0.020 A 
ATOM     27  C   UNL     1       2.501  -0.099  -0.474  0.00  0.00    +0.045 A 
ATOM     28  C   UNL     1       1.516  -0.382   0.454  0.00  0.00    -0.020 A 
ATOM     29  C   UNL     1       1.009   0.626   1.253  0.00  0.00    +0.005 A 
ATOM     30 CL   UNL     1       3.136  -1.364  -1.479  0.00  0.00    -0.083 Cl
ENDBRANCH  23  28
ENDBRANCH  21  23
ENDBRANCH   1  21
TORSDOF 4
