REMARK  Name = ZINC00897382
REMARK  10 active torsions:
REMARK  status: ('A' for Active; 'I' for Inactive)
REMARK    1  A    between atoms: C_1  and  C_2
REMARK    2  A    between atoms: C_2  and  C_3
REMARK    3  A    between atoms: C_2  and  N_67
REMARK    4  A    between atoms: N_6  and  C_9
REMARK    5  A    between atoms: C_12  and  O_15
REMARK    6  A    between atoms: O_15  and  C_16
REMARK    7  A    between atoms: C_16  and  C_17
REMARK    8  A    between atoms: C_21  and  C_23
REMARK    9  A    between atoms: C_21  and  C_29
REMARK   10  A    between atoms: C_23  and  N_24
REMARK                            x       y       z     vdW  Elec       q    Type
REMARK                         _______ _______ _______ _____ _____    ______ ____
ROOT
ATOM      1  C   UNL     1       1.920  -3.982  -0.365  0.00  0.00    +0.185 C 
ATOM      2  C   UNL     1       3.365  -4.481  -0.116  0.00  0.00    +0.198 C 
ATOM      3  O   UNL     1       3.277  -5.862  -0.543  0.00  0.00    -0.341 OA
ATOM      4  C   UNL     1       2.379  -5.843  -1.665  0.00  0.00    +0.219 C 
ATOM      5  O   UNL     1       1.531  -4.691  -1.559  0.00  0.00    -0.334 OA
ENDROOT
BRANCH   4   6
ATOM      6  C   UNL     1       1.538  -7.093  -1.658  0.00  0.00    +0.031 A 
ATOM      7  C   UNL     1       1.825  -8.114  -0.772  0.00  0.00    +0.012 A 
ATOM      8  C   UNL     1       1.054  -9.261  -0.765  0.00  0.00    +0.020 A 
ATOM      9  C   UNL     1      -0.007  -9.387  -1.645  0.00  0.00    +0.042 A 
ATOM     10  C   UNL     1      -0.295  -8.366  -2.531  0.00  0.00    +0.040 A 
ATOM     11  C   UNL     1       0.474  -7.216  -2.535  0.00  0.00    +0.051 A 
ATOM     12 CL   UNL     1       0.110  -5.931  -3.643  0.00  0.00    -0.083 Cl
ATOM     13 CL   UNL     1      -0.975 -10.828  -1.635  0.00  0.00    -0.083 Cl
ENDBRANCH   4   6
BRANCH   1  14
ATOM     14  C   UNL     1       1.905  -2.471  -0.605  0.00  0.00    +0.263 C 
BRANCH  14  15
ATOM     15  O   UNL     1       0.561  -2.038  -0.829  0.00  0.00    -0.489 OA
BRANCH  15  19
ATOM     16  C   UNL     1      -0.019   1.989  -1.530  0.00  0.00    +0.030 A 
ATOM     17  C   UNL     1      -1.104   1.123  -1.520  0.00  0.00    +0.027 A 
ATOM     18  C   UNL     1      -0.909  -0.224  -1.286  0.00  0.00    +0.047 A 
ATOM     19  C   UNL     1       0.370  -0.712  -1.060  0.00  0.00    +0.121 A 
ATOM     20  C   UNL     1       1.454   0.153  -1.071  0.00  0.00    +0.047 A 
ATOM     21  C   UNL     1       1.261   1.501  -1.305  0.00  0.00    +0.027 A 
BRANCH  16  24
ATOM     22  C   UNL     1       0.794   5.580  -1.919  0.00  0.00    -0.059 C 
ATOM     23  C   UNL     1       1.060   4.084  -1.735  0.00  0.00    +0.086 C 
ATOM     24  N   UNL     1      -0.215   3.354  -1.768  0.00  0.00    -0.333 N 
ATOM     25  C   UNL     1      -0.910   3.572  -3.045  0.00  0.00    +0.086 C 
ATOM     26  C   UNL     1      -1.176   5.068  -3.229  0.00  0.00    -0.059 C 
ATOM     27  N   UNL     1       0.116   5.787  -3.216  0.00  0.00    +0.383 N 
ATOM     28  H   UNL     1       0.711   5.417  -3.967  0.00  0.00    -0.081 HD
BRANCH  27  30
ATOM     29  C   UNL     1      -0.718   7.423  -4.835  0.00  0.00    -0.014 C 
ATOM     30  C   UNL     1      -0.107   7.230  -3.446  0.00  0.00    -0.075 C 
ATOM     31  C   UNL     1      -1.054   7.801  -2.388  0.00  0.00    -0.014 C 
ENDBRANCH  27  30
ENDBRANCH  16  24
ENDBRANCH  15  19
ENDBRANCH  14  15
ENDBRANCH   1  14
BRANCH   4  32
ATOM     32  C   UNL     1       3.182  -5.771  -2.966  0.00  0.00    +0.215 C 
BRANCH  32  33
ATOM     33  N   UNL     1       4.068  -4.605  -2.929  0.00  0.00    -0.246 N 
ATOM     34  C   UNL     1       5.401  -4.600  -3.106  0.00  0.00    +0.219 A 
ATOM     35  N   UNL     1       5.820  -3.366  -2.998  0.00  0.00    -0.223 NA
ATOM     36  C   UNL     1       4.789  -2.558  -2.753  0.00  0.00    +0.244 A 
ATOM     37  N   UNL     1       3.694  -3.270  -2.707  0.00  0.00    -0.158 NA
ENDBRANCH  32  33
ENDBRANCH   4  32
TORSDOF 8
