REMARK  Name = ZINC24905539
REMARK  12 active torsions:
REMARK  status: ('A' for Active; 'I' for Inactive)
REMARK    1  A    between atoms: C_1  and  C_2
REMARK    2  A    between atoms: C_5  and  S_8
REMARK    3  A    between atoms: S_8  and  N_11
REMARK    4  A    between atoms: N_11  and  C_12
REMARK    5  A    between atoms: C_12  and  C_14
REMARK    6  A    between atoms: C_12  and  C_18
REMARK    7  A    between atoms: C_14  and  C_15
REMARK    8  A    between atoms: C_15  and  C_16
REMARK    9  A    between atoms: C_15  and  C_17
REMARK   10  A    between atoms: N_20  and  C_21
REMARK   11  A    between atoms: N_24  and  C_27
REMARK   12  A    between atoms: C_27  and  C_28
REMARK                            x       y       z     vdW  Elec       q    Type
REMARK                         _______ _______ _______ _____ _____    ______ ____
ROOT
ATOM      1  C   UNL     1       1.469   2.496   0.201  0.00  0.00    +0.162 C 
ENDROOT
BRANCH   1   2
ATOM      2  C   UNL     1       0.049   2.071   0.473  0.00  0.00    +0.232 C 
ATOM      3  O   UNL     1      -0.267   0.905   0.366  0.00  0.00    -0.274 OA
ATOM      4  N   UNL     1      -0.872   2.988   0.831  0.00  0.00    -0.311 N 
ATOM      5  H   UNL     1      -0.586   4.046   0.928  0.00  0.00    +0.149 HD
BRANCH   4   6
ATOM      6  C   UNL     1      -2.254   2.576   1.089  0.00  0.00    +0.069 C 
ATOM      7  C   UNL     1      -3.031   2.536  -0.229  0.00  0.00    +0.003 C 
ATOM      8  C   UNL     1      -4.488   2.164   0.055  0.00  0.00    -0.076 C 
ATOM      9  N   UNL     1      -5.080   3.156   0.962  0.00  0.00    +0.385 N 
ATOM     10  C   UNL     1      -4.379   3.179   2.252  0.00  0.00    -0.076 C 
ATOM     11  C   UNL     1      -2.919   3.581   2.034  0.00  0.00    +0.003 C 
ATOM     12  H   UNL     1      -4.962   4.146   0.499  0.00  0.00    -0.081 HD
BRANCH   9  13
ATOM     13  C   UNL     1      -6.516   2.909   1.147  0.00  0.00    +0.018 C 
BRANCH  13  14
ATOM     14  C   UNL     1      -7.139   4.082   1.860  0.00  0.00    +0.194 C 
ATOM     15  O   UNL     1      -6.481   5.075   2.084  0.00  0.00    -0.278 OA
ATOM     16  N   UNL     1      -8.429   4.026   2.248  0.00  0.00    -0.331 N 
ATOM     17  H   UNL     1      -8.883   4.882   2.769  0.00  0.00    +0.145 HD
ATOM     18  H   UNL     1      -9.026   3.125   2.045  0.00  0.00    +0.145 HD
ENDBRANCH  13  14
ENDBRANCH   9  13
ENDBRANCH   4   6
ENDBRANCH   1   2
BRANCH   1  19
ATOM     19  N   UNL     1       2.266   1.324  -0.172  0.00  0.00    -0.178 NA
ATOM     20  H   UNL     1       2.863   0.800   0.588  0.00  0.00    +0.149 HD
BRANCH  19  21
ATOM     21  S   UNL     1       2.468   0.936  -1.770  0.00  0.00    +0.059 S 
ATOM     22  O   UNL     1       3.366  -0.165  -1.809  0.00  0.00    -0.153 OA
ATOM     23  O   UNL     1       1.169   0.880  -2.342  0.00  0.00    -0.153 OA
BRANCH  21  28
ATOM     24  C   UNL     1       5.307   5.572  -4.388  0.00  0.00    +0.044 C 
ATOM     25  C   UNL     1       4.598   4.414  -3.734  0.00  0.00    -0.050 A 
ATOM     26  C   UNL     1       5.329   3.415  -3.118  0.00  0.00    +0.005 A 
ATOM     27  C   UNL     1       4.678   2.353  -2.518  0.00  0.00    +0.029 A 
ATOM     28  C   UNL     1       3.297   2.290  -2.534  0.00  0.00    +0.105 A 
ATOM     29  C   UNL     1       2.567   3.287  -3.154  0.00  0.00    +0.029 A 
ATOM     30  C   UNL     1       3.217   4.351  -3.750  0.00  0.00    +0.005 A 
ENDBRANCH  21  28
ENDBRANCH  19  21
ENDBRANCH   1  19
BRANCH   1  31
ATOM     31  C   UNL     1       2.060   3.134   1.459  0.00  0.00    +0.032 C 
BRANCH  31  32
ATOM     32  C   UNL     1       3.446   3.699   1.142  0.00  0.00    -0.015 C 
ATOM     33  C   UNL     1       3.963   4.491   2.345  0.00  0.00    +0.007 C 
ATOM     34  C   UNL     1       4.408   2.548   0.838  0.00  0.00    +0.007 C 
ENDBRANCH  31  32
ENDBRANCH   1  31
TORSDOF 9
