REMARK  Name = ZINC12201363
REMARK  9 active torsions:
REMARK  status: ('A' for Active; 'I' for Inactive)
REMARK    1  A    between atoms: C_1  and  C_2
REMARK    2  A    between atoms: C_2  and  O_3
REMARK    3  A    between atoms: O_3  and  C_4
REMARK    4  A    between atoms: C_7  and  C_12
REMARK    5  A    between atoms: C_9  and  C_10
REMARK    6  A    between atoms: C_10  and  O_11
REMARK    7  A    between atoms: N_18  and  C_25
REMARK    8  A    between atoms: C_25  and  C_26
REMARK    9  A    between atoms: C_31  and  C_32
REMARK                            x       y       z     vdW  Elec       q    Type
REMARK                         _______ _______ _______ _____ _____    ______ ____
ROOT
ATOM      1  C   UNL     1       2.353   1.430  -2.048  0.00  0.00    -0.036 C 
ATOM      2  C   UNL     1       2.516   1.957  -0.611  0.00  0.00    -0.007 C 
ATOM      3  C   UNL     1       1.986   0.811   0.277  0.00  0.00    +0.003 C 
ATOM      4  C   UNL     1       0.447   0.931   0.359  0.00  0.00    +0.110 C 
ATOM      5  N   UNL     1      -0.076  -0.415   0.099  0.00  0.00    -0.298 N 
ATOM      6  C   UNL     1       0.860  -1.204  -0.460  0.00  0.00    +0.206 C 
ATOM      7  O   UNL     1       0.683  -2.353  -0.807  0.00  0.00    -0.277 OA
ATOM      8  C   UNL     1       2.155  -0.457  -0.590  0.00  0.00    +0.018 C 
ATOM      9  C   UNL     1       3.794  -0.503  -2.326  0.00  0.00    -0.077 C 
ATOM     10  C   UNL     1       4.038  -1.732  -1.414  0.00  0.00    -0.019 C 
ATOM     11  C   UNL     1       3.349  -1.288  -0.095  0.00  0.00    -0.004 C 
ATOM     12  N   UNL     1       2.436  -0.042  -1.960  0.00  0.00    +0.394 N 
ATOM     13  H   UNL     1       1.748  -0.461  -2.597  0.00  0.00    -0.079 HD
ENDROOT
BRANCH   1  17
ATOM     14  C   UNL     1       5.490   2.941  -4.526  0.00  0.00    +0.126 A 
ATOM     15  C   UNL     1       4.647   1.947  -5.002  0.00  0.00    +0.046 A 
ATOM     16  C   UNL     1       3.634   1.460  -4.199  0.00  0.00    +0.005 A 
ATOM     17  C   UNL     1       3.459   1.962  -2.922  0.00  0.00    -0.060 A 
ATOM     18  C   UNL     1       4.295   2.957  -2.448  0.00  0.00    +0.011 A 
ATOM     19  C   UNL     1       5.314   3.443  -3.245  0.00  0.00    +0.020 A 
BRANCH  14  20
ATOM     20  O   UNL     1       6.487   3.422  -5.315  0.00  0.00    -0.492 OA
BRANCH  20  22
ATOM     21  C   UNL     1       7.778   3.520  -7.355  0.00  0.00    +0.048 C 
ATOM     22  C   UNL     1       6.609   2.858  -6.622  0.00  0.00    +0.225 C 
ENDBRANCH  20  22
ENDBRANCH  14  20
BRANCH  19  23
ATOM     23  C   UNL     1       6.228   4.523  -2.726  0.00  0.00    +0.194 C 
BRANCH  23  24
ATOM     24  O   UNL     1       5.846   4.869  -1.393  0.00  0.00    -0.390 OA
ATOM     25  H   UNL     1       6.393   5.561  -0.995  0.00  0.00    +0.210 HD
ENDBRANCH  23  24
ENDBRANCH  19  23
ENDBRANCH   1  17
BRANCH   5  26
ATOM     26  C   UNL     1      -1.442  -0.845   0.407  0.00  0.00    +0.143 C 
BRANCH  26  27
ATOM     27  C   UNL     1      -2.302  -0.705  -0.822  0.00  0.00    -0.027 A 
ATOM     28  C   UNL     1      -2.574  -1.812  -1.605  0.00  0.00    +0.005 A 
ATOM     29  C   UNL     1      -3.364  -1.684  -2.732  0.00  0.00    +0.000 A 
ATOM     30  C   UNL     1      -3.882  -0.449  -3.076  0.00  0.00    +0.000 A 
ATOM     31  C   UNL     1      -3.610   0.657  -2.294  0.00  0.00    +0.003 A 
ATOM     32  C   UNL     1      -2.825   0.528  -1.163  0.00  0.00    -0.046 A 
ATOM     33  C   UNL     1      -2.534   1.733  -0.306  0.00  0.00    +0.044 C 
ENDBRANCH  26  27
ENDBRANCH   5  26
TORSDOF 7
