REMARK  Name = ZINC12378288
REMARK  7 active torsions:
REMARK  status: ('A' for Active; 'I' for Inactive)
REMARK    1  A    between atoms: C_1  and  C_2
REMARK    2  A    between atoms: C_5  and  N_9
REMARK    3  A    between atoms: C_10  and  C_12
REMARK    4  A    between atoms: C_24  and  C_26
REMARK    5  A    between atoms: C_24  and  C_27
REMARK    6  A    between atoms: C_29  and  C_31
REMARK    7  A    between atoms: C_29  and  C_32
REMARK                            x       y       z     vdW  Elec       q    Type
REMARK                         _______ _______ _______ _____ _____    ______ ____
ROOT
ATOM      1  C   UNL     1       2.293   5.676   0.225  0.00  0.00    +0.238 C 
ATOM      2  C   UNL     1       1.426   6.076   1.406  0.00  0.00    +0.191 C 
ATOM      3  C   UNL     1       2.163   6.571   2.658  0.00  0.00    +0.187 C 
ATOM      4  C   UNL     1       3.507   7.157   2.331  0.00  0.00    +0.209 C 
ATOM      5  C   UNL     1       4.273   6.139   1.445  0.00  0.00    +0.286 C 
ATOM      6  O   UNL     1       3.623   6.174   0.193  0.00  0.00    -0.333 OA
ATOM      7  O   UNL     1       5.607   6.633   1.506  0.00  0.00    -0.318 OA
ATOM      8  C   UNL     1       5.724   7.311   2.776  0.00  0.00    +0.168 C 
ATOM      9  O   UNL     1       4.423   7.333   3.411  0.00  0.00    -0.338 OA
ATOM     10  C   UNL     1       6.215   8.743   2.553  0.00  0.00    +0.074 C 
ATOM     11  C   UNL     1       6.719   6.563   3.667  0.00  0.00    +0.074 C 
ATOM     12  O   UNL     1       2.243   5.432   3.525  0.00  0.00    -0.341 OA
ATOM     13  C   UNL     1       1.057   4.673   3.232  0.00  0.00    +0.166 C 
ATOM     14  O   UNL     1       0.742   4.875   1.850  0.00  0.00    -0.340 OA
ATOM     15  C   UNL     1       1.315   3.190   3.507  0.00  0.00    +0.074 C 
ATOM     16  C   UNL     1      -0.098   5.161   4.110  0.00  0.00    +0.074 C 
ENDROOT
BRANCH   1  18
ATOM     17  N   UNL     1       1.161   3.486   0.009  0.00  0.00    -0.283 N 
ATOM     18  C   UNL     1       2.317   4.173   0.104  0.00  0.00    +0.249 C 
ATOM     19  O   UNL     1       3.376   3.582   0.091  0.00  0.00    -0.273 OA
ATOM     20  H   UNL     1       0.318   3.961  -0.050  0.00  0.00    +0.155 HD
BRANCH  17  25
ATOM     21  C   UNL     1       1.226  -2.188  -0.042  0.00  0.00    +0.045 C 
ATOM     22  C   UNL     1       1.209  -0.681  -0.028  0.00  0.00    -0.032 A 
ATOM     23  C   UNL     1       0.171  -0.008   0.590  0.00  0.00    +0.006 A 
ATOM     24  C   UNL     1       0.152   1.373   0.604  0.00  0.00    +0.023 A 
ATOM     25  C   UNL     1       1.178   2.087  -0.003  0.00  0.00    +0.035 A 
ATOM     26  C   UNL     1       2.218   1.409  -0.624  0.00  0.00    +0.043 A 
ATOM     27  C   UNL     1       2.232   0.027  -0.634  0.00  0.00    +0.046 A 
ATOM     28 CL   UNL     1       3.533  -0.822  -1.409  0.00  0.00    -0.083 Cl
ENDBRANCH  17  25
ENDBRANCH   1  18
TORSDOF 2
