REMARK  Name = ZINC13346307
REMARK  12 active torsions:
REMARK  status: ('A' for Active; 'I' for Inactive)
REMARK    1  A    between atoms: C_1  and  C_2
REMARK    2  A    between atoms: C_6  and  O_8
REMARK    3  A    between atoms: O_8  and  C_9
REMARK    4  A    between atoms: C_9  and  C_10
REMARK    5  A    between atoms: C_13  and  S_18
REMARK    6  A    between atoms: N_14  and  C_15
REMARK    7  A    between atoms: C_15  and  C_16
REMARK    8  A    between atoms: S_18  and  C_19
REMARK    9  A    between atoms: C_19  and  C_20
REMARK   10  A    between atoms: N_22  and  C_23
REMARK   11  A    between atoms: C_25  and  C_31
REMARK   12  A    between atoms: C_27  and  C_29
REMARK                            x       y       z     vdW  Elec       q    Type
REMARK                         _______ _______ _______ _____ _____    ______ ____
ROOT
ATOM      1  S   UNL     1      -3.853   2.668   3.544  0.00  0.00    -0.077 S 
ENDROOT
BRANCH   1   5
ATOM      2  C   UNL     1      -0.835   1.541   1.344  0.00  0.00    +0.172 A 
ATOM      3  N   UNL     1      -0.250   1.970   2.426  0.00  0.00    -0.130 NA
ATOM      4  N   UNL     1      -1.129   2.384   3.268  0.00  0.00    -0.122 NA
ATOM      5  C   UNL     1      -2.332   2.241   2.763  0.00  0.00    +0.192 A 
ATOM      6  N   UNL     1      -2.182   1.703   1.518  0.00  0.00    -0.299 N 
BRANCH   2   7
ATOM      7  C   UNL     1      -0.153   0.977   0.124  0.00  0.00    +0.305 C 
BRANCH   7   8
ATOM      8  O   UNL     1      -0.013  -0.438   0.268  0.00  0.00    -0.484 OA
BRANCH   8  14
ATOM      9  C   UNL     1       1.551  -4.650  -1.638  0.00  0.00    +0.044 C 
ATOM     10  C   UNL     1       1.367  -3.157  -1.717  0.00  0.00    -0.047 A 
ATOM     11  C   UNL     1       1.808  -2.464  -2.830  0.00  0.00    +0.003 A 
ATOM     12  C   UNL     1       1.640  -1.094  -2.906  0.00  0.00    +0.004 A 
ATOM     13  C   UNL     1       1.031  -0.413  -1.869  0.00  0.00    +0.045 A 
ATOM     14  C   UNL     1       0.587  -1.105  -0.752  0.00  0.00    +0.121 A 
ATOM     15  C   UNL     1       0.762  -2.480  -0.676  0.00  0.00    +0.049 A 
ENDBRANCH   8  14
ENDBRANCH   7   8
ENDBRANCH   2   7
BRANCH   6  16
ATOM     16  C   UNL     1      -3.243   1.366   0.566  0.00  0.00    +0.152 C 
BRANCH  16  17
ATOM     17  C   UNL     1      -3.692  -0.054   0.796  0.00  0.00    -0.013 C 
ATOM     18  C   UNL     1      -4.957  -0.313   1.017  0.00  0.00    +0.005 C 
ENDBRANCH  16  17
ENDBRANCH   6  16
ENDBRANCH   1   5
BRANCH   1  19
ATOM     19  C   UNL     1      -3.230   3.307   5.118  0.00  0.00    +0.173 C 
BRANCH  19  20
ATOM     20  C   UNL     1      -4.389   3.745   5.976  0.00  0.00    +0.227 C 
ATOM     21  O   UNL     1      -5.524   3.637   5.564  0.00  0.00    -0.275 OA
ATOM     22  N   UNL     1      -4.163   4.258   7.202  0.00  0.00    -0.285 N 
ATOM     23  H   UNL     1      -3.263   4.274   7.563  0.00  0.00    +0.155 HD
BRANCH  22  24
ATOM     24  C   UNL     1      -5.229   4.767   7.955  0.00  0.00    +0.035 A 
ATOM     25  C   UNL     1      -6.291   5.389   7.316  0.00  0.00    +0.038 A 
ATOM     26  C   UNL     1      -7.358   5.893   8.063  0.00  0.00    +0.066 A 
ATOM     27  C   UNL     1      -7.349   5.780   9.452  0.00  0.00    +0.030 A 
ATOM     28  C   UNL     1      -6.277   5.159  10.091  0.00  0.00    +0.066 A 
ATOM     29  C   UNL     1      -5.216   4.653   9.337  0.00  0.00    +0.038 A 
BRANCH  28  30
ATOM     30  C   UNL     1      -6.263   5.036  11.563  0.00  0.00    +0.387 C 
ATOM     31  O   UNL     1      -5.329   4.494  12.118  0.00  0.00    -0.241 OA
ATOM     32  O   UNL     1      -7.287   5.524  12.289  0.00  0.00    -0.241 OA
ENDBRANCH  28  30
BRANCH  26  33
ATOM     33  C   UNL     1      -8.492   6.551   7.382  0.00  0.00    +0.387 C 
ATOM     34  O   UNL     1      -8.499   6.650   6.172  0.00  0.00    -0.241 OA
ATOM     35  O   UNL     1      -9.518   7.042   8.104  0.00  0.00    -0.241 OA
ENDBRANCH  26  33
ENDBRANCH  22  24
ENDBRANCH  19  20
ENDBRANCH   1  19
TORSDOF 11
