REMARK  Name = ZINC14314410
REMARK  2 active torsions:
REMARK  status: ('A' for Active; 'I' for Inactive)
REMARK    1  A    between atoms: C_6  and  C_7
REMARK    2  A    between atoms: C_12  and  N_16
REMARK                            x       y       z     vdW  Elec       q    Type
REMARK                         _______ _______ _______ _____ _____    ______ ____
ROOT
ATOM      1  C   UNL     1       2.489  -0.198  -1.681  0.00  0.00    +0.022 A 
ATOM      2  C   UNL     1       3.811  -0.081  -1.386  0.00  0.00    +0.044 A 
ATOM      3  C   UNL     1       4.330   1.158  -0.982  0.00  0.00    +0.084 A 
ATOM      4  C   UNL     1       3.396   2.216  -0.915  0.00  0.00    +0.078 A 
ATOM      5  S   UNL     1       1.873   1.455  -1.406  0.00  0.00    -0.083 S 
ATOM      6  C   UNL     1       3.783   3.488  -0.530  0.00  0.00    +0.139 A 
ATOM      7  N   UNL     1       5.064   3.693  -0.223  0.00  0.00    -0.220 NA
ATOM      8  C   UNL     1       5.929   2.696  -0.289  0.00  0.00    +0.224 A 
ATOM      9  N   UNL     1       5.605   1.481  -0.647  0.00  0.00    -0.235 NA
ENDROOT
BRANCH   6  10
ATOM     10  N   UNL     1       2.862   4.522  -0.466  0.00  0.00    -0.311 N 
ATOM     11  C   UNL     1       2.172   4.692  -1.752  0.00  0.00    +0.125 C 
ATOM     12  C   UNL     1       1.043   5.716  -1.589  0.00  0.00    +0.128 C 
ATOM     13  N   UNL     1       1.608   6.948  -1.018  0.00  0.00    -0.282 N 
ATOM     14  C   UNL     1       2.429   6.839   0.197  0.00  0.00    +0.128 C 
ATOM     15  C   UNL     1       3.503   5.771  -0.035  0.00  0.00    +0.125 C 
ATOM     16  C   UNL     1       1.379   8.145  -1.593  0.00  0.00    +0.305 C 
ATOM     17  O   UNL     1       1.989   9.127  -1.217  0.00  0.00    -0.252 OA
ATOM     18  N   UNL     1       0.472   8.254  -2.585  0.00  0.00    -0.281 N 
ATOM     19  C   UNL     1      -0.567   7.230  -2.777  0.00  0.00    +0.137 C 
ATOM     20  C   UNL     1      -1.927   7.941  -2.873  0.00  0.00    +0.179 C 
ATOM     21  O   UNL     1      -1.852   8.964  -3.869  0.00  0.00    -0.377 OA
ATOM     22  C   UNL     1      -0.911   9.999  -3.575  0.00  0.00    +0.179 C 
ATOM     23  C   UNL     1       0.497   9.397  -3.511  0.00  0.00    +0.137 C 
ENDBRANCH   6  10
BRANCH   1  29
ATOM     24  C   UNL     1       2.411  -2.613  -2.287  0.00  0.00    +0.010 A 
ATOM     25  C   UNL     1       1.711  -3.731  -2.692  0.00  0.00    +0.020 A 
ATOM     26  C   UNL     1       0.352  -3.646  -2.945  0.00  0.00    +0.041 A 
ATOM     27  C   UNL     1      -0.313  -2.441  -2.788  0.00  0.00    +0.020 A 
ATOM     28  C   UNL     1       0.376  -1.319  -2.378  0.00  0.00    +0.010 A 
ATOM     29  C   UNL     1       1.745  -1.398  -2.121  0.00  0.00    -0.011 A 
ATOM     30 CL   UNL     1      -0.521  -5.054  -3.462  0.00  0.00    -0.084 Cl
ENDBRANCH   1  29
TORSDOF 2
