REMARK  Name = ZINC20532252
REMARK  7 active torsions:
REMARK  status: ('A' for Active; 'I' for Inactive)
REMARK    1  A    between atoms: C_1  and  C_2
REMARK    2  A    between atoms: C_2  and  N_3
REMARK    3  A    between atoms: C_9  and  N_28
REMARK    4  A    between atoms: C_10  and  C_11
REMARK    5  A    between atoms: C_11  and  C_13
REMARK    6  A    between atoms: C_11  and  N_14
REMARK    7  A    between atoms: N_17  and  C_18
REMARK                            x       y       z     vdW  Elec       q    Type
REMARK                         _______ _______ _______ _____ _____    ______ ____
ROOT
ATOM      1  C   UNL     1       0.988   1.538  -0.417  0.00  0.00    +0.104 C 
ATOM      2  C   UNL     1       1.008   2.067   1.019  0.00  0.00    +0.033 C 
ENDROOT
BRANCH   1  10
ATOM      3  N   UNL     1       5.196   2.000  -3.379  0.00  0.00    +0.383 N 
ATOM      4  C   UNL     1       4.567   3.067  -2.588  0.00  0.00    -0.074 C 
ATOM      5  C   UNL     1       3.155   2.651  -2.167  0.00  0.00    +0.018 C 
ATOM      6  C   UNL     1       3.240   1.279  -1.501  0.00  0.00    -0.034 A 
ATOM      7  C   UNL     1       4.349   0.511  -1.690  0.00  0.00    -0.021 A 
ATOM      8  S   UNL     1       4.021  -0.948  -0.742  0.00  0.00    -0.077 S 
ATOM      9  C   UNL     1       2.413  -0.476  -0.122  0.00  0.00    +0.090 A 
ATOM     10  C   UNL     1       2.246   0.752  -0.680  0.00  0.00    +0.007 A 
ATOM     11  C   UNL     1       5.544   0.852  -2.519  0.00  0.00    -0.035 C 
ATOM     12  H   UNL     1       4.471   1.662  -4.133  0.00  0.00    -0.081 HD
BRANCH   9  13
ATOM     13  N   UNL     1       1.549  -1.187   0.721  0.00  0.00    -0.317 N 
ATOM     14  C   UNL     1       0.397  -0.703   1.270  0.00  0.00    +0.092 A 
ATOM     15  C   UNL     1      -0.157  -1.681   2.016  0.00  0.00    +0.019 A 
ATOM     16  C   UNL     1       0.687  -2.806   1.933  0.00  0.00    +0.019 A 
ATOM     17  C   UNL     1       1.723  -2.476   1.134  0.00  0.00    +0.092 A 
ENDBRANCH   9  13
BRANCH   3  19
ATOM     18  C   UNL     1       7.371   3.086  -3.085  0.00  0.00    -0.017 C 
ATOM     19  C   UNL     1       6.379   2.500  -4.092  0.00  0.00    -0.082 C 
ENDBRANCH   3  19
ENDBRANCH   1  10
BRANCH   1  20
ATOM     20  N   UNL     1      -0.178   0.670  -0.601  0.00  0.00    -0.293 N 
ATOM     21  C   UNL     1      -1.411   1.207  -0.689  0.00  0.00    +0.300 C 
ATOM     22  O   UNL     1      -1.557   2.411  -0.610  0.00  0.00    -0.253 OA
ATOM     23  N   UNL     1      -2.483   0.408  -0.864  0.00  0.00    -0.294 N 
ATOM     24  H   UNL     1      -0.047  -0.420  -0.668  0.00  0.00    +0.151 HD
ATOM     25  H   UNL     1      -2.351  -0.681  -0.935  0.00  0.00    +0.151 HD
BRANCH  23  26
ATOM     26  C   UNL     1      -3.823   0.992  -0.959  0.00  0.00    +0.037 C 
ATOM     27  C   UNL     1      -4.139   1.757   0.327  0.00  0.00    +0.029 C 
ATOM     28  C   UNL     1      -5.539   2.367   0.228  0.00  0.00    -0.008 C 
ATOM     29  C   UNL     1      -6.568   1.251   0.033  0.00  0.00    +0.007 C 
ATOM     30  C   UNL     1      -6.252   0.486  -1.254  0.00  0.00    -0.008 C 
ATOM     31  C   UNL     1      -4.852  -0.124  -1.154  0.00  0.00    +0.029 C 
ATOM     32  C   UNL     1      -6.307   1.445  -2.445  0.00  0.00    +0.007 C 
ATOM     33  C   UNL     1      -5.278   2.560  -2.250  0.00  0.00    -0.008 C 
ATOM     34  C   UNL     1      -5.594   3.326  -0.963  0.00  0.00    +0.007 C 
ATOM     35  C   UNL     1      -3.878   1.951  -2.150  0.00  0.00    +0.029 C 
ENDBRANCH  23  26
ENDBRANCH   1  20
TORSDOF 5
