REMARK  Name = ZINC34835779
REMARK  15 active torsions:
REMARK  status: ('A' for Active; 'I' for Inactive)
REMARK    1  A    between atoms: C_1  and  C_2
REMARK    2  A    between atoms: C_2  and  C_3
REMARK    3  A    between atoms: C_3  and  N_4
REMARK    4  A    between atoms: N_4  and  C_5
REMARK    5  A    between atoms: C_5  and  C_6
REMARK    6  A    between atoms: C_7  and  C_27
REMARK    7  A    between atoms: N_9  and  C_20
REMARK    8  A    between atoms: C_10  and  N_11
REMARK    9  A    between atoms: N_14  and  C_17
REMARK   10  A    between atoms: C_17  and  C_18
REMARK   11  A    between atoms: C_17  and  C_19
REMARK   12  A    between atoms: C_27  and  C_28
REMARK   13  A    between atoms: N_31  and  C_32
REMARK   14  A    between atoms: C_35  and  C_38
REMARK   15  A    between atoms: C_38  and  C_39
REMARK                            x       y       z     vdW  Elec       q    Type
REMARK                         _______ _______ _______ _____ _____    ______ ____
ROOT
ATOM      1  C   UNL     1       0.530  -3.406  -4.116  0.00  0.00    +0.033 A 
ATOM      2  C   UNL     1       0.906  -2.588  -5.184  0.00  0.00    +0.070 A 
ATOM      3  N   UNL     1       1.733  -3.256  -5.947  0.00  0.00    -0.169 NA
ATOM      4  N   UNL     1       1.916  -4.530  -5.393  0.00  0.00    -0.218 N 
ATOM      5  C   UNL     1       1.168  -4.601  -4.259  0.00  0.00    +0.130 A 
ENDROOT
BRANCH   5   6
ATOM      6  N   UNL     1       1.071  -5.694  -3.404  0.00  0.00    -0.318 N 
ATOM      7  C   UNL     1       0.654  -7.013  -3.906  0.00  0.00    +0.088 C 
ATOM      8  C   UNL     1       1.668  -8.057  -3.428  0.00  0.00    -0.059 C 
ATOM      9  N   UNL     1       1.799  -7.979  -1.968  0.00  0.00    +0.383 N 
ATOM     10  C   UNL     1       2.362  -6.678  -1.585  0.00  0.00    -0.059 C 
ATOM     11  C   UNL     1       1.388  -5.566  -1.973  0.00  0.00    +0.088 C 
ATOM     12  H   UNL     1       0.890  -8.089  -1.544  0.00  0.00    -0.081 HD
BRANCH   9  13
ATOM     13  C   UNL     1       2.686  -9.052  -1.499  0.00  0.00    -0.075 C 
ATOM     14  C   UNL     1       2.824  -8.972   0.023  0.00  0.00    -0.014 C 
ATOM     15  C   UNL     1       2.095 -10.409  -1.887  0.00  0.00    -0.014 C 
ENDBRANCH   9  13
ENDBRANCH   5   6
BRANCH   4  16
ATOM     16  C   UNL     1       2.729  -5.548  -5.912  0.00  0.00    +0.068 A 
ATOM     17  C   UNL     1       3.536  -6.293  -5.063  0.00  0.00    +0.030 A 
ATOM     18  C   UNL     1       4.336  -7.295  -5.576  0.00  0.00    +0.040 A 
ATOM     19  C   UNL     1       4.334  -7.557  -6.936  0.00  0.00    +0.124 A 
ATOM     20  C   UNL     1       3.530  -6.814  -7.784  0.00  0.00    +0.040 A 
ATOM     21  C   UNL     1       2.724  -5.815  -7.274  0.00  0.00    +0.030 A 
ATOM     22  F   UNL     1       5.118  -8.537  -7.436  0.00  0.00    -0.205 F 
ENDBRANCH   4  16
BRANCH   2  23
ATOM     23  C   UNL     1       0.439  -1.175  -5.419  0.00  0.00    +0.054 C 
ATOM     24  C   UNL     1       1.470  -0.196  -4.854  0.00  0.00    +0.010 C 
ENDBRANCH   2  23
BRANCH   1  25
ATOM     25  C   UNL     1      -0.411  -3.031  -2.999  0.00  0.00    +0.149 C 
BRANCH  25  26
ATOM     26  N   UNL     1      -1.744  -3.569  -3.283  0.00  0.00    -0.281 N 
ATOM     27  C   UNL     1      -2.671  -2.792  -3.877  0.00  0.00    +0.307 C 
ATOM     28  O   UNL     1      -2.380  -1.670  -4.243  0.00  0.00    -0.252 OA
ATOM     29  N   UNL     1      -3.921  -3.260  -4.066  0.00  0.00    -0.269 N 
ATOM     30  H   UNL     1      -4.172  -4.128  -3.715  0.00  0.00    +0.156 HD
BRANCH  29  31
ATOM     31  C   UNL     1      -4.857  -2.491  -4.767  0.00  0.00    +0.035 A 
ATOM     32  C   UNL     1      -5.770  -3.108  -5.612  0.00  0.00    +0.023 A 
ATOM     33  C   UNL     1      -6.693  -2.347  -6.303  0.00  0.00    +0.005 A 
ATOM     34  C   UNL     1      -6.708  -0.973  -6.154  0.00  0.00    -0.048 A 
ATOM     35  C   UNL     1      -5.799  -0.355  -5.314  0.00  0.00    +0.005 A 
ATOM     36  C   UNL     1      -4.878  -1.111  -4.616  0.00  0.00    +0.023 A 
BRANCH  34  37
ATOM     37  C   UNL     1      -7.716  -0.145  -6.909  0.00  0.00    +0.032 C 
ATOM     38  C   UNL     1      -8.985   0.006  -6.068  0.00  0.00    +0.009 C 
ENDBRANCH  34  37
ENDBRANCH  29  31
BRANCH  26  39
ATOM     39  C   UNL     1      -2.069  -4.950  -2.920  0.00  0.00    +0.109 C 
BRANCH  39  41
ATOM     40  C   UNL     1      -2.908  -6.437  -1.096  0.00  0.00    +0.005 C 
ATOM     41  C   UNL     1      -2.568  -4.994  -1.474  0.00  0.00    +0.016 C 
ENDBRANCH  39  41
ENDBRANCH  26  39
ENDBRANCH  25  26
ENDBRANCH   1  25
TORSDOF 10
