REMARK  Name = ZINC01406239
REMARK  6 active torsions:
REMARK  status: ('A' for Active; 'I' for Inactive)
REMARK    1  A    between atoms: C_4  and  C_8
REMARK    2  A    between atoms: C_8  and  C_9
REMARK    3  A    between atoms: N_14  and  C_17
REMARK    4  A    between atoms: C_17  and  C_18
REMARK    5  A    between atoms: C_21  and  S_24
REMARK    6  A    between atoms: S_24  and  N_27
REMARK                            x       y       z     vdW  Elec       q    Type
REMARK                         _______ _______ _______ _____ _____    ______ ____
ROOT
ATOM      1  C   UNL     1      -1.236   1.919   0.018  0.00  0.00    +0.068 A 
ATOM      2  C   UNL     1      -0.015   1.219   0.009  0.00  0.00    +0.189 A 
ATOM      3  O   UNL     1       0.002  -0.004   0.007  0.00  0.00    -0.287 OA
ATOM      4  C   UNL     1       1.195   1.957   0.001  0.00  0.00    +0.069 A 
ATOM      5  C   UNL     1       1.149   3.305  -0.002  0.00  0.00    +0.093 A 
ATOM      6  N   UNL     1      -0.042   3.959   0.012  0.00  0.00    -0.310 N 
ATOM      7  C   UNL     1      -1.221   3.281   0.025  0.00  0.00    +0.259 A 
ATOM      8  O   UNL     1      -2.388   3.965   0.040  0.00  0.00    -0.267 OA
ENDROOT
BRANCH   1   9
ATOM      9  C   UNL     1      -2.544   1.171   0.020  0.00  0.00    +0.084 C 
BRANCH   9  13
ATOM     10  C   UNL     1      -3.763   0.441   4.051  0.00  0.00    +0.004 A 
ATOM     11  C   UNL     1      -4.160   1.599   3.409  0.00  0.00    +0.039 A 
ATOM     12  C   UNL     1      -3.766   1.837   2.104  0.00  0.00    +0.128 A 
ATOM     13  C   UNL     1      -2.973   0.914   1.442  0.00  0.00    +0.011 A 
ATOM     14  C   UNL     1      -2.581  -0.246   2.084  0.00  0.00    +0.047 A 
ATOM     15  C   UNL     1      -2.971  -0.479   3.391  0.00  0.00    +0.020 A 
ATOM     16 CL   UNL     1      -1.593  -1.407   1.253  0.00  0.00    -0.083 Cl
ATOM     17  F   UNL     1      -4.155   2.968   1.475  0.00  0.00    -0.205 F 
ENDBRANCH   9  13
ENDBRANCH   1   9
BRANCH   6  18
ATOM     18  C   UNL     1      -0.057   5.424   0.014  0.00  0.00    +0.160 C 
BRANCH  18  19
ATOM     19  C   UNL     1      -0.169   5.924   1.431  0.00  0.00    -0.028 A 
ATOM     20  C   UNL     1      -1.414   6.147   1.989  0.00  0.00    +0.007 A 
ATOM     21  C   UNL     1      -1.517   6.601   3.291  0.00  0.00    +0.029 A 
ATOM     22  C   UNL     1      -0.375   6.840   4.032  0.00  0.00    +0.105 A 
ATOM     23  C   UNL     1       0.870   6.622   3.472  0.00  0.00    +0.029 A 
ATOM     24  C   UNL     1       0.973   6.164   2.172  0.00  0.00    +0.007 A 
BRANCH  22  25
ATOM     25  S   UNL     1      -0.506   7.423   5.689  0.00  0.00    +0.056 S 
ATOM     26  O   UNL     1      -1.787   7.027   6.159  0.00  0.00    -0.153 OA
ATOM     27  O   UNL     1       0.696   7.049   6.348  0.00  0.00    -0.153 OA
BRANCH  25  28
ATOM     28  N   UNL     1      -0.516   9.078   5.627  0.00  0.00    -0.204 NA
ATOM     29  H   UNL     1      -0.597   9.483   6.646  0.00  0.00    +0.144 HD
ATOM     30  H   UNL     1      -1.374   9.417   5.028  0.00  0.00    +0.144 HD
ENDBRANCH  25  28
ENDBRANCH  22  25
ENDBRANCH  18  19
ENDBRANCH   6  18
TORSDOF 6
