REMARK  Name = ZINC22798795
REMARK  9 active torsions:
REMARK  status: ('A' for Active; 'I' for Inactive)
REMARK    1  A    between atoms: C_1  and  C_2
REMARK    2  A    between atoms: C_2  and  C_4
REMARK    3  A    between atoms: C_2  and  N_18
REMARK    4  A    between atoms: N_6  and  C_7
REMARK    5  A    between atoms: C_8  and  C_15
REMARK    6  A    between atoms: N_21  and  C_24
REMARK    7  A    between atoms: C_24  and  C_25
REMARK    8  A    between atoms: C_25  and  O_26
REMARK    9  A    between atoms: O_26  and  C_27
REMARK                            x       y       z     vdW  Elec       q    Type
REMARK                         _______ _______ _______ _____ _____    ______ ____
ROOT
ATOM      1  C   UNL     1      -1.963   0.677  -4.998  0.00  0.00    -0.004 C 
ATOM      2  C   UNL     1      -2.022   2.177  -4.700  0.00  0.00    +0.017 C 
ENDROOT
BRANCH   2   3
ATOM      3  N   UNL     1      -2.956   2.824  -5.631  0.00  0.00    +0.389 N 
ATOM      4  C   UNL     1      -4.350   2.550  -5.254  0.00  0.00    -0.062 C 
ATOM      5  C   UNL     1      -5.288   3.305  -6.198  0.00  0.00    +0.066 C 
ATOM      6  N   UNL     1      -5.028   2.886  -7.582  0.00  0.00    -0.303 NA
ATOM      7  C   UNL     1      -3.634   3.160  -7.959  0.00  0.00    +0.066 C 
ATOM      8  C   UNL     1      -2.695   2.405  -7.015  0.00  0.00    -0.062 C 
ATOM      9  H   UNL     1      -2.795   3.910  -5.569  0.00  0.00    -0.081 HD
BRANCH   6  10
ATOM     10  C   UNL     1      -5.962   3.533  -8.513  0.00  0.00    +0.125 C 
BRANCH  10  11
ATOM     11  C   UNL     1      -6.013   5.035  -8.223  0.00  0.00    +0.244 C 
BRANCH  11  12
ATOM     12  O   UNL     1      -4.740   5.619  -8.510  0.00  0.00    -0.489 OA
BRANCH  12  13
ATOM     13  C   UNL     1      -4.615   6.956  -8.304  0.00  0.00    +0.139 A 
ATOM     14  C   UNL     1      -5.695   7.692  -7.841  0.00  0.00    +0.047 A 
ATOM     15  C   UNL     1      -5.563   9.051  -7.627  0.00  0.00    +0.004 A 
ATOM     16  C   UNL     1      -4.359   9.679  -7.885  0.00  0.00    +0.002 A 
ATOM     17  C   UNL     1      -3.281   8.950  -8.352  0.00  0.00    +0.023 A 
ATOM     18  C   UNL     1      -3.406   7.589  -8.562  0.00  0.00    +0.083 A 
ATOM     19 CL   UNL     1      -2.054   6.673  -9.149  0.00  0.00    -0.080 Cl
ENDBRANCH  12  13
ENDBRANCH  11  12
ENDBRANCH  10  11
ENDBRANCH   6  10
ENDBRANCH   2   3
BRANCH   2  20
ATOM     20  C   UNL     1      -0.649   2.776  -4.868  0.00  0.00    +0.204 C 
ATOM     21  O   UNL     1      -0.403   3.467  -5.834  0.00  0.00    -0.277 OA
ATOM     22  N   UNL     1       0.304   2.545  -3.944  0.00  0.00    -0.281 N 
ATOM     23  H   UNL     1       0.081   1.919  -3.067  0.00  0.00    +0.155 HD
BRANCH  22  24
ATOM     24  C   UNL     1       1.567   3.097  -4.098  0.00  0.00    +0.084 A 
ATOM     25  C   UNL     1       2.666   2.975  -3.265  0.00  0.00    +0.068 A 
ATOM     26  C   UNL     1       3.896   3.659  -3.663  0.00  0.00    -0.023 A 
ATOM     27  C   UNL     1       3.819   4.348  -4.816  0.00  0.00    -0.004 A 
ATOM     28  S   UNL     1       2.151   4.106  -5.376  0.00  0.00    -0.077 S 
ATOM     29  C   UNL     1       5.121   5.019  -5.160  0.00  0.00    +0.043 C 
ATOM     30  C   UNL     1       6.171   4.307  -4.279  0.00  0.00    +0.010 C 
ATOM     31  C   UNL     1       5.309   3.815  -3.099  0.00  0.00    +0.037 C 
BRANCH  25  32
ATOM     32  C   UNL     1       2.602   2.184  -2.032  0.00  0.00    +0.244 C 
ATOM     33  O   UNL     1       2.271   2.713  -0.987  0.00  0.00    -0.270 OA
ATOM     34  N   UNL     1       2.903   0.871  -2.058  0.00  0.00    -0.325 N 
ATOM     35  H   UNL     1       2.855   0.278  -1.133  0.00  0.00    +0.145 HD
ATOM     36  H   UNL     1       3.197   0.393  -3.003  0.00  0.00    +0.145 HD
ENDBRANCH  25  32
ENDBRANCH  22  24
ENDBRANCH   2  20
TORSDOF 8
