REMARK  Name = ZINC35427192
REMARK  6 active torsions:
REMARK  status: ('A' for Active; 'I' for Inactive)
REMARK    1  A    between atoms: C_1  and  N_2
REMARK    2  A    between atoms: C_16  and  C_31
REMARK    3  A    between atoms: N_22  and  C_23
REMARK    4  A    between atoms: C_23  and  C_24
REMARK    5  A    between atoms: C_34  and  O_37
REMARK    6  A    between atoms: O_37  and  C_38
REMARK                            x       y       z     vdW  Elec       q    Type
REMARK                         _______ _______ _______ _____ _____    ______ ____
ROOT
ATOM      1  C   UNL     1      -0.389   1.339  -1.700  0.00  0.00    -0.096 C 
ATOM      2  N   UNL     1      -0.312  -0.099  -1.410  0.00  0.00    +0.381 N 
ATOM      3  C   UNL     1      -1.646  -0.698  -1.548  0.00  0.00    -0.074 C 
ATOM      4  C   UNL     1      -1.545  -2.225  -1.565  0.00  0.00    +0.018 C 
ATOM      5  C   UNL     1      -0.748  -2.659  -0.337  0.00  0.00    -0.034 A 
ATOM      6  C   UNL     1      -0.759  -3.976   0.159  0.00  0.00    +0.004 A 
ATOM      7  C   UNL     1       0.007  -4.222   1.257  0.00  0.00    +0.090 A 
ATOM      8  S   UNL     1       0.736  -2.660   1.649  0.00  0.00    -0.077 S 
ATOM      9  C   UNL     1       0.010  -1.739   0.320  0.00  0.00    -0.021 A 
ATOM     10  C   UNL     1       0.173  -0.297  -0.030  0.00  0.00    -0.036 C 
ATOM     11  N   UNL     1       0.135  -5.470   1.854  0.00  0.00    -0.312 N 
ATOM     12  C   UNL     1       0.091  -5.850   3.152  0.00  0.00    +0.092 A 
ATOM     13  C   UNL     1       0.201  -7.198   3.197  0.00  0.00    +0.020 A 
ATOM     14  C   UNL     1       0.337  -7.658   1.869  0.00  0.00    +0.025 A 
ATOM     15  C   UNL     1       0.319  -6.583   1.067  0.00  0.00    +0.049 A 
ATOM     16  C   UNL     1       0.504  -6.499  -0.418  0.00  0.00    +0.155 C 
ATOM     17  N   UNL     1      -0.750  -6.115  -1.110  0.00  0.00    -0.269 N 
ATOM     18  C   UNL     1      -1.580  -5.086  -0.458  0.00  0.00    +0.148 C 
ATOM     19  C   UNL     1      -1.114  -6.679  -2.279  0.00  0.00    +0.304 C 
ATOM     20  O   UNL     1      -0.407  -7.525  -2.791  0.00  0.00    -0.253 OA
ATOM     21  N   UNL     1      -2.261  -6.306  -2.879  0.00  0.00    -0.295 N 
ATOM     22  H   UNL     1      -2.825  -5.630  -2.470  0.00  0.00    +0.151 HD
ATOM     23  H   UNL     1       0.324  -0.540  -2.057  0.00  0.00    -0.082 HD
ENDROOT
BRANCH  16  24
ATOM     24  C   UNL     1       1.565  -5.473  -0.724  0.00  0.00    -0.021 A 
ATOM     25  C   UNL     1       2.657  -5.340   0.114  0.00  0.00    +0.009 A 
ATOM     26  C   UNL     1       3.631  -4.400  -0.163  0.00  0.00    +0.046 A 
ATOM     27  C   UNL     1       3.512  -3.590  -1.284  0.00  0.00    +0.120 A 
ATOM     28  C   UNL     1       2.416  -3.726  -2.122  0.00  0.00    +0.046 A 
ATOM     29  C   UNL     1       1.447  -4.671  -1.843  0.00  0.00    +0.009 A 
BRANCH  27  30
ATOM     30  O   UNL     1       4.469  -2.664  -1.558  0.00  0.00    -0.495 OA
ATOM     31  C   UNL     1       4.281  -1.865  -2.728  0.00  0.00    +0.277 C 
ENDBRANCH  27  30
ENDBRANCH  16  24
BRANCH  21  32
ATOM     32  C   UNL     1      -2.656  -6.919  -4.150  0.00  0.00    +0.141 C 
BRANCH  32  33
ATOM     33  C   UNL     1      -3.967  -6.331  -4.605  0.00  0.00    -0.030 A 
ATOM     34  C   UNL     1      -5.158  -6.912  -4.213  0.00  0.00    +0.008 A 
ATOM     35  C   UNL     1      -6.361  -6.374  -4.630  0.00  0.00    +0.038 A 
ATOM     36  C   UNL     1      -6.372  -5.251  -5.440  0.00  0.00    +0.123 A 
ATOM     37  C   UNL     1      -5.178  -4.670  -5.832  0.00  0.00    +0.038 A 
ATOM     38  C   UNL     1      -3.977  -5.207  -5.410  0.00  0.00    +0.008 A 
ATOM     39  F   UNL     1      -7.547  -4.724  -5.849  0.00  0.00    -0.205 F 
ENDBRANCH  32  33
ENDBRANCH  21  32
TORSDOF 4
