REMARK  Name = ZINC20863149
REMARK  3 active torsions:
REMARK  status: ('A' for Active; 'I' for Inactive)
REMARK    1  A    between atoms: C_3  and  C_8
REMARK    2  A    between atoms: C_10  and  C_13
REMARK    3  A    between atoms: C_22  and  C_25
REMARK                            x       y       z     vdW  Elec       q    Type
REMARK                         _______ _______ _______ _____ _____    ______ ____
ROOT
ATOM      1  C   UNL     1       0.065  -2.725  -0.013  0.00  0.00    +0.055 A 
ATOM      2  C   UNL     1      -1.178  -2.076   0.002  0.00  0.00    +0.018 A 
ATOM      3  C   UNL     1      -1.201  -0.708   0.010  0.00  0.00    +0.042 A 
ATOM      4  C   UNL     1       0.002  -0.004   0.002  0.00  0.00    +0.099 A 
ATOM      5  N   UNL     1       1.164  -0.642  -0.018  0.00  0.00    -0.349 N 
ATOM      6  C   UNL     1       1.230  -1.958  -0.020  0.00  0.00    +0.097 A 
ATOM      7  N   UNL     1      -0.017   1.382   0.010  0.00  0.00    -0.317 N 
ATOM      8  C   UNL     1      -0.805   1.904  -1.114  0.00  0.00    +0.107 C 
ATOM      9  C   UNL     1      -0.926   3.425  -0.992  0.00  0.00    +0.031 C 
ATOM     10  C   UNL     1       0.475   4.045  -0.995  0.00  0.00    +0.078 C 
ATOM     11  C   UNL     1       1.291   3.449   0.155  0.00  0.00    +0.031 C 
ATOM     12  C   UNL     1       1.347   1.927  -0.001  0.00  0.00    +0.107 C 
ATOM     13  H   UNL     1       2.104  -0.071  -0.033  0.00  0.00    +0.167 HD
ENDROOT
BRANCH   1  16
ATOM     14  C   UNL     1       0.819  -6.214  -0.039  0.00  0.00    +0.202 A 
ATOM     15  N   UNL     1       1.240  -4.932  -0.041  0.00  0.00    -0.187 NA
ATOM     16  C   UNL     1       0.141  -4.200  -0.021  0.00  0.00    +0.260 A 
ATOM     17  O   UNL     1      -0.895  -5.054  -0.016  0.00  0.00    -0.332 OA
ATOM     18  N   UNL     1      -0.489  -6.196  -0.026  0.00  0.00    -0.056 NA
BRANCH  14  21
ATOM     19  C   UNL     1       1.914  -9.811  -0.069  0.00  0.00    +0.002 A 
ATOM     20  C   UNL     1       1.108  -8.691  -0.055  0.00  0.00    +0.012 A 
ATOM     21  C   UNL     1       1.682  -7.422  -0.054  0.00  0.00    +0.024 A 
ATOM     22  C   UNL     1       3.069  -7.290  -0.073  0.00  0.00    +0.031 A 
ATOM     23  C   UNL     1       3.867  -8.417  -0.082  0.00  0.00    +0.042 A 
ATOM     24  C   UNL     1       3.290  -9.676  -0.083  0.00  0.00    +0.020 A 
ATOM     25 CL   UNL     1       5.595  -8.256  -0.099  0.00  0.00    -0.084 Cl
ENDBRANCH  14  21
ENDBRANCH   1  16
BRANCH  10  26
ATOM     26  C   UNL     1       0.367   5.537  -0.816  0.00  0.00    +0.214 C 
ATOM     27  O   UNL     1       0.891   6.072   0.138  0.00  0.00    -0.276 OA
ATOM     28  N   UNL     1      -0.312   6.276  -1.715  0.00  0.00    -0.329 N 
ATOM     29  H   UNL     1      -0.391   7.366  -1.584  0.00  0.00    +0.145 HD
ATOM     30  H   UNL     1      -0.787   5.791  -2.580  0.00  0.00    +0.145 HD
ENDBRANCH  10  26
TORSDOF 3
