REMARK  Name = ZINC13251895
REMARK  8 active torsions:
REMARK  status: ('A' for Active; 'I' for Inactive)
REMARK    1  A    between atoms: C_4  and  C_7
REMARK    2  A    between atoms: C_7  and  C_9
REMARK    3  A    between atoms: C_7  and  C_31
REMARK    4  A    between atoms: C_9  and  C_10
REMARK    5  A    between atoms: N_12  and  C_13
REMARK    6  A    between atoms: C_17  and  S_19
REMARK    7  A    between atoms: S_19  and  N_22
REMARK    8  A    between atoms: N_22  and  C_23
REMARK                            x       y       z     vdW  Elec       q    Type
REMARK                         _______ _______ _______ _____ _____    ______ ____
ROOT
ATOM      1  C   UNL     1      -2.825  -1.566   2.980  0.00  0.00    +0.035 A 
ATOM      2  C   UNL     1      -1.920  -1.303   4.000  0.00  0.00    +0.025 A 
ATOM      3  C   UNL     1      -2.054  -1.935   5.221  0.00  0.00    +0.024 A 
ATOM      4  C   UNL     1      -3.083  -2.838   5.425  0.00  0.00    +0.068 A 
ATOM      5  C   UNL     1      -3.983  -3.106   4.409  0.00  0.00    +0.130 A 
ATOM      6  C   UNL     1      -3.857  -2.473   3.187  0.00  0.00    +0.053 A 
ATOM      7 CL   UNL     1      -3.245  -3.636   6.958  0.00  0.00    -0.082 Cl
ENDROOT
BRANCH   1  10
ATOM      8  C   UNL     1      -3.794  -0.580   1.043  0.00  0.00    +0.218 C 
ATOM      9  O   UNL     1      -4.893  -0.903   1.443  0.00  0.00    -0.275 OA
ATOM     10  N   UNL     1      -2.695  -0.923   1.744  0.00  0.00    -0.285 N 
ATOM     11  H   UNL     1      -1.695  -0.698   1.344  0.00  0.00    +0.155 HD
BRANCH   8  12
ATOM     12  C   UNL     1      -3.657   0.204  -0.236  0.00  0.00    +0.115 C 
BRANCH  12  13
ATOM     13  C   UNL     1      -5.045   0.461  -0.828  0.00  0.00    +0.141 C 
BRANCH  13  17
ATOM     14  C   UNL     1      -4.643   2.378  -4.624  0.00  0.00    +0.000 A 
ATOM     15  C   UNL     1      -5.276   1.153  -4.532  0.00  0.00    +0.000 A 
ATOM     16  C   UNL     1      -5.406   0.532  -3.303  0.00  0.00    +0.004 A 
ATOM     17  C   UNL     1      -4.903   1.137  -2.167  0.00  0.00    -0.033 A 
ATOM     18  C   UNL     1      -4.274   2.365  -2.258  0.00  0.00    +0.004 A 
ATOM     19  C   UNL     1      -4.140   2.983  -3.487  0.00  0.00    +0.000 A 
ENDBRANCH  13  17
BRANCH  13  20
ATOM     20  C   UNL     1      -5.832   1.348   0.102  0.00  0.00    +0.364 C 
ATOM     21  O   UNL     1      -5.334   1.736   1.133  0.00  0.00    -0.246 OA
ATOM     22  O   UNL     1      -7.084   1.712  -0.217  0.00  0.00    -0.246 OA
ENDBRANCH  13  20
ENDBRANCH  12  13
ENDBRANCH   8  12
ENDBRANCH   1  10
BRANCH   5  23
ATOM     23  S   UNL     1      -5.292  -4.256   4.672  0.00  0.00    +0.093 S 
ATOM     24  O   UNL     1      -5.931  -3.873   5.882  0.00  0.00    -0.148 OA
ATOM     25  O   UNL     1      -5.992  -4.363   3.441  0.00  0.00    -0.148 OA
BRANCH  23  26
ATOM     26  N   UNL     1      -4.597  -5.733   4.952  0.00  0.00    -0.096 NA
BRANCH  26  27
ATOM     27  C   UNL     1      -3.915  -6.390   3.924  0.00  0.00    +0.093 A 
ATOM     28  C   UNL     1      -3.238  -5.657   2.958  0.00  0.00    +0.028 A 
ATOM     29  C   UNL     1      -2.561  -6.309   1.946  0.00  0.00    +0.002 A 
ATOM     30  C   UNL     1      -2.565  -7.691   1.888  0.00  0.00    +0.002 A 
ATOM     31  C   UNL     1      -3.241  -8.425   2.845  0.00  0.00    +0.022 A 
ATOM     32  C   UNL     1      -3.917  -7.779   3.863  0.00  0.00    +0.065 A 
ATOM     33 CL   UNL     1      -4.767  -8.700   5.064  0.00  0.00    -0.082 Cl
ENDBRANCH  26  27
ENDBRANCH  23  26
ENDBRANCH   5  23
TORSDOF 8
