REMARK  Name = ZINC00675253
REMARK  6 active torsions:
REMARK  status: ('A' for Active; 'I' for Inactive)
REMARK    1  A    between atoms: C_1  and  S_2
REMARK    2  A    between atoms: S_2  and  C_3
REMARK    3  A    between atoms: C_8  and  N_9
REMARK    4  A    between atoms: C_10  and  C_12
REMARK    5  A    between atoms: C_17  and  C_29
REMARK    6  A    between atoms: C_20  and  C_23
REMARK                            x       y       z     vdW  Elec       q    Type
REMARK                         _______ _______ _______ _____ _____    ______ ____
ROOT
ATOM      1  C   UNL     1      -0.017   1.472   0.028  0.00  0.00    +0.163 A 
ATOM      2  C   UNL     1       1.115   2.316   0.029  0.00  0.00    +0.089 A 
ATOM      3  C   UNL     1       0.675   3.597   0.050  0.00  0.00    +0.133 A 
ATOM      4  N   UNL     1      -0.688   3.567   0.062  0.00  0.00    -0.237 N 
ATOM      5  N   UNL     1      -1.097   2.233   0.042  0.00  0.00    -0.163 NA
ATOM      6  C   UNL     1      -1.537   4.764   0.087  0.00  0.00    +0.215 C 
ATOM      7  C   UNL     1      -0.655   5.957   0.482  0.00  0.00    +0.066 C 
ATOM      8  C   UNL     1       0.634   5.918  -0.345  0.00  0.00    +0.140 C 
ATOM      9  N   UNL     1       1.444   4.759   0.058  0.00  0.00    -0.318 N 
ATOM     10 BR   UNL     1       2.922   1.758   0.006  0.00  0.00    -0.044 Br
ATOM     11  H   UNL     1       1.864   4.908   0.963  0.00  0.00    +0.148 HD
ENDROOT
BRANCH   8  12
ATOM     12  C   UNL     1       1.418   7.183  -0.111  0.00  0.00    +0.127 A 
ATOM     13  C   UNL     1       1.454   8.249  -0.930  0.00  0.00    +0.048 A 
ATOM     14  C   UNL     1       2.304   9.203  -0.325  0.00  0.00    +0.057 A 
ATOM     15  C   UNL     1       2.745   8.659   0.825  0.00  0.00    +0.170 A 
ATOM     16  O   UNL     1       2.204   7.436   0.949  0.00  0.00    -0.451 OA
ATOM     17 BR   UNL     1       3.924   9.477   2.056  0.00  0.00    -0.008 Br
ENDBRANCH   8  12
BRANCH   1  19
ATOM     18  N   UNL     1      -1.156  -0.694   0.009  0.00  0.00    -0.279 N 
ATOM     19  C   UNL     1       0.002  -0.005   0.008  0.00  0.00    +0.270 C 
ATOM     20  O   UNL     1       1.063  -0.599  -0.009  0.00  0.00    -0.268 OA
ATOM     21  H   UNL     1      -2.000  -0.223   0.089  0.00  0.00    +0.155 HD
BRANCH  18  27
ATOM     22  C   UNL     1      -2.160  -2.747  -0.792  0.00  0.00    +0.029 A 
ATOM     23  C   UNL     1      -2.135  -4.130  -0.906  0.00  0.00    +0.016 A 
ATOM     24  C   UNL     1      -1.108  -4.852  -0.328  0.00  0.00    +0.001 A 
ATOM     25  C   UNL     1      -0.101  -4.201   0.359  0.00  0.00    +0.002 A 
ATOM     26  C   UNL     1      -0.114  -2.823   0.472  0.00  0.00    +0.024 A 
ATOM     27  C   UNL     1      -1.140  -2.090  -0.104  0.00  0.00    +0.047 A 
BRANCH  22  29
ATOM     28  C   UNL     1      -4.526  -3.088  -2.285  0.00  0.00    +0.090 C 
ATOM     29  S   UNL     1      -3.472  -1.824  -1.522  0.00  0.00    -0.127 S 
ENDBRANCH  22  29
ENDBRANCH  18  27
ENDBRANCH   1  19
BRANCH   6  30
ATOM     30  C   UNL     1      -2.656   4.583   1.114  0.00  0.00    +0.412 C 
ATOM     31  F   UNL     1      -2.098   4.386   2.382  0.00  0.00    -0.168 F 
ATOM     32  F   UNL     1      -3.462   5.727   1.132  0.00  0.00    -0.168 F 
ATOM     33  F   UNL     1      -3.433   3.472   0.768  0.00  0.00    -0.168 F 
ENDBRANCH   6  30
TORSDOF 5
