REMARK  Name = ZINC46904575
REMARK  7 active torsions:
REMARK  status: ('A' for Active; 'I' for Inactive)
REMARK    1  A    between atoms: C_1  and  C_2
REMARK    2  A    between atoms: C_7  and  C_8
REMARK    3  A    between atoms: N_10  and  N_11
REMARK    4  A    between atoms: C_12  and  C_14
REMARK    5  A    between atoms: C_18  and  N_20
REMARK    6  A    between atoms: N_20  and  S_21
REMARK    7  A    between atoms: S_21  and  C_24
REMARK                            x       y       z     vdW  Elec       q    Type
REMARK                         _______ _______ _______ _____ _____    ______ ____
ROOT
ATOM      1  N   UNL     1       0.574   0.035   4.838  0.00  0.00    -0.230 N 
ATOM      2  C   UNL     1       0.797  -0.642   5.982  0.00  0.00    +0.260 C 
ATOM      3  O   UNL     1       0.904  -1.853   5.960  0.00  0.00    -0.269 OA
ATOM      4  H   UNL     1       0.489   1.002   4.856  0.00  0.00    +0.173 HD
ENDROOT
BRANCH   2   5
ATOM      5  C   UNL     1       0.911   0.088   7.263  0.00  0.00    +0.040 A 
ATOM      6  C   UNL     1       0.783   1.478   7.291  0.00  0.00    +0.013 A 
ATOM      7  C   UNL     1       0.891   2.156   8.488  0.00  0.00    +0.003 A 
ATOM      8  C   UNL     1       1.124   1.464   9.662  0.00  0.00    +0.027 A 
ATOM      9  C   UNL     1       1.253   0.081   9.645  0.00  0.00    +0.075 A 
ATOM     10  C   UNL     1       1.142  -0.611   8.448  0.00  0.00    +0.039 A 
BRANCH   9  11
ATOM     11  N   UNL     1       1.490  -0.614  10.834  0.00  0.00    -0.097 NA
BRANCH  11  12
ATOM     12  S   UNL     1       1.617   0.212  12.263  0.00  0.00    +0.098 S 
ATOM     13  O   UNL     1       2.792   1.005  12.171  0.00  0.00    -0.148 OA
ATOM     14  O   UNL     1       0.338   0.773  12.524  0.00  0.00    -0.148 OA
BRANCH  12  15
ATOM     15  C   UNL     1       1.911  -0.979  13.528  0.00  0.00    +0.148 A 
ATOM     16  C   UNL     1       3.092  -1.454  13.995  0.00  0.00    +0.037 A 
ATOM     17  C   UNL     1       3.082  -2.397  15.006  0.00  0.00    +0.010 A 
ATOM     18  C   UNL     1       1.892  -2.819  15.500  0.00  0.00    +0.047 A 
ATOM     19  S   UNL     1       0.732  -1.868  14.532  0.00  0.00    -0.077 S 
ENDBRANCH  12  15
ENDBRANCH  11  12
ENDBRANCH   9  11
ENDBRANCH   2   5
BRANCH   1  22
ATOM     20  C   UNL     1       0.243   0.022   2.481  0.00  0.00    +0.260 C 
ATOM     21  O   UNL     1       0.136   1.232   2.502  0.00  0.00    -0.269 OA
ATOM     22  N   UNL     1       0.466  -0.656   3.624  0.00  0.00    -0.230 N 
ATOM     23  H   UNL     1       0.551  -1.622   3.607  0.00  0.00    +0.173 HD
BRANCH  20  30
ATOM     24  C   UNL     1      -0.513   1.452   0.082  0.00  0.00    +0.044 C 
ATOM     25  C   UNL     1      -0.235  -0.028   0.036  0.00  0.00    -0.038 A 
ATOM     26  C   UNL     1      -0.335  -0.714  -1.157  0.00  0.00    +0.004 A 
ATOM     27  C   UNL     1      -0.080  -2.073  -1.200  0.00  0.00    +0.000 A 
ATOM     28  C   UNL     1       0.275  -2.754  -0.049  0.00  0.00    +0.001 A 
ATOM     29  C   UNL     1       0.377  -2.081   1.150  0.00  0.00    +0.013 A 
ATOM     30  C   UNL     1       0.128  -0.708   1.200  0.00  0.00    +0.041 A 
ENDBRANCH  20  30
ENDBRANCH   1  22
TORSDOF 6
