REMARK  Name = ZINC11565847
REMARK  14 active torsions:
REMARK  status: ('A' for Active; 'I' for Inactive)
REMARK    1  A    between atoms: C_1  and  C_2
REMARK    2  A    between atoms: C_2  and  C_3
REMARK    3  A    between atoms: C_3  and  O_4
REMARK    4  A    between atoms: O_4  and  C_5
REMARK    5  A    between atoms: C_8  and  S_14
REMARK    6  A    between atoms: C_10  and  C_11
REMARK    7  A    between atoms: C_11  and  C_12
REMARK    8  A    between atoms: C_11  and  C_13
REMARK    9  A    between atoms: S_14  and  N_17
REMARK   10  A    between atoms: N_17  and  C_18
REMARK   11  A    between atoms: C_20  and  C_25
REMARK   12  A    between atoms: C_20  and  C_26
REMARK   13  A    between atoms: C_21  and  C_23
REMARK   14  A    between atoms: C_21  and  C_24
REMARK                            x       y       z     vdW  Elec       q    Type
REMARK                         _______ _______ _______ _____ _____    ______ ____
ROOT
ATOM      1  S   UNL     1       0.256   5.849  -2.661  0.00  0.00    +0.059 S 
ATOM      2  O   UNL     1       0.249   7.238  -2.358  0.00  0.00    -0.153 OA
ATOM      3  O   UNL     1       1.215   5.264  -3.530  0.00  0.00    -0.153 OA
ENDROOT
BRANCH   1   7
ATOM      4  C   UNL     1      -3.817   4.882  -4.390  0.00  0.00    +0.124 A 
ATOM      5  C   UNL     1      -3.658   5.982  -3.559  0.00  0.00    +0.048 A 
ATOM      6  C   UNL     1      -2.415   6.275  -3.033  0.00  0.00    +0.032 A 
ATOM      7  C   UNL     1      -1.329   5.473  -3.334  0.00  0.00    +0.106 A 
ATOM      8  C   UNL     1      -1.483   4.380  -4.166  0.00  0.00    +0.036 A 
ATOM      9  C   UNL     1      -2.726   4.080  -4.691  0.00  0.00    -0.001 A 
BRANCH   9  10
ATOM     10  C   UNL     1      -2.895   2.885  -5.593  0.00  0.00    +0.016 C 
ATOM     11  C   UNL     1      -1.998   3.043  -6.822  0.00  0.00    +0.012 C 
ATOM     12  C   UNL     1      -2.502   1.614  -4.836  0.00  0.00    +0.012 C 
ENDBRANCH   9  10
BRANCH   4  13
ATOM     13  O   UNL     1      -5.039   4.592  -4.909  0.00  0.00    -0.492 OA
BRANCH  13  14
ATOM     14  C   UNL     1      -6.116   5.462  -4.557  0.00  0.00    +0.229 C 
BRANCH  14  16
ATOM     15  C   UNL     1      -8.556   5.911  -4.854  0.00  0.00    +0.007 C 
ATOM     16  C   UNL     1      -7.402   4.980  -5.231  0.00  0.00    +0.038 C 
ENDBRANCH  14  16
ENDBRANCH  13  14
ENDBRANCH   4  13
ENDBRANCH   1   7
BRANCH   1  17
ATOM     17  N   UNL     1       0.376   5.050  -1.216  0.00  0.00    -0.187 NA
ATOM     18  H   UNL     1       0.442   5.551  -0.388  0.00  0.00    +0.148 HD
BRANCH  17  19
ATOM     19  C   UNL     1       0.383   3.582  -1.188  0.00  0.00    +0.074 C 
ATOM     20  C   UNL     1       1.307   3.104  -0.068  0.00  0.00    +0.007 C 
ATOM     21  C   UNL     1       1.318   1.579  -0.002  0.00  0.00    -0.072 C 
ATOM     22  C   UNL     1      -1.049   1.551  -0.842  0.00  0.00    -0.072 C 
ATOM     23  C   UNL     1      -1.030   3.077  -0.900  0.00  0.00    +0.007 C 
ATOM     24  C   UNL     1      -0.958   0.983  -2.263  0.00  0.00    -0.010 C 
ATOM     25  C   UNL     1      -2.418   1.125  -0.266  0.00  0.00    -0.010 C 
ATOM     26  C   UNL     1       2.027   1.175   1.309  0.00  0.00    -0.010 C 
ATOM     27  C   UNL     1       2.153   1.022  -1.161  0.00  0.00    -0.010 C 
ATOM     28  N   UNL     1      -0.027   0.945   0.053  0.00  0.00    +0.386 N 
ATOM     29  H   UNL     1      -0.370   1.012   1.019  0.00  0.00    -0.084 HD
ATOM     30  H   UNL     1       0.076  -0.043  -0.206  0.00  0.00    -0.084 HD
ENDBRANCH  17  19
ENDBRANCH   1  17
TORSDOF 7
