REMARK  Name = ZINC04711162
REMARK  7 active torsions:
REMARK  status: ('A' for Active; 'I' for Inactive)
REMARK    1  A    between atoms: C_1  and  C_2
REMARK    2  A    between atoms: C_5  and  N_9
REMARK    3  A    between atoms: C_10  and  C_12
REMARK    4  A    between atoms: C_12  and  O_13
REMARK    5  A    between atoms: O_13  and  C_14
REMARK    6  A    between atoms: C_14  and  C_15
REMARK    7  A    between atoms: N_20  and  C_23
REMARK                            x       y       z     vdW  Elec       q    Type
REMARK                         _______ _______ _______ _____ _____    ______ ____
ROOT
ATOM      1  C   UNL     1       3.661   1.699  -0.013  0.00  0.00    +0.256 C 
ENDROOT
BRANCH   1   2
ATOM      2  C   UNL     1       4.740   0.647  -0.034  0.00  0.00    +0.241 C 
ATOM      3  O   UNL     1       4.441  -0.528  -0.046  0.00  0.00    -0.273 OA
ATOM      4  N   UNL     1       6.037   1.012  -0.039  0.00  0.00    -0.297 N 
ATOM      5  C   UNL     1       6.421   2.432  -0.030  0.00  0.00    +0.126 C 
ATOM      6  C   UNL     1       7.436   2.649   1.104  0.00  0.00    +0.124 C 
ATOM      7  N   UNL     1       8.550   1.706   0.945  0.00  0.00    -0.325 N 
ATOM      8  C   UNL     1       8.093   0.315   1.070  0.00  0.00    +0.124 C 
ATOM      9  C   UNL     1       7.106   0.002  -0.059  0.00  0.00    +0.126 C 
BRANCH   7  10
ATOM     10  C   UNL     1       9.574   1.981   1.857  0.00  0.00    +0.065 A 
ATOM     11  C   UNL     1      10.756   1.254   1.816  0.00  0.00    +0.026 A 
ATOM     12  C   UNL     1      11.768   1.531   2.716  0.00  0.00    +0.002 A 
ATOM     13  C   UNL     1      11.601   2.524   3.663  0.00  0.00    +0.003 A 
ATOM     14  C   UNL     1      10.423   3.247   3.711  0.00  0.00    +0.040 A 
ATOM     15  C   UNL     1       9.408   2.979   2.811  0.00  0.00    +0.144 A 
ATOM     16  F   UNL     1       8.257   3.685   2.859  0.00  0.00    -0.204 F 
ENDBRANCH   7  10
ENDBRANCH   1   2
BRANCH   1  17
ATOM     17  O   UNL     1       2.379   1.067  -0.012  0.00  0.00    -0.361 OA
BRANCH  17  18
ATOM     18  C   UNL     1       1.280   1.980   0.007  0.00  0.00    +0.256 C 
BRANCH  18  20
ATOM     19  N   UNL     1      -1.191   1.867   0.018  0.00  0.00    -0.284 N 
ATOM     20  C   UNL     1      -0.014   1.209   0.007  0.00  0.00    +0.243 C 
ATOM     21  O   UNL     1       0.002  -0.004  -0.008  0.00  0.00    -0.273 OA
ATOM     22  H   UNL     1      -1.205   2.833   0.098  0.00  0.00    +0.155 HD
BRANCH  19  27
ATOM     23  C   UNL     1      -6.060  -1.016  -0.403  0.00  0.00    +0.045 C 
ATOM     24  C   UNL     1      -4.766  -0.250  -0.291  0.00  0.00    -0.032 A 
ATOM     25  C   UNL     1      -4.650   0.998  -0.875  0.00  0.00    +0.006 A 
ATOM     26  C   UNL     1      -3.468   1.704  -0.769  0.00  0.00    +0.023 A 
ATOM     27  C   UNL     1      -2.391   1.155  -0.086  0.00  0.00    +0.035 A 
ATOM     28  C   UNL     1      -2.509  -0.098   0.499  0.00  0.00    +0.043 A 
ATOM     29  C   UNL     1      -3.697  -0.798   0.395  0.00  0.00    +0.046 A 
ATOM     30 CL   UNL     1      -3.847  -2.366   1.125  0.00  0.00    -0.083 Cl
ENDBRANCH  19  27
ENDBRANCH  18  20
ENDBRANCH  17  18
ENDBRANCH   1  17
TORSDOF 6
