REMARK  Name = ZINC20532136
REMARK  10 active torsions:
REMARK  status: ('A' for Active; 'I' for Inactive)
REMARK    1  A    between atoms: C_1  and  C_2
REMARK    2  A    between atoms: C_2  and  C_3
REMARK    3  A    between atoms: C_3  and  C_5
REMARK    4  A    between atoms: C_3  and  N_20
REMARK    5  A    between atoms: C_9  and  N_10
REMARK    6  A    between atoms: N_16  and  C_19
REMARK    7  A    between atoms: N_23  and  C_24
REMARK    8  A    between atoms: C_26  and  C_32
REMARK    9  A    between atoms: C_29  and  O_30
REMARK   10  A    between atoms: O_30  and  C_31
REMARK                            x       y       z     vdW  Elec       q    Type
REMARK                         _______ _______ _______ _____ _____    ______ ____
ROOT
ATOM      1  C   UNL     1       4.712   0.966  -0.273  0.00  0.00    +0.107 C 
ENDROOT
BRANCH   1   2
ATOM      2  C   UNL     1       3.600   1.980  -0.181  0.00  0.00    +0.007 A 
ATOM      3  C   UNL     1       2.272   1.565  -0.220  0.00  0.00    -0.034 A 
ATOM      4  C   UNL     1       1.324   2.540  -0.135  0.00  0.00    -0.021 A 
ATOM      5  S   UNL     1       2.263   4.035   0.003  0.00  0.00    -0.077 S 
ATOM      6  C   UNL     1       3.892   3.303  -0.061  0.00  0.00    +0.090 A 
ATOM      7  C   UNL     1      -0.158   2.353  -0.158  0.00  0.00    -0.036 C 
ATOM      8  N   UNL     1      -0.443   0.987  -0.637  0.00  0.00    +0.381 N 
ATOM      9  C   UNL     1       0.375   0.003   0.086  0.00  0.00    -0.074 C 
ATOM     10  C   UNL     1       1.838   0.107  -0.350  0.00  0.00    +0.018 C 
ATOM     11  C   UNL     1      -1.873   0.674  -0.516  0.00  0.00    -0.096 C 
ATOM     12  H   UNL     1      -0.179   0.930  -1.703  0.00  0.00    -0.082 HD
BRANCH   6  13
ATOM     13  N   UNL     1       5.143   3.929  -0.003  0.00  0.00    -0.317 N 
ATOM     14  C   UNL     1       6.348   3.292   0.073  0.00  0.00    +0.092 A 
ATOM     15  C   UNL     1       7.318   4.229   0.107  0.00  0.00    +0.019 A 
ATOM     16  C   UNL     1       6.690   5.490   0.060  0.00  0.00    +0.019 A 
ATOM     17  C   UNL     1       5.359   5.277  -0.006  0.00  0.00    +0.092 A 
ENDBRANCH   6  13
ENDBRANCH   1   2
BRANCH   1  18
ATOM     18  N   UNL     1       5.699   1.411  -1.260  0.00  0.00    -0.292 N 
ATOM     19  C   UNL     1       6.520   0.515  -1.843  0.00  0.00    +0.304 C 
ATOM     20  O   UNL     1       6.441  -0.662  -1.550  0.00  0.00    -0.252 OA
ATOM     21  N   UNL     1       7.428   0.925  -2.751  0.00  0.00    -0.266 N 
ATOM     22  H   UNL     1       5.769   2.476  -1.525  0.00  0.00    +0.151 HD
ATOM     23  H   UNL     1       7.574   1.999  -2.937  0.00  0.00    +0.156 HD
BRANCH  21  24
ATOM     24  C   UNL     1       8.186  -0.019  -3.458  0.00  0.00    +0.077 A 
ATOM     25  C   UNL     1       7.726  -1.321  -3.592  0.00  0.00    +0.030 A 
ATOM     26  C   UNL     1       8.475  -2.249  -4.291  0.00  0.00    -0.048 A 
ATOM     27  C   UNL     1       9.682  -1.883  -4.857  0.00  0.00    +0.007 A 
ATOM     28  C   UNL     1      10.146  -0.587  -4.728  0.00  0.00    +0.048 A 
ATOM     29  C   UNL     1       9.399   0.350  -4.033  0.00  0.00    +0.141 A 
ATOM     30  C   UNL     1       7.975  -3.663  -4.436  0.00  0.00    +0.044 C 
BRANCH  29  31
ATOM     31  O   UNL     1       9.852   1.627  -3.909  0.00  0.00    -0.493 OA
ATOM     32  C   UNL     1      11.105   1.933  -4.525  0.00  0.00    +0.277 C 
ENDBRANCH  29  31
ENDBRANCH  21  24
ENDBRANCH   1  18
BRANCH   1  34
ATOM     33  C   UNL     1       6.429  -0.293   1.033  0.00  0.00    +0.006 C 
ATOM     34  C   UNL     1       5.385   0.823   1.093  0.00  0.00    +0.024 C 
ENDBRANCH   1  34
TORSDOF 6
