REMARK  Name = ZINC52679383
REMARK  11 active torsions:
REMARK  status: ('A' for Active; 'I' for Inactive)
REMARK    1  A    between atoms: C_1  and  C_2
REMARK    2  A    between atoms: C_2  and  N_3
REMARK    3  A    between atoms: C_4  and  C_6
REMARK    4  A    between atoms: C_9  and  N_13
REMARK    5  A    between atoms: C_10  and  C_12
REMARK    6  A    between atoms: C_14  and  C_16
REMARK    7  A    between atoms: N_18  and  C_19
REMARK    8  A    between atoms: C_19  and  C_20
REMARK    9  A    between atoms: C_25  and  N_26
REMARK   10  A    between atoms: N_26  and  C_27
REMARK   11  A    between atoms: N_26  and  C_28
REMARK                            x       y       z     vdW  Elec       q    Type
REMARK                         _______ _______ _______ _____ _____    ______ ____
ROOT
ATOM      1  N   UNL     1      -6.916  -3.745  -0.321  0.00  0.00    -0.278 N 
ATOM      2  C   UNL     1      -7.954  -2.896  -0.182  0.00  0.00    +0.303 C 
ATOM      3  O   UNL     1      -7.776  -1.699  -0.283  0.00  0.00    -0.265 OA
ATOM      4  H   UNL     1      -7.069  -4.703  -0.308  0.00  0.00    +0.155 HD
ENDROOT
BRANCH   1   8
ATOM      5  C   UNL     1      -3.058  -2.257  -0.805  0.00  0.00    +0.037 A 
ATOM      6  C   UNL     1      -4.147  -1.569  -1.347  0.00  0.00    +0.015 A 
ATOM      7  C   UNL     1      -5.421  -2.063  -1.185  0.00  0.00    +0.024 A 
ATOM      8  C   UNL     1      -5.626  -3.247  -0.483  0.00  0.00    +0.037 A 
ATOM      9  C   UNL     1      -4.543  -3.935   0.058  0.00  0.00    -0.029 A 
ATOM     10  C   UNL     1      -3.266  -3.449  -0.105  0.00  0.00    +0.018 A 
ATOM     11  C   UNL     1      -4.770  -5.216   0.818  0.00  0.00    +0.045 C 
BRANCH   5  13
ATOM     12  N   UNL     1      -1.490  -0.581  -1.653  0.00  0.00    -0.312 N 
ATOM     13  C   UNL     1      -1.690  -1.730  -0.977  0.00  0.00    +0.244 C 
ATOM     14  O   UNL     1      -0.743  -2.333  -0.510  0.00  0.00    -0.270 OA
ATOM     15  H   UNL     1      -2.246  -0.100  -2.025  0.00  0.00    +0.149 HD
BRANCH  12  17
ATOM     16  C   UNL     1      -0.185   1.247  -2.620  0.00  0.00    +0.024 C 
ATOM     17  C   UNL     1      -0.133  -0.058  -1.823  0.00  0.00    +0.101 C 
ENDBRANCH  12  17
ENDBRANCH   5  13
ENDBRANCH   1   8
BRANCH   2  18
ATOM     18  C   UNL     1      -9.322  -3.426   0.097  0.00  0.00    +0.300 C 
ATOM     19  O   UNL     1      -9.499  -4.623   0.198  0.00  0.00    -0.265 OA
ATOM     20  N   UNL     1     -10.359  -2.577   0.236  0.00  0.00    -0.303 N 
ATOM     21  H   UNL     1     -10.217  -1.621   0.155  0.00  0.00    +0.149 HD
BRANCH  20  22
ATOM     22  C   UNL     1     -11.700  -3.098   0.509  0.00  0.00    +0.143 C 
BRANCH  22  23
ATOM     23  C   UNL     1     -12.672  -1.951   0.619  0.00  0.00    +0.008 A 
ATOM     24  C   UNL     1     -13.082  -1.496   1.859  0.00  0.00    +0.010 A 
ATOM     25  C   UNL     1     -13.979  -0.437   1.913  0.00  0.00    +0.018 A 
ATOM     26  C   UNL     1     -14.430   0.127   0.737  0.00  0.00    +0.084 A 
ATOM     27  N   UNL     1     -14.022  -0.327  -0.432  0.00  0.00    -0.349 N 
ATOM     28  C   UNL     1     -13.163  -1.331  -0.526  0.00  0.00    +0.103 A 
ATOM     29  H   UNL     1     -14.355   0.087  -1.244  0.00  0.00    +0.167 HD
BRANCH  28  30
ATOM     30  N   UNL     1     -12.755  -1.774  -1.778  0.00  0.00    -0.323 N 
ATOM     31  C   UNL     1     -13.448  -2.892  -2.422  0.00  0.00    +0.130 C 
ATOM     32  C   UNL     1     -11.630  -1.123  -2.454  0.00  0.00    +0.130 C 
ENDBRANCH  28  30
ENDBRANCH  22  23
ENDBRANCH  20  22
ENDBRANCH   2  18
TORSDOF 7
