REMARK  Name = ZINC00970207
REMARK  10 active torsions:
REMARK  status: ('A' for Active; 'I' for Inactive)
REMARK    1  A    between atoms: C_1  and  O_2
REMARK    2  A    between atoms: O_2  and  C_3
REMARK    3  A    between atoms: C_6  and  C_11
REMARK    4  A    between atoms: C_8  and  O_9
REMARK    5  A    between atoms: O_9  and  C_10
REMARK    6  A    between atoms: C_18  and  N_34
REMARK    7  A    between atoms: C_19  and  C_32
REMARK    8  A    between atoms: C_20  and  C_22
REMARK    9  A    between atoms: C_27  and  O_28
REMARK   10  A    between atoms: O_28  and  C_29
REMARK                            x       y       z     vdW  Elec       q    Type
REMARK                         _______ _______ _______ _____ _____    ______ ____
ROOT
ATOM      1  C   UNL     1       2.582  -2.539   4.300  0.00  0.00    +0.100 A 
ATOM      2  C   UNL     1       3.713  -2.067   4.972  0.00  0.00    +0.054 A 
ATOM      3  C   UNL     1       4.028  -2.964   5.951  0.00  0.00    +0.223 A 
ATOM      4  N   UNL     1       3.126  -3.966   5.895  0.00  0.00    -0.246 N 
ATOM      5  H   UNL     1       3.103  -4.745   6.472  0.00  0.00    +0.192 HD
ATOM      6  N   UNL     1       2.224  -3.680   4.859  0.00  0.00    -0.171 NA
ATOM      7  O   UNL     1       5.082  -2.794   6.788  0.00  0.00    -0.423 OA
ATOM      8  C   UNL     1       5.664  -1.579   6.821  0.00  0.00    +0.200 C 
ATOM      9  C   UNL     1       5.442  -0.613   5.902  0.00  0.00    +0.098 C 
ATOM     10  C   UNL     1       4.510  -0.810   4.732  0.00  0.00    +0.105 C 
ENDROOT
BRANCH  10  11
ATOM     11  C   UNL     1       5.309  -0.950   3.463  0.00  0.00    +0.010 A 
ATOM     12  C   UNL     1       6.240  -1.964   3.340  0.00  0.00    +0.028 A 
ATOM     13  C   UNL     1       6.975  -2.093   2.175  0.00  0.00    +0.043 A 
ATOM     14  C   UNL     1       6.781  -1.206   1.130  0.00  0.00    +0.043 A 
ATOM     15  C   UNL     1       5.851  -0.190   1.249  0.00  0.00    +0.084 A 
ATOM     16  C   UNL     1       5.108  -0.064   2.415  0.00  0.00    +0.142 A 
ATOM     17 CL   UNL     1       5.608   0.922  -0.061  0.00  0.00    -0.080 Cl
ATOM     18 CL   UNL     1       8.143  -3.368   2.024  0.00  0.00    -0.083 Cl
BRANCH  16  19
ATOM     19  O   UNL     1       4.190   0.931   2.533  0.00  0.00    -0.493 OA
ATOM     20  C   UNL     1       4.646   2.176   3.067  0.00  0.00    +0.277 C 
ENDBRANCH  16  19
ENDBRANCH  10  11
BRANCH   1  24
ATOM     21  C   UNL     1       0.626  -0.619   1.042  0.00  0.00    +0.162 A 
ATOM     22  C   UNL     1       1.202   0.140   2.050  0.00  0.00    +0.050 A 
ATOM     23  C   UNL     1       1.836  -0.480   3.107  0.00  0.00    +0.014 A 
ATOM     24  C   UNL     1       1.899  -1.871   3.164  0.00  0.00    +0.006 A 
ATOM     25  C   UNL     1       1.321  -2.635   2.151  0.00  0.00    +0.059 A 
ATOM     26  C   UNL     1       0.681  -2.009   1.096  0.00  0.00    +0.162 A 
BRANCH  21  28
ATOM     27  C   UNL     1      -0.017   1.425   0.010  0.00  0.00    +0.277 C 
ATOM     28  O   UNL     1       0.002  -0.004   0.002  0.00  0.00    -0.491 OA
ENDBRANCH  21  28
BRANCH  26  29
ATOM     29  O   UNL     1       0.112  -2.751   0.110  0.00  0.00    -0.491 OA
ATOM     30  C   UNL     1       0.206  -4.172   0.230  0.00  0.00    +0.277 C 
ENDBRANCH  26  29
ENDBRANCH   1  24
BRANCH   8  31
ATOM     31  N   UNL     1       6.533  -1.305   7.848  0.00  0.00    -0.328 N 
ATOM     32  H   UNL     1       6.712  -1.978   8.524  0.00  0.00    +0.145 HD
ATOM     33  H   UNL     1       6.967  -0.440   7.899  0.00  0.00    +0.145 HD
ENDBRANCH   8  31
BRANCH   9  34
ATOM     34  C   UNL     1       6.115   0.643   6.043  0.00  0.00    +0.101 C 
ATOM     35  N   UNL     1       6.649   1.639   6.156  0.00  0.00    -0.191 NA
ENDBRANCH   9  34
TORSDOF 7
