REMARK  Name = ZINC15550394
REMARK  10 active torsions:
REMARK  status: ('A' for Active; 'I' for Inactive)
REMARK    1  A    between atoms: C_1  and  C_2
REMARK    2  A    between atoms: C_2  and  C_3
REMARK    3  A    between atoms: C_2  and  C_4
REMARK    4  A    between atoms: C_4  and  C_6
REMARK    5  A    between atoms: C_4  and  N_47
REMARK    6  A    between atoms: C_13  and  C_14
REMARK    7  A    between atoms: C_13  and  N_47
REMARK    8  A    between atoms: N_16  and  C_17
REMARK    9  A    between atoms: C_21  and  S_23
REMARK   10  A    between atoms: S_23  and  N_26
REMARK                            x       y       z     vdW  Elec       q    Type
REMARK                         _______ _______ _______ _____ _____    ______ ____
ROOT
ATOM      1  C   UNL     1       3.811   1.571   1.856  0.00  0.00    +0.200 C 
ATOM      2  O   UNL     1       3.956   2.439   2.690  0.00  0.00    -0.278 OA
ATOM      3  N   UNL     1       4.839   1.228   1.054  0.00  0.00    -0.287 N 
ATOM      4  H   UNL     1       4.704   0.585   0.341  0.00  0.00    +0.155 HD
ENDROOT
BRANCH   3   5
ATOM      5  C   UNL     1       6.101   1.799   1.252  0.00  0.00    +0.035 A 
ATOM      6  C   UNL     1       6.209   3.120   1.666  0.00  0.00    +0.023 A 
ATOM      7  C   UNL     1       7.456   3.679   1.865  0.00  0.00    +0.004 A 
ATOM      8  C   UNL     1       8.596   2.929   1.642  0.00  0.00    +0.028 A 
ATOM      9  C   UNL     1       8.491   1.615   1.225  0.00  0.00    +0.107 A 
ATOM     10  C   UNL     1       7.247   1.048   1.029  0.00  0.00    +0.051 A 
BRANCH   9  11
ATOM     11  S   UNL     1       9.947   0.662   0.942  0.00  0.00    +0.056 S 
ATOM     12  O   UNL     1      10.977   1.254   1.721  0.00  0.00    -0.153 OA
ATOM     13  O   UNL     1       9.573  -0.701   1.082  0.00  0.00    -0.153 OA
BRANCH  11  14
ATOM     14  N   UNL     1      10.371   0.876  -0.645  0.00  0.00    -0.204 NA
ATOM     15  H   UNL     1      11.303   0.828  -0.908  0.00  0.00    +0.144 HD
ATOM     16  H   UNL     1       9.687   1.050  -1.311  0.00  0.00    +0.144 HD
ENDBRANCH  11  14
ENDBRANCH   9  11
ENDBRANCH   3   5
BRANCH   1  17
ATOM     17  C   UNL     1       2.481   0.875   1.715  0.00  0.00    +0.016 C 
BRANCH  17  18
ATOM     18  N   UNL     1       1.537   1.434   2.701  0.00  0.00    +0.389 N 
ATOM     19  H   UNL     1       1.949   1.368   3.639  0.00  0.00    -0.084 HD
ATOM     20  H   UNL     1       1.355   2.419   2.476  0.00  0.00    -0.084 HD
BRANCH  18  21
ATOM     21  C   UNL     1       0.266   0.685   2.674  0.00  0.00    -0.038 C 
BRANCH  21  22
ATOM     22  C   UNL     1      -0.392   0.779   4.027  0.00  0.00    -0.061 A 
ATOM     23  C   UNL     1      -0.359   1.970   4.729  0.00  0.00    +0.005 A 
ATOM     24  C   UNL     1      -0.968   2.059   5.967  0.00  0.00    +0.038 A 
ATOM     25  C   UNL     1      -1.601   0.953   6.508  0.00  0.00    +0.123 A 
ATOM     26  C   UNL     1      -1.628  -0.240   5.806  0.00  0.00    +0.038 A 
ATOM     27  C   UNL     1      -1.024  -0.326   4.566  0.00  0.00    +0.005 A 
ATOM     28  F   UNL     1      -2.190   1.037   7.721  0.00  0.00    -0.205 F 
ENDBRANCH  21  22
BRANCH  21  30
ATOM     29  C   UNL     1      -1.017   2.721   2.005  0.00  0.00    +0.006 C 
ATOM     30  C   UNL     1      -0.658   1.287   1.614  0.00  0.00    -0.027 C 
ATOM     31  C   UNL     1      -1.935   0.450   1.517  0.00  0.00    +0.006 C 
ENDBRANCH  21  30
ENDBRANCH  18  21
ENDBRANCH  17  18
ENDBRANCH   1  17
TORSDOF 8
