REMARK  Name = ZINC12199308
REMARK  4 active torsions:
REMARK  status: ('A' for Active; 'I' for Inactive)
REMARK    1  A    between atoms: C_3  and  S_14
REMARK    2  A    between atoms: C_6  and  N_7
REMARK    3  A    between atoms: S_14  and  N_17
REMARK    4  A    between atoms: N_17  and  C_18
REMARK                            x       y       z     vdW  Elec       q    Type
REMARK                         _______ _______ _______ _____ _____    ______ ____
ROOT
ATOM      1  C   UNL     1       4.874   1.139   0.981  0.00  0.00    +0.025 A 
ATOM      2  C   UNL     1       6.080   1.803   0.868  0.00  0.00    +0.030 A 
ATOM      3  C   UNL     1       6.107   3.125   0.464  0.00  0.00    +0.109 A 
ATOM      4  C   UNL     1       4.928   3.784   0.166  0.00  0.00    +0.030 A 
ATOM      5  C   UNL     1       3.720   3.124   0.270  0.00  0.00    +0.025 A 
ATOM      6  C   UNL     1       3.689   1.796   0.676  0.00  0.00    +0.036 A 
ENDROOT
BRANCH   6   7
ATOM      7  N   UNL     1       2.467   1.124   0.784  0.00  0.00    -0.271 N 
ATOM      8  C   UNL     1       1.998   0.768   2.117  0.00  0.00    +0.113 C 
ATOM      9  C   UNL     1       0.495   0.487   2.099  0.00  0.00    +0.020 C 
ATOM     10  C   UNL     1       0.196  -0.511   0.973  0.00  0.00    +0.011 C 
ATOM     11  C   UNL     1       0.461   0.178  -0.367  0.00  0.00    +0.096 C 
ATOM     12  C   UNL     1       1.804   0.850  -0.340  0.00  0.00    +0.220 C 
ATOM     13  O   UNL     1       2.312   1.159  -1.397  0.00  0.00    -0.275 OA
ENDBRANCH   6   7
BRANCH   3  14
ATOM     14  S   UNL     1       7.646   3.972   0.329  0.00  0.00    +0.072 S 
ATOM     15  O   UNL     1       8.629   2.985   0.048  0.00  0.00    -0.150 OA
ATOM     16  O   UNL     1       7.423   5.088  -0.521  0.00  0.00    -0.150 OA
BRANCH  14  17
ATOM     17  N   UNL     1       8.002   4.582   1.827  0.00  0.00    -0.216 N 
ATOM     18  H   UNL     1       8.055   5.541   1.960  0.00  0.00    +0.174 HD
BRANCH  17  19
ATOM     19  C   UNL     1       8.228   3.714   2.899  0.00  0.00    +0.051 A 
ATOM     20  C   UNL     1       7.263   3.565   3.887  0.00  0.00    +0.044 A 
ATOM     21  C   UNL     1       7.487   2.702   4.944  0.00  0.00    +0.044 A 
ATOM     22  C   UNL     1       8.674   1.996   5.023  0.00  0.00    +0.040 A 
ATOM     23  C   UNL     1       9.639   2.147   4.042  0.00  0.00    +0.044 A 
ATOM     24  C   UNL     1       9.419   3.004   2.981  0.00  0.00    +0.044 A 
ATOM     25 CL   UNL     1      11.127   1.259   4.145  0.00  0.00    -0.083 Cl
ATOM     26 CL   UNL     1       6.280   2.509   6.176  0.00  0.00    -0.083 Cl
ENDBRANCH  17  19
ENDBRANCH  14  17
ENDBRANCH   3  14
TORSDOF 4
