REMARK  Name = ZINC12000045
REMARK  5 active torsions:
REMARK  status: ('A' for Active; 'I' for Inactive)
REMARK    1  A    between atoms: C_1  and  O_2
REMARK    2  A    between atoms: O_2  and  C_3
REMARK    3  A    between atoms: C_6  and  N_10
REMARK    4  A    between atoms: C_23  and  C_24
REMARK    5  A    between atoms: C_23  and  N_52
REMARK                            x       y       z     vdW  Elec       q    Type
REMARK                         _______ _______ _______ _____ _____    ______ ____
ROOT
ATOM      1  N   UNL     1       3.825   0.678  -0.098  0.00  0.00    -0.270 N 
ATOM      2  C   UNL     1       2.504   0.630   0.511  0.00  0.00    +0.090 C 
ATOM      3  C   UNL     1       1.792   1.986   0.286  0.00  0.00    +0.187 C 
ATOM      4  S   UNL     1       0.023   1.515   0.450  0.00  0.00    -0.031 S 
ATOM      5  O   UNL     1      -0.703   2.058  -0.645  0.00  0.00    -0.174 OA
ATOM      6  O   UNL     1      -0.406   1.789   1.777  0.00  0.00    -0.174 OA
ATOM      7  C   UNL     1       0.158  -0.305   0.231  0.00  0.00    +0.152 C 
ATOM      8  C   UNL     1       1.661  -0.512  -0.039  0.00  0.00    -0.023 C 
ATOM      9  C   UNL     1       3.264  -1.101  -1.736  0.00  0.00    +0.020 C 
ATOM     10  C   UNL     1       4.203  -0.098  -1.120  0.00  0.00    +0.203 C 
ATOM     11  O   UNL     1       5.328   0.009  -1.561  0.00  0.00    -0.277 OA
ATOM     12  N   UNL     1       1.881  -0.650  -1.489  0.00  0.00    +0.392 N 
ATOM     13  H   UNL     1       1.739   0.262  -1.939  0.00  0.00    -0.080 HD
ENDROOT
BRANCH   1  17
ATOM     14  C   UNL     1       6.594   3.397   1.431  0.00  0.00    +0.138 A 
ATOM     15  C   UNL     1       6.080   3.574   0.155  0.00  0.00    +0.049 A 
ATOM     16  C   UNL     1       5.162   2.674  -0.352  0.00  0.00    +0.027 A 
ATOM     17  C   UNL     1       4.755   1.591   0.416  0.00  0.00    +0.038 A 
ATOM     18  C   UNL     1       5.265   1.417   1.695  0.00  0.00    +0.047 A 
ATOM     19  C   UNL     1       6.187   2.315   2.199  0.00  0.00    +0.084 A 
ATOM     20 CL   UNL     1       6.830   2.094   3.796  0.00  0.00    -0.080 Cl
BRANCH  14  22
ATOM     21  C   UNL     1       7.870   5.373   1.083  0.00  0.00    +0.277 C 
ATOM     22  O   UNL     1       7.497   4.283   1.929  0.00  0.00    -0.494 OA
ENDBRANCH  14  22
ENDBRANCH   1  17
BRANCH  12  23
ATOM     23  C   UNL     1       0.919  -1.623  -2.058  0.00  0.00    -0.042 C 
BRANCH  23  24
ATOM     24  C   UNL     1       1.133  -1.713  -3.547  0.00  0.00    -0.060 A 
ATOM     25  C   UNL     1       0.443  -0.866  -4.394  0.00  0.00    +0.005 A 
ATOM     26  C   UNL     1       0.639  -0.942  -5.761  0.00  0.00    +0.050 A 
ATOM     27  C   UNL     1       1.520  -1.874  -6.285  0.00  0.00    +0.166 A 
ATOM     28  C   UNL     1       2.211  -2.730  -5.431  0.00  0.00    +0.166 A 
ATOM     29  C   UNL     1       2.014  -2.645  -4.062  0.00  0.00    +0.051 A 
ATOM     30  O   UNL     1       3.008  -3.546  -6.181  0.00  0.00    -0.453 OA
ATOM     31  C   UNL     1       3.106  -2.908  -7.469  0.00  0.00    +0.466 C 
ATOM     32  O   UNL     1       1.884  -2.153  -7.570  0.00  0.00    -0.453 OA
ENDBRANCH  23  24
ENDBRANCH  12  23
TORSDOF 4
