REMARK  Name = ZINC12191504
REMARK  5 active torsions:
REMARK  status: ('A' for Active; 'I' for Inactive)
REMARK    1  A    between atoms: C_1  and  C_2
REMARK    2  A    between atoms: C_5  and  C_7
REMARK    3  A    between atoms: C_7  and  N_8
REMARK    4  A    between atoms: C_11  and  C_36
REMARK    5  A    between atoms: C_12  and  C_18
REMARK                            x       y       z     vdW  Elec       q    Type
REMARK                         _______ _______ _______ _____ _____    ______ ____
ROOT
ATOM      1  N   UNL     1      -3.937   0.356   0.826  0.00  0.00    -0.321 N 
ATOM      2  C   UNL     1      -5.098   0.516   1.554  0.00  0.00    +0.131 A 
ATOM      3  C   UNL     1      -5.083   0.393   2.975  0.00  0.00    +0.051 A 
ATOM      4  C   UNL     1      -4.008   0.114   3.830  0.00  0.00    -0.019 A 
ATOM      5  C   UNL     1      -4.213   0.038   5.173  0.00  0.00    +0.080 A 
ATOM      6  S   UNL     1      -5.959   0.374   5.330  0.00  0.00    -0.064 S 
ATOM      7  C   UNL     1      -6.336   0.584   3.609  0.00  0.00    +0.114 A 
ATOM      8  N   UNL     1      -7.425   0.845   2.916  0.00  0.00    -0.228 NA
ATOM      9  C   UNL     1      -7.374   0.941   1.601  0.00  0.00    +0.224 A 
ATOM     10  N   UNL     1      -6.241   0.781   0.942  0.00  0.00    -0.220 NA
ATOM     11  C   UNL     1      -2.629  -0.102   3.262  0.00  0.00    +0.046 C 
ATOM     12  H   UNL     1      -3.090   0.234   1.284  0.00  0.00    +0.148 HD
ENDROOT
BRANCH   5  13
ATOM     13  C   UNL     1      -3.235  -0.239   6.234  0.00  0.00    +0.254 C 
ATOM     14  O   UNL     1      -2.109   0.216   6.157  0.00  0.00    -0.269 OA
ATOM     15  N   UNL     1      -3.586  -0.996   7.292  0.00  0.00    -0.296 N 
ATOM     16  C   UNL     1      -4.966  -1.469   7.452  0.00  0.00    +0.113 C 
ATOM     17  C   UNL     1      -4.974  -2.974   7.712  0.00  0.00    +0.027 C 
ATOM     18  C   UNL     1      -4.010  -3.340   8.841  0.00  0.00    +0.018 C 
ATOM     19  C   UNL     1      -2.602  -2.896   8.436  0.00  0.00    +0.054 C 
ATOM     20  C   UNL     1      -2.594  -1.362   8.316  0.00  0.00    +0.117 C 
ATOM     21  C   UNL     1      -2.259  -3.465   7.080  0.00  0.00    +0.027 A 
ATOM     22  C   UNL     1      -0.944  -3.681   6.805  0.00  0.00    +0.022 A 
ATOM     23  C   UNL     1      -0.548  -4.143   5.545  0.00  0.00    +0.007 A 
ATOM     24  C   UNL     1      -1.498  -4.346   4.588  0.00  0.00    +0.070 A 
ATOM     25  C   UNL     1      -2.844  -4.110   4.903  0.00  0.00    +0.251 A 
ATOM     26  O   UNL     1      -3.696  -4.225   4.037  0.00  0.00    -0.268 OA
ATOM     27  N   UNL     1      -3.208  -3.757   6.160  0.00  0.00    -0.312 N 
ATOM     28  C   UNL     1      -4.638  -3.773   6.466  0.00  0.00    +0.130 C 
ENDBRANCH   5  13
BRANCH   1  29
ATOM     29  C   UNL     1      -3.982   0.370  -0.638  0.00  0.00    +0.177 C 
BRANCH  29  34
ATOM     30  C   UNL     1       0.648   1.380  -2.368  0.00  0.00    +0.086 C 
ATOM     31  C   UNL     1      -0.578   0.616  -1.938  0.00  0.00    +0.102 A 
ATOM     32  C   UNL     1      -0.721  -0.722  -1.965  0.00  0.00    +0.045 A 
ATOM     33  C   UNL     1      -2.018  -1.005  -1.477  0.00  0.00    +0.046 A 
ATOM     34  C   UNL     1      -2.591   0.177  -1.185  0.00  0.00    +0.122 A 
ATOM     35  O   UNL     1      -1.712   1.155  -1.462  0.00  0.00    -0.463 OA
ENDBRANCH  29  34
ENDBRANCH   1  29
TORSDOF 3
