REMARK  Name = ZINC33034056
REMARK  10 active torsions:
REMARK  status: ('A' for Active; 'I' for Inactive)
REMARK    1  A    between atoms: C_1  and  C_2
REMARK    2  A    between atoms: C_2  and  C_3
REMARK    3  A    between atoms: C_3  and  C_5
REMARK    4  A    between atoms: C_3  and  N_6
REMARK    5  A    between atoms: C_7  and  C_9
REMARK    6  A    between atoms: C_12  and  N_27
REMARK    7  A    between atoms: C_13  and  N_15
REMARK    8  A    between atoms: N_15  and  S_16
REMARK    9  A    between atoms: S_16  and  C_19
REMARK   10  A    between atoms: C_22  and  C_26
REMARK                            x       y       z     vdW  Elec       q    Type
REMARK                         _______ _______ _______ _____ _____    ______ ____
ROOT
ATOM      1  C   UNL     1       2.635   3.423   0.516  0.00  0.00    +0.039 A 
ATOM      2  C   UNL     1       3.775   2.675   0.207  0.00  0.00    +0.015 A 
ATOM      3  C   UNL     1       3.648   1.415  -0.334  0.00  0.00    +0.026 A 
ATOM      4  C   UNL     1       2.386   0.883  -0.574  0.00  0.00    +0.052 A 
ATOM      5  C   UNL     1       1.242   1.625  -0.268  0.00  0.00    +0.070 A 
ATOM      6  C   UNL     1       1.365   2.892   0.270  0.00  0.00    +0.039 A 
ENDROOT
BRANCH   4   7
ATOM      7  N   UNL     1       2.263  -0.393  -1.121  0.00  0.00    -0.332 N 
ATOM      8  C   UNL     1       3.562  -0.892  -1.594  0.00  0.00    +0.086 C 
ATOM      9  C   UNL     1       3.370  -2.257  -2.258  0.00  0.00    -0.063 C 
ATOM     10  N   UNL     1       2.771  -3.189  -1.292  0.00  0.00    +0.381 N 
ATOM     11  C   UNL     1       1.472  -2.690  -0.819  0.00  0.00    -0.063 C 
ATOM     12  C   UNL     1       1.664  -1.325  -0.155  0.00  0.00    +0.086 C 
ATOM     13  H   UNL     1       2.622  -4.168  -1.770  0.00  0.00    -0.086 HD
ATOM     14  H   UNL     1       3.443  -3.303  -0.428  0.00  0.00    -0.086 HD
ENDBRANCH   4   7
BRANCH   1  16
ATOM     15  N   UNL     1       3.996   5.286   1.327  0.00  0.00    -0.309 N 
ATOM     16  C   UNL     1       2.772   4.773   1.095  0.00  0.00    +0.244 C 
ATOM     17  O   UNL     1       1.779   5.422   1.364  0.00  0.00    -0.270 OA
ATOM     18  H   UNL     1       4.894   4.698   1.085  0.00  0.00    +0.149 HD
BRANCH  15  19
ATOM     19  C   UNL     1       4.131   6.626   1.903  0.00  0.00    +0.070 C 
ATOM     20  C   UNL     1       4.040   6.538   3.428  0.00  0.00    +0.028 C 
BRANCH  19  22
ATOM     21  C   UNL     1       5.529   7.421  -0.009  0.00  0.00    +0.005 C 
ATOM     22  C   UNL     1       5.486   7.217   1.506  0.00  0.00    +0.018 C 
ENDBRANCH  19  22
ENDBRANCH  15  19
ENDBRANCH   1  16
BRANCH   5  23
ATOM     23  N   UNL     1      -0.028   1.087  -0.511  0.00  0.00    -0.214 N 
ATOM     24  H   UNL     1      -0.489   0.412   0.225  0.00  0.00    +0.174 HD
BRANCH  23  25
ATOM     25  S   UNL     1      -0.834   1.466  -1.907  0.00  0.00    +0.072 S 
ATOM     26  O   UNL     1      -2.066   0.759  -1.869  0.00  0.00    -0.150 OA
ATOM     27  O   UNL     1      -0.771   2.879  -2.042  0.00  0.00    -0.150 OA
BRANCH  25  28
ATOM     28  C   UNL     1       0.093   0.790  -3.244  0.00  0.00    +0.110 A 
ATOM     29  C   UNL     1       1.076   1.547  -3.856  0.00  0.00    +0.029 A 
ATOM     30  C   UNL     1       1.807   1.016  -4.902  0.00  0.00    +0.007 A 
ATOM     31  C   UNL     1       1.549  -0.268  -5.344  0.00  0.00    -0.032 A 
ATOM     32  C   UNL     1       0.562  -1.024  -4.736  0.00  0.00    +0.046 A 
ATOM     33  C   UNL     1      -0.166  -0.493  -3.685  0.00  0.00    +0.049 A 
ATOM     34 CL   UNL     1       0.237  -2.636  -5.291  0.00  0.00    -0.083 Cl
ATOM     35  C   UNL     1       2.342  -0.845  -6.488  0.00  0.00    +0.045 C 
ENDBRANCH  25  28
ENDBRANCH  23  25
ENDBRANCH   5  23
TORSDOF 7
