REMARK  Name = ZINC13637938
REMARK  8 active torsions:
REMARK  status: ('A' for Active; 'I' for Inactive)
REMARK    1  A    between atoms: C_4  and  C_24
REMARK    2  A    between atoms: C_6  and  N_7
REMARK    3  A    between atoms: C_8  and  C_10
REMARK    4  A    between atoms: C_10  and  S_11
REMARK    5  A    between atoms: S_11  and  C_12
REMARK    6  A    between atoms: C_15  and  C_18
REMARK    7  A    between atoms: C_18  and  C_19
REMARK    8  A    between atoms: C_19  and  C_20
REMARK                            x       y       z     vdW  Elec       q    Type
REMARK                         _______ _______ _______ _____ _____    ______ ____
ROOT
ATOM      1  N   UNL     1      -1.200  -0.722   0.010  0.00  0.00    -0.285 N 
ATOM      2  C   UNL     1      -2.373  -0.069   0.127  0.00  0.00    +0.227 C 
ATOM      3  O   UNL     1      -2.395   1.143   0.134  0.00  0.00    -0.275 OA
ATOM      4  H   UNL     1      -1.188  -1.688  -0.072  0.00  0.00    +0.155 HD
ENDROOT
BRANCH   1  10
ATOM      5  C   UNL     1       0.122   1.155   0.762  0.00  0.00    +0.025 A 
ATOM      6  C   UNL     1       1.310   1.861   0.758  0.00  0.00    +0.022 A 
ATOM      7  C   UNL     1       2.379   1.413   0.004  0.00  0.00    +0.053 A 
ATOM      8  C   UNL     1       2.263   0.257  -0.749  0.00  0.00    +0.075 A 
ATOM      9  C   UNL     1       1.078  -0.452  -0.749  0.00  0.00    +0.037 A 
ATOM     10  C   UNL     1       0.002  -0.004   0.008  0.00  0.00    +0.034 A 
ATOM     11 CL   UNL     1       3.870   2.302   0.000  0.00  0.00    -0.083 Cl
BRANCH   8  12
ATOM     12  C   UNL     1       3.430  -0.228  -1.570  0.00  0.00    +0.419 C 
ATOM     13  F   UNL     1       3.074  -1.404  -2.238  0.00  0.00    -0.166 F 
ATOM     14  F   UNL     1       3.780   0.752  -2.506  0.00  0.00    -0.166 F 
ATOM     15  F   UNL     1       4.519  -0.480  -0.729  0.00  0.00    -0.166 F 
ENDBRANCH   8  12
ENDBRANCH   1  10
BRANCH   2  16
ATOM     16  C   UNL     1      -3.659  -0.846   0.249  0.00  0.00    +0.173 C 
BRANCH  16  17
ATOM     17  S   UNL     1      -5.052   0.307   0.389  0.00  0.00    -0.075 S 
BRANCH  17  18
ATOM     18  C   UNL     1      -6.461  -0.742   0.523  0.00  0.00    +0.213 A 
ATOM     19  N   UNL     1      -7.670  -0.205   0.642  0.00  0.00    -0.180 NA
ATOM     20  C   UNL     1      -8.729  -1.000   0.742  0.00  0.00    +0.296 A 
ATOM     21  C   UNL     1      -8.534  -2.382   0.718  0.00  0.00    +0.130 A 
ATOM     22  N   UNL     1      -7.309  -2.857   0.597  0.00  0.00    -0.146 NA
ATOM     23  N   UNL     1      -6.304  -2.060   0.496  0.00  0.00    -0.122 NA
ATOM     24  O   UNL     1      -9.974  -0.480   0.866  0.00  0.00    -0.264 OA
BRANCH  21  25
ATOM     25  C   UNL     1      -9.708  -3.320   0.829  0.00  0.00    +0.074 C 
BRANCH  25  26
ATOM     26  C   UNL     1     -10.246  -3.632  -0.569  0.00  0.00    +0.131 C 
BRANCH  26  27
ATOM     27  C   UNL     1     -11.420  -4.570  -0.458  0.00  0.00    +0.356 C 
ATOM     28  O   UNL     1     -11.793  -4.953   0.638  0.00  0.00    -0.246 OA
ATOM     29  O   UNL     1     -11.998  -4.945  -1.464  0.00  0.00    -0.246 OA
ENDBRANCH  26  27
ENDBRANCH  25  26
ENDBRANCH  21  25
ENDBRANCH  17  18
ENDBRANCH  16  17
ENDBRANCH   2  16
TORSDOF 8
