REMARK  Name = ZINC23479858
REMARK  4 active torsions:
REMARK  status: ('A' for Active; 'I' for Inactive)
REMARK    1  A    between atoms: C_1  and  C_2
REMARK    2  A    between atoms: C_2  and  C_3
REMARK    3  A    between atoms: C_8  and  C_31
REMARK    4  A    between atoms: C_9  and  N_25
REMARK                            x       y       z     vdW  Elec       q    Type
REMARK                         _______ _______ _______ _____ _____    ______ ____
ROOT
ATOM      1  C   UNL     1       3.068   3.520  -0.174  0.00  0.00    +0.179 C 
ATOM      2  C   UNL     1       1.566   3.550   0.194  0.00  0.00    +0.085 C 
ATOM      3  C   UNL     1       1.200   2.081   0.129  0.00  0.00    +0.027 A 
ATOM      4  C   UNL     1      -0.017   1.409   0.075  0.00  0.00    +0.018 A 
ATOM      5  C   UNL     1      -1.323   2.067   0.100  0.00  0.00    +0.100 A 
ATOM      6  C   UNL     1      -2.463   1.248   0.044  0.00  0.00    +0.142 A 
ATOM      7  N   UNL     1      -2.367  -0.076  -0.026  0.00  0.00    -0.215 NA
ATOM      8  C   UNL     1      -1.214  -0.717  -0.053  0.00  0.00    +0.134 A 
ATOM      9  C   UNL     1       0.002  -0.004  -0.003  0.00  0.00    +0.063 A 
ATOM     10  C   UNL     1       1.244  -0.668  -0.026  0.00  0.00    +0.135 A 
ATOM     11  N   UNL     1       2.360   0.024   0.036  0.00  0.00    -0.197 NA
ATOM     12  C   UNL     1       2.383   1.361   0.117  0.00  0.00    +0.221 A 
ATOM     13  O   UNL     1       3.458   2.190   0.208  0.00  0.00    -0.473 OA
ATOM     14  N   UNL     1       1.240  -2.054  -0.116  0.00  0.00    -0.308 N 
ATOM     15  C   UNL     1       0.051  -2.771   0.369  0.00  0.00    +0.099 C 
ATOM     16  N   UNL     1      -1.155  -2.098  -0.136  0.00  0.00    -0.308 N 
ATOM     17  C   UNL     1       0.082  -4.211  -0.143  0.00  0.00    +0.045 C 
ATOM     18  C   UNL     1      -1.149  -4.963   0.366  0.00  0.00    +0.004 C 
ATOM     19  C   UNL     1      -1.150  -4.961   1.896  0.00  0.00    +0.000 C 
ATOM     20  C   UNL     1      -1.191  -3.519   2.404  0.00  0.00    +0.004 C 
ATOM     21  C   UNL     1       0.040  -2.764   1.897  0.00  0.00    +0.045 C 
ATOM     22  H   UNL     1       2.089  -2.615  -0.534  0.00  0.00    +0.150 HD
ATOM     23  H   UNL     1      -1.978  -2.690  -0.564  0.00  0.00    +0.150 HD
ENDROOT
BRANCH   6  24
ATOM     24  N   UNL     1      -3.715   1.833   0.065  0.00  0.00    -0.310 N 
ATOM     25  C   UNL     1      -4.476   1.405   1.248  0.00  0.00    +0.134 C 
ATOM     26  C   UNL     1      -5.830   2.120   1.263  0.00  0.00    +0.178 C 
ATOM     27  O   UNL     1      -6.523   1.844   0.043  0.00  0.00    -0.377 OA
ATOM     28  C   UNL     1      -5.810   2.248  -1.129  0.00  0.00    +0.178 C 
ATOM     29  C   UNL     1      -4.456   1.534  -1.168  0.00  0.00    +0.134 C 
ENDBRANCH   6  24
BRANCH   1  31
ATOM     30  C   UNL     1       4.758   3.826  -1.989  0.00  0.00    +0.007 C 
ATOM     31  C   UNL     1       3.263   3.737  -1.676  0.00  0.00    +0.041 C 
ENDBRANCH   1  31
BRANCH   5  32
ATOM     32  C   UNL     1      -1.435   3.493   0.172  0.00  0.00    +0.103 C 
ATOM     33  N   UNL     1      -1.524   4.624   0.229  0.00  0.00    -0.191 NA
ENDBRANCH   5  32
TORSDOF 3
