REMARK  Name = ZINC48767594
REMARK  6 active torsions:
REMARK  status: ('A' for Active; 'I' for Inactive)
REMARK    1  A    between atoms: C_3  and  N_9
REMARK    2  A    between atoms: C_10  and  C_12
REMARK    3  A    between atoms: N_14  and  C_15
REMARK    4  A    between atoms: C_15  and  C_16
REMARK    5  A    between atoms: C_16  and  C_18
REMARK    6  A    between atoms: C_16  and  N_23
REMARK                            x       y       z     vdW  Elec       q    Type
REMARK                         _______ _______ _______ _____ _____    ______ ____
ROOT
ATOM      1  C   UNL     1       7.550   4.774  -1.280  0.00  0.00    +0.299 C 
ATOM      2  O   UNL     1       7.215   3.893  -0.515  0.00  0.00    -0.265 OA
ATOM      3  N   UNL     1       7.226   6.055  -1.016  0.00  0.00    -0.309 N 
ATOM      4  H   UNL     1       7.494   6.759  -1.627  0.00  0.00    +0.149 HD
ENDROOT
BRANCH   1   6
ATOM      5  N   UNL     1       8.643   3.156  -2.779  0.00  0.00    -0.276 N 
ATOM      6  C   UNL     1       8.320   4.437  -2.515  0.00  0.00    +0.303 C 
ATOM      7  O   UNL     1       8.655   5.318  -3.280  0.00  0.00    -0.265 OA
ATOM      8  H   UNL     1       8.310   2.444  -2.210  0.00  0.00    +0.155 HD
BRANCH   5  11
ATOM      9  C   UNL     1      11.136   3.505  -5.458  0.00  0.00    +0.003 A 
ATOM     10  C   UNL     1      10.331   3.808  -4.377  0.00  0.00    +0.025 A 
ATOM     11  C   UNL     1       9.458   2.852  -3.873  0.00  0.00    +0.054 A 
ATOM     12  C   UNL     1       9.398   1.593  -4.458  0.00  0.00    +0.080 A 
ATOM     13  C   UNL     1      10.207   1.296  -5.540  0.00  0.00    +0.061 A 
ATOM     14  C   UNL     1      11.075   2.252  -6.039  0.00  0.00    +0.021 A 
ATOM     15 CL   UNL     1      10.133  -0.276  -6.273  0.00  0.00    -0.082 Cl
ATOM     16 CL   UNL     1       8.309   0.394  -3.832  0.00  0.00    -0.080 Cl
ENDBRANCH   5  11
ENDBRANCH   1   6
BRANCH   3  17
ATOM     17  C   UNL     1       6.471   6.385   0.195  0.00  0.00    +0.097 C 
BRANCH  17  18
ATOM     18  C   UNL     1       6.131   7.877   0.194  0.00  0.00    +0.016 C 
BRANCH  18  19
ATOM     19  N   UNL     1       5.259   8.182   1.336  0.00  0.00    +0.387 N 
ATOM     20  C   UNL     1       4.765   9.580   1.244  0.00  0.00    -0.078 C 
ATOM     21  C   UNL     1       3.490   9.563   2.124  0.00  0.00    -0.020 C 
ATOM     22  C   UNL     1       2.881   8.174   1.824  0.00  0.00    -0.020 C 
ATOM     23  C   UNL     1       4.054   7.325   1.301  0.00  0.00    -0.078 C 
ATOM     24  H   UNL     1       5.759   8.045   2.202  0.00  0.00    -0.081 HD
ENDBRANCH  18  19
BRANCH  18  25
ATOM     25  C   UNL     1       7.401   8.681   0.302  0.00  0.00    +0.093 A 
ATOM     26  C   UNL     1       8.040   9.283  -0.718  0.00  0.00    +0.043 A 
ATOM     27  C   UNL     1       9.177   9.921  -0.169  0.00  0.00    +0.041 A 
ATOM     28  C   UNL     1       9.164   9.670   1.153  0.00  0.00    +0.195 A 
ATOM     29  O   UNL     1       8.083   8.924   1.433  0.00  0.00    -0.469 OA
ENDBRANCH  18  25
ENDBRANCH  17  18
ENDBRANCH   3  17
TORSDOF 6
