REMARK  Name = ZINC40422413
REMARK  3 active torsions:
REMARK  status: ('A' for Active; 'I' for Inactive)
REMARK    1  A    between atoms: C_4  and  O_9
REMARK    2  A    between atoms: C_5  and  C_7
REMARK    3  A    between atoms: O_9  and  C_10
REMARK                            x       y       z     vdW  Elec       q    Type
REMARK                         _______ _______ _______ _____ _____    ______ ____
ROOT
ATOM      1  C   UNL     1       0.058   1.506  -0.016  0.00  0.00    +0.001 A 
ATOM      2  C   UNL     1       1.268   2.174  -0.116  0.00  0.00    +0.004 A 
ATOM      3  C   UNL     1       2.456   1.470  -0.122  0.00  0.00    +0.047 A 
ATOM      4  C   UNL     1       2.445   0.087  -0.029  0.00  0.00    +0.148 A 
ATOM      5  C   UNL     1       1.224  -0.593   0.072  0.00  0.00    +0.094 A 
ATOM      6  C   UNL     1       0.029   0.131   0.078  0.00  0.00    +0.022 A 
ENDROOT
BRANCH   5   7
ATOM      7  C   UNL     1       1.200  -2.022   0.168  0.00  0.00    +0.103 C 
ATOM      8  N   UNL     1       1.182  -3.155   0.245  0.00  0.00    -0.191 NA
ENDBRANCH   5   7
BRANCH   4   9
ATOM      9  O   UNL     1       3.612  -0.606  -0.036  0.00  0.00    -0.437 OA
BRANCH   9  10
ATOM     10  C   UNL     1       4.060  -1.087  -1.222  0.00  0.00    +0.225 A 
ATOM     11  C   UNL     1       5.220  -1.855  -1.280  0.00  0.00    +0.107 A 
ATOM     12  C   UNL     1       5.636  -2.324  -2.514  0.00  0.00    +0.136 A 
ATOM     13  N   UNL     1       4.922  -2.027  -3.592  0.00  0.00    -0.224 NA
ATOM     14  C   UNL     1       3.829  -1.298  -3.501  0.00  0.00    +0.226 A 
ATOM     15  N   UNL     1       3.396  -0.837  -2.345  0.00  0.00    -0.201 NA
ATOM     16 CL   UNL     1       7.075  -3.286  -2.650  0.00  0.00    -0.062 Cl
ENDBRANCH   9  10
ENDBRANCH   4   9
TORSDOF 3
