REMARK  Name = ZINC57987206
REMARK  11 active torsions:
REMARK  status: ('A' for Active; 'I' for Inactive)
REMARK    1  A    between atoms: C_1  and  C_2
REMARK    2  A    between atoms: C_5  and  N_8
REMARK    3  A    between atoms: N_8  and  C_9
REMARK    4  A    between atoms: C_9  and  C_10
REMARK    5  A    between atoms: N_12  and  N_13
REMARK    6  A    between atoms: C_14  and  C_16
REMARK    7  A    between atoms: C_18  and  C_33
REMARK    8  A    between atoms: C_19  and  C_32
REMARK    9  A    between atoms: C_20  and  S_22
REMARK   10  A    between atoms: S_22  and  N_25
REMARK   11  A    between atoms: C_28  and  C_31
REMARK                            x       y       z     vdW  Elec       q    Type
REMARK                         _______ _______ _______ _____ _____    ______ ____
ROOT
ATOM      1  N   UNL     1       0.105  -8.220   2.877  0.00  0.00    -0.230 N 
ATOM      2  C   UNL     1       0.129  -9.291   3.695  0.00  0.00    +0.260 C 
ATOM      3  O   UNL     1       0.027  -9.141   4.897  0.00  0.00    -0.269 OA
ATOM      4  H   UNL     1       0.186  -8.340   1.918  0.00  0.00    +0.173 HD
ENDROOT
BRANCH   2   5
ATOM      5  C   UNL     1       0.278 -10.649   3.130  0.00  0.00    +0.040 A 
ATOM      6  C   UNL     1       0.401 -10.825   1.750  0.00  0.00    +0.016 A 
ATOM      7  C   UNL     1       0.540 -12.095   1.230  0.00  0.00    -0.045 A 
ATOM      8  C   UNL     1       0.559 -13.193   2.071  0.00  0.00    -0.021 A 
ATOM      9  C   UNL     1       0.438 -13.026   3.439  0.00  0.00    +0.109 A 
ATOM     10  C   UNL     1       0.303 -11.761   3.974  0.00  0.00    +0.042 A 
ATOM     11  C   UNL     1       0.712 -14.577   1.496  0.00  0.00    +0.046 C 
ATOM     12  C   UNL     1       0.672 -12.286  -0.259  0.00  0.00    +0.044 C 
BRANCH   9  13
ATOM     13  S   UNL     1       0.462 -14.431   4.502  0.00  0.00    +0.061 S 
ATOM     14  O   UNL     1       0.380 -13.936   5.832  0.00  0.00    -0.153 OA
ATOM     15  O   UNL     1      -0.479 -15.356   3.974  0.00  0.00    -0.153 OA
BRANCH  13  16
ATOM     16  N   UNL     1       1.953 -15.134   4.350  0.00  0.00    -0.177 NA
ATOM     17  C   UNL     1       2.156 -16.270   3.440  0.00  0.00    +0.110 C 
ATOM     18  C   UNL     1       2.795 -17.421   4.223  0.00  0.00    +0.020 C 
ATOM     19  C   UNL     1       4.072 -16.924   4.903  0.00  0.00    -0.012 C 
ATOM     20  C   UNL     1       3.726 -15.804   5.887  0.00  0.00    +0.020 C 
ATOM     21  C   UNL     1       3.100 -14.631   5.119  0.00  0.00    +0.110 C 
ATOM     22  C   UNL     1       4.731 -18.081   5.658  0.00  0.00    +0.007 C 
ENDBRANCH  13  16
ENDBRANCH   9  13
ENDBRANCH   2   5
BRANCH   1  25
ATOM     23  C   UNL     1      -0.061  -5.862   2.595  0.00  0.00    +0.246 C 
ATOM     24  O   UNL     1       0.040  -6.012   1.396  0.00  0.00    -0.273 OA
ATOM     25  N   UNL     1      -0.037  -6.933   3.413  0.00  0.00    -0.233 N 
ATOM     26  H   UNL     1      -0.118  -6.813   4.372  0.00  0.00    +0.173 HD
BRANCH  23  27
ATOM     27  C   UNL     1      -0.213  -4.478   3.171  0.00  0.00    +0.199 C 
BRANCH  27  28
ATOM     28  N   UNL     1      -0.210  -3.494   2.086  0.00  0.00    -0.335 N 
ATOM     29  H   UNL     1      -0.119  -3.788   1.166  0.00  0.00    +0.147 HD
BRANCH  28  34
ATOM     30  C   UNL     1      -0.737   2.028   3.262  0.00  0.00    +0.044 C 
ATOM     31  C   UNL     1      -0.597   0.561   2.950  0.00  0.00    -0.050 A 
ATOM     32  C   UNL     1      -0.465   0.144   1.637  0.00  0.00    +0.005 A 
ATOM     33  C   UNL     1      -0.337  -1.200   1.347  0.00  0.00    +0.023 A 
ATOM     34  C   UNL     1      -0.340  -2.134   2.376  0.00  0.00    +0.028 A 
ATOM     35  C   UNL     1      -0.472  -1.712   3.693  0.00  0.00    +0.023 A 
ATOM     36  C   UNL     1      -0.594  -0.366   3.976  0.00  0.00    +0.005 A 
ENDBRANCH  28  34
ENDBRANCH  27  28
ENDBRANCH  23  27
ENDBRANCH   1  25
TORSDOF 7
