REMARK  Name = ZINC34814775
REMARK  4 active torsions:
REMARK  status: ('A' for Active; 'I' for Inactive)
REMARK    1  A    between atoms: C_1  and  C_2
REMARK    2  A    between atoms: N_20  and  S_25
REMARK    3  A    between atoms: C_21  and  C_24
REMARK    4  A    between atoms: S_25  and  C_28
REMARK                            x       y       z     vdW  Elec       q    Type
REMARK                         _______ _______ _______ _____ _____    ______ ____
ROOT
ATOM      1  C   UNL     1       0.126  -7.333   4.575  0.00  0.00    +0.044 C 
ATOM      2  C   UNL     1       0.803  -6.252   3.772  0.00  0.00    -0.050 A 
ATOM      3  C   UNL     1       2.094  -6.442   3.311  0.00  0.00    +0.007 A 
ATOM      4  C   UNL     1       2.718  -5.461   2.562  0.00  0.00    +0.047 A 
ATOM      5  C   UNL     1       2.055  -4.279   2.276  0.00  0.00    +0.139 A 
ATOM      6  C   UNL     1       0.758  -4.073   2.758  0.00  0.00    +0.057 A 
ATOM      7  C   UNL     1       0.131  -5.080   3.494  0.00  0.00    +0.018 A 
ATOM      8  C   UNL     1       0.065  -2.798   2.519  0.00  0.00    +0.133 C 
ATOM      9  N   UNL     1       0.120  -2.112   1.430  0.00  0.00    -0.228 NA
ATOM     10  C   UNL     1       0.799  -2.434   0.293  0.00  0.00    +0.108 A 
ATOM     11  C   UNL     1       0.200  -2.183  -0.946  0.00  0.00    +0.031 A 
ATOM     12  C   UNL     1       0.877  -2.470  -2.114  0.00  0.00    +0.002 A 
ATOM     13  C   UNL     1       2.151  -3.006  -2.065  0.00  0.00    +0.004 A 
ATOM     14  C   UNL     1       2.748  -3.269  -0.845  0.00  0.00    +0.048 A 
ATOM     15  C   UNL     1       2.075  -2.999   0.335  0.00  0.00    +0.154 A 
ATOM     16  O   UNL     1       2.658  -3.332   1.515  0.00  0.00    -0.453 OA
ATOM     17  N   UNL     1      -0.708  -2.297   3.542  0.00  0.00    -0.312 N 
ATOM     18  C   UNL     1      -1.564  -1.123   3.327  0.00  0.00    +0.123 C 
ATOM     19  C   UNL     1      -1.207  -0.057   4.371  0.00  0.00    +0.128 C 
ATOM     20  N   UNL     1      -1.189  -0.688   5.699  0.00  0.00    -0.171 NA
ATOM     21  C   UNL     1      -0.332  -1.862   5.914  0.00  0.00    +0.094 C 
ATOM     22  C   UNL     1      -0.694  -2.931   4.868  0.00  0.00    +0.127 C 
ATOM     23  C   UNL     1      -0.566  -2.418   7.320  0.00  0.00    +0.027 C 
ENDROOT
BRANCH  20  24
ATOM     24  S   UNL     1      -2.118  -0.085   6.930  0.00  0.00    +0.061 S 
ATOM     25  O   UNL     1      -3.073   0.781   6.332  0.00  0.00    -0.153 OA
ATOM     26  O   UNL     1      -2.495  -1.194   7.735  0.00  0.00    -0.153 OA
BRANCH  24  27
ATOM     27  C   UNL     1      -1.073   0.926   7.924  0.00  0.00    +0.106 A 
ATOM     28  C   UNL     1      -0.501   0.410   9.072  0.00  0.00    +0.031 A 
ATOM     29  C   UNL     1       0.320   1.202   9.853  0.00  0.00    +0.040 A 
ATOM     30  C   UNL     1       0.569   2.514   9.484  0.00  0.00    +0.124 A 
ATOM     31  C   UNL     1      -0.004   3.029   8.334  0.00  0.00    +0.040 A 
ATOM     32  C   UNL     1      -0.820   2.234   7.553  0.00  0.00    +0.031 A 
ATOM     33  F   UNL     1       1.371   3.289  10.246  0.00  0.00    -0.205 F 
ENDBRANCH  24  27
ENDBRANCH  20  24
TORSDOF 2
