REMARK  Name = ZINC45041023
REMARK  4 active torsions:
REMARK  status: ('A' for Active; 'I' for Inactive)
REMARK    1  A    between atoms: C_1  and  C_2
REMARK    2  A    between atoms: C_6  and  C_7
REMARK    3  A    between atoms: N_9  and  C_10
REMARK    4  A    between atoms: C_17  and  C_19
REMARK                            x       y       z     vdW  Elec       q    Type
REMARK                         _______ _______ _______ _____ _____    ______ ____
ROOT
ATOM      1  C   UNL     1       0.620  -0.538   2.535  0.00  0.00    +0.284 C 
ATOM      2  O   UNL     1       1.144   0.516   2.844  0.00  0.00    -0.266 OA
ATOM      3  N   UNL     1       0.053  -1.313   3.481  0.00  0.00    -0.279 N 
ATOM      4  H   UNL     1      -0.422  -2.119   3.227  0.00  0.00    +0.155 HD
ENDROOT
BRANCH   3   5
ATOM      5  C   UNL     1       0.152  -0.954   4.831  0.00  0.00    +0.036 A 
ATOM      6  C   UNL     1       0.126   0.391   5.195  0.00  0.00    +0.027 A 
ATOM      7  C   UNL     1       0.223   0.756   6.520  0.00  0.00    +0.050 A 
ATOM      8  C   UNL     1       0.347  -0.217   7.500  0.00  0.00    +0.155 A 
ATOM      9  C   UNL     1       0.374  -1.574   7.141  0.00  0.00    +0.111 A 
ATOM     10  C   UNL     1       0.270  -1.936   5.798  0.00  0.00    +0.055 A 
ATOM     11  N   UNL     1       0.502  -2.278   8.298  0.00  0.00    -0.213 NA
ATOM     12  C   UNL     1       0.550  -1.444   9.293  0.00  0.00    +0.194 A 
ATOM     13  O   UNL     1       0.460  -0.181   8.847  0.00  0.00    -0.440 OA
ATOM     14  C   UNL     1       0.689  -1.838  10.741  0.00  0.00    +0.109 C 
ENDBRANCH   3   5
BRANCH   1  20
ATOM     15  C   UNL     1       1.849   1.050   0.138  0.00  0.00    +0.048 C 
ATOM     16  C   UNL     1       1.138  -0.278   0.079  0.00  0.00    +0.001 A 
ATOM     17  C   UNL     1       0.903  -1.052  -1.067  0.00  0.00    +0.061 A 
ATOM     18  C   UNL     1       0.237  -2.161  -0.670  0.00  0.00    +0.171 A 
ATOM     19  O   UNL     1       0.056  -2.102   0.656  0.00  0.00    -0.443 OA
ATOM     20  C   UNL     1       0.604  -0.964   1.133  0.00  0.00    +0.194 A 
ATOM     21 BR   UNL     1      -0.341  -3.562  -1.800  0.00  0.00    -0.008 Br
ENDBRANCH   1  20
TORSDOF 2
