REMARK  Name = ZINC41643945
REMARK  11 active torsions:
REMARK  status: ('A' for Active; 'I' for Inactive)
REMARK    1  A    between atoms: C_1  and  C_2
REMARK    2  A    between atoms: C_2  and  C_3
REMARK    3  A    between atoms: N_5  and  C_6
REMARK    4  A    between atoms: C_9  and  N_13
REMARK    5  A    between atoms: C_11  and  C_12
REMARK    6  A    between atoms: C_14  and  C_16
REMARK    7  A    between atoms: N_18  and  C_19
REMARK    8  A    between atoms: C_19  and  C_20
REMARK    9  A    between atoms: C_20  and  C_22
REMARK   10  A    between atoms: C_20  and  N_23
REMARK   11  A    between atoms: C_28  and  C_30
REMARK                            x       y       z     vdW  Elec       q    Type
REMARK                         _______ _______ _______ _____ _____    ______ ____
ROOT
ATOM      1  N   UNL     1       3.454  -4.124  -6.170  0.00  0.00    -0.278 N 
ATOM      2  C   UNL     1       3.946  -3.162  -6.976  0.00  0.00    +0.303 C 
ATOM      3  O   UNL     1       3.864  -1.996  -6.650  0.00  0.00    -0.265 OA
ATOM      4  H   UNL     1       3.459  -5.050  -6.461  0.00  0.00    +0.155 HD
ENDROOT
BRANCH   1   8
ATOM      5  C   UNL     1       1.909  -3.122  -2.432  0.00  0.00    +0.036 A 
ATOM      6  C   UNL     1       1.744  -2.256  -3.506  0.00  0.00    +0.025 A 
ATOM      7  C   UNL     1       2.255  -2.588  -4.744  0.00  0.00    +0.025 A 
ATOM      8  C   UNL     1       2.936  -3.788  -4.916  0.00  0.00    +0.034 A 
ATOM      9  C   UNL     1       3.101  -4.652  -3.841  0.00  0.00    +0.028 A 
ATOM     10  C   UNL     1       2.594  -4.317  -2.602  0.00  0.00    -0.027 A 
ATOM     11  C   UNL     1       2.778  -5.253  -1.435  0.00  0.00    +0.046 C 
BRANCH   5  14
ATOM     12  C   UNL     1       1.183  -1.492  -0.857  0.00  0.00    +0.217 C 
ATOM     13  O   UNL     1       1.536  -0.616  -1.617  0.00  0.00    -0.275 OA
ATOM     14  N   UNL     1       1.389  -2.785  -1.176  0.00  0.00    -0.285 N 
ATOM     15  H   UNL     1       1.177  -3.482  -0.536  0.00  0.00    +0.155 HD
BRANCH  12  17
ATOM     16  C   UNL     1       0.403   0.387   0.562  0.00  0.00    +0.013 C 
ATOM     17  C   UNL     1       0.515  -1.135   0.446  0.00  0.00    +0.093 C 
ENDBRANCH  12  17
ENDBRANCH   5  14
ENDBRANCH   1   8
BRANCH   2  18
ATOM     18  C   UNL     1       4.592  -3.532  -8.271  0.00  0.00    +0.299 C 
ATOM     19  O   UNL     1       4.593  -4.688  -8.641  0.00  0.00    -0.265 OA
ATOM     20  N   UNL     1       5.173  -2.581  -9.029  0.00  0.00    -0.309 N 
ATOM     21  H   UNL     1       5.237  -1.671  -8.701  0.00  0.00    +0.149 HD
BRANCH  20  22
ATOM     22  C   UNL     1       5.710  -2.923 -10.349  0.00  0.00    +0.089 C 
BRANCH  22  23
ATOM     23  C   UNL     1       6.421  -1.705 -10.942  0.00  0.00    -0.054 C 
ATOM     24  C   UNL     1       7.008  -2.072 -12.306  0.00  0.00    -0.012 C 
BRANCH  23  25
ATOM     25  N   UNL     1       7.502  -1.283 -10.041  0.00  0.00    +0.384 N 
ATOM     26  C   UNL     1       8.509  -2.347  -9.956  0.00  0.00    -0.078 C 
ATOM     27  C   UNL     1       9.597  -1.946  -8.956  0.00  0.00    -0.019 C 
ATOM     28  C   UNL     1      10.261  -0.648  -9.426  0.00  0.00    -0.003 C 
ATOM     29  C   UNL     1       9.189   0.434  -9.583  0.00  0.00    -0.016 C 
ATOM     30  C   UNL     1       8.117  -0.055 -10.559  0.00  0.00    -0.071 C 
ATOM     31  C   UNL     1       7.044   1.024 -10.720  0.00  0.00    -0.013 C 
ATOM     32  H   UNL     1       7.123  -1.106  -9.123  0.00  0.00    -0.081 HD
ENDBRANCH  23  25
ENDBRANCH  22  23
ENDBRANCH  20  22
ENDBRANCH   2  18
TORSDOF 7
