REMARK  Name = ZINC16018688
REMARK  4 active torsions:
REMARK  status: ('A' for Active; 'I' for Inactive)
REMARK    1  A    between atoms: C_6  and  N_7
REMARK    2  A    between atoms: C_8  and  C_10
REMARK    3  A    between atoms: C_12  and  S_17
REMARK    4  A    between atoms: S_17  and  N_20
REMARK                            x       y       z     vdW  Elec       q    Type
REMARK                         _______ _______ _______ _____ _____    ______ ____
ROOT
ATOM      1  C   UNL     1       5.302  -0.677  -2.051  0.00  0.00    +0.057 A 
ATOM      2  C   UNL     1       4.849  -0.364  -0.768  0.00  0.00    +0.043 A 
ATOM      3  C   UNL     1       3.947  -1.194  -0.137  0.00  0.00    +0.106 A 
ATOM      4  C   UNL     1       3.495  -2.340  -0.769  0.00  0.00    +0.030 A 
ATOM      5  C   UNL     1       3.935  -2.655  -2.041  0.00  0.00    +0.022 A 
ATOM      6  C   UNL     1       4.838  -1.832  -2.686  0.00  0.00    +0.053 A 
ATOM      7 CL   UNL     1       5.394  -2.232  -4.281  0.00  0.00    -0.083 Cl
ENDROOT
BRANCH   1   9
ATOM      8  N   UNL     1       6.715   1.320  -2.119  0.00  0.00    -0.281 N 
ATOM      9  C   UNL     1       6.269   0.207  -2.734  0.00  0.00    +0.250 C 
ATOM     10  O   UNL     1       6.661  -0.069  -3.851  0.00  0.00    -0.270 OA
ATOM     11  H   UNL     1       6.352   1.576  -1.256  0.00  0.00    +0.155 HD
BRANCH   8  17
ATOM     12  C   UNL     1       8.654   2.749  -1.943  0.00  0.00    +0.027 A 
ATOM     13  C   UNL     1       9.632   3.522  -2.539  0.00  0.00    +0.051 A 
ATOM     14  C   UNL     1       9.660   3.666  -3.917  0.00  0.00    +0.166 A 
ATOM     15  C   UNL     1       8.704   3.027  -4.703  0.00  0.00    +0.168 A 
ATOM     16  C   UNL     1       7.727   2.249  -4.105  0.00  0.00    +0.072 A 
ATOM     17  C   UNL     1       7.702   2.107  -2.724  0.00  0.00    +0.037 A 
ATOM     18  O   UNL     1       8.946   3.325  -6.013  0.00  0.00    -0.453 OA
ATOM     19  C   UNL     1       9.808   4.478  -5.992  0.00  0.00    +0.466 C 
ATOM     20  O   UNL     1      10.502   4.364  -4.735  0.00  0.00    -0.453 OA
ENDBRANCH   8  17
ENDBRANCH   1   9
BRANCH   3  21
ATOM     21  S   UNL     1       3.375  -0.800   1.482  0.00  0.00    +0.061 S 
ATOM     22  O   UNL     1       4.367   0.029   2.073  0.00  0.00    -0.153 OA
ATOM     23  O   UNL     1       2.953  -2.021   2.073  0.00  0.00    -0.153 OA
BRANCH  21  24
ATOM     24  N   UNL     1       2.019   0.135   1.308  0.00  0.00    -0.177 NA
ATOM     25  C   UNL     1       0.689  -0.483   1.230  0.00  0.00    +0.109 C 
ATOM     26  C   UNL     1      -0.014   0.018  -0.036  0.00  0.00    +0.017 C 
ATOM     27  C   UNL     1      -0.032   1.548  -0.033  0.00  0.00    +0.003 C 
ATOM     28  C   UNL     1       1.405   2.076  -0.036  0.00  0.00    +0.017 C 
ATOM     29  C   UNL     1       2.123   1.598   1.229  0.00  0.00    +0.109 C 
ENDBRANCH  21  24
ENDBRANCH   3  21
TORSDOF 4
