REMARK  Name = ZINC32664947
REMARK  13 active torsions:
REMARK  status: ('A' for Active; 'I' for Inactive)
REMARK    1  A    between atoms: C_1  and  C_2
REMARK    2  A    between atoms: C_2  and  C_3
REMARK    3  A    between atoms: C_6  and  C_9
REMARK    4  A    between atoms: C_9  and  C_11
REMARK    5  A    between atoms: C_9  and  N_12
REMARK    6  A    between atoms: N_12  and  C_13
REMARK    7  A    between atoms: C_13  and  C_15
REMARK    8  A    between atoms: C_13  and  C_16
REMARK    9  A    between atoms: N_18  and  C_19
REMARK   10  A    between atoms: C_22  and  C_25
REMARK   11  A    between atoms: N_27  and  C_28
REMARK   12  A    between atoms: C_33  and  O_34
REMARK   13  A    between atoms: O_34  and  C_35
REMARK                            x       y       z     vdW  Elec       q    Type
REMARK                         _______ _______ _______ _____ _____    ______ ____
ROOT
ATOM      1  C   UNL     1      -5.680  -2.863  -0.197  0.00  0.00    +0.203 C 
ATOM      2  O   UNL     1      -4.582  -3.370  -0.115  0.00  0.00    -0.277 OA
ATOM      3  N   UNL     1      -5.798  -1.525  -0.307  0.00  0.00    -0.287 N 
ATOM      4  H   UNL     1      -6.786  -1.072  -0.478  0.00  0.00    +0.155 HD
ENDROOT
BRANCH   3   5
ATOM      5  C   UNL     1      -4.669  -0.714  -0.203  0.00  0.00    +0.033 A 
ATOM      6  C   UNL     1      -3.564  -1.152   0.522  0.00  0.00    +0.024 A 
ATOM      7  C   UNL     1      -2.447  -0.354   0.626  0.00  0.00    +0.015 A 
ATOM      8  C   UNL     1      -2.423   0.896   0.003  0.00  0.00    +0.037 A 
ATOM      9  C   UNL     1      -3.536   1.335  -0.719  0.00  0.00    +0.015 A 
ATOM     10  C   UNL     1      -4.648   0.530  -0.824  0.00  0.00    +0.024 A 
BRANCH   8  11
ATOM     11  C   UNL     1      -1.227   1.754   0.112  0.00  0.00    +0.248 C 
ATOM     12  O   UNL     1      -0.261   1.373   0.745  0.00  0.00    -0.270 OA
ATOM     13  N   UNL     1      -1.205   2.960  -0.489  0.00  0.00    -0.279 N 
ATOM     14  H   UNL     1      -2.104   3.336  -1.001  0.00  0.00    +0.155 HD
BRANCH  13  15
ATOM     15  C   UNL     1      -0.039   3.734  -0.463  0.00  0.00    +0.076 A 
ATOM     16  C   UNL     1       0.788   3.709   0.651  0.00  0.00    +0.027 A 
ATOM     17  C   UNL     1       1.941   4.471   0.672  0.00  0.00    +0.002 A 
ATOM     18  C   UNL     1       2.268   5.267  -0.410  0.00  0.00    +0.004 A 
ATOM     19  C   UNL     1       1.447   5.301  -1.521  0.00  0.00    +0.047 A 
ATOM     20  C   UNL     1       0.292   4.537  -1.553  0.00  0.00    +0.141 A 
BRANCH  20  21
ATOM     21  O   UNL     1      -0.518   4.570  -2.645  0.00  0.00    -0.493 OA
ATOM     22  C   UNL     1      -0.116   5.415  -3.725  0.00  0.00    +0.277 C 
ENDBRANCH  20  21
ENDBRANCH  13  15
ENDBRANCH   8  11
ENDBRANCH   3   5
BRANCH   1  23
ATOM     23  C   UNL     1      -6.913  -3.729  -0.176  0.00  0.00    +0.014 C 
ATOM     24  C   UNL     1      -7.697  -3.533  -1.476  0.00  0.00    -0.004 C 
BRANCH  23  25
ATOM     25  N   UNL     1      -6.520  -5.139  -0.050  0.00  0.00    +0.391 N 
ATOM     26  H   UNL     1      -5.675  -5.207   0.652  0.00  0.00    -0.084 HD
ATOM     27  H   UNL     1      -6.206  -5.507  -1.038  0.00  0.00    -0.084 HD
BRANCH  25  28
ATOM     28  C   UNL     1      -7.636  -5.955   0.446  0.00  0.00    -0.043 C 
ATOM     29  C   UNL     1      -7.386  -7.424   0.101  0.00  0.00    -0.009 C 
BRANCH  28  33
ATOM     30  C   UNL     1      -7.945  -5.522   4.684  0.00  0.00    -0.048 A 
ATOM     31  C   UNL     1      -9.089  -5.569   3.909  0.00  0.00    +0.004 A 
ATOM     32  C   UNL     1      -8.989  -5.709   2.538  0.00  0.00    +0.002 A 
ATOM     33  C   UNL     1      -7.745  -5.802   1.941  0.00  0.00    -0.062 A 
ATOM     34  C   UNL     1      -6.602  -5.759   2.717  0.00  0.00    +0.002 A 
ATOM     35  C   UNL     1      -6.702  -5.614   4.088  0.00  0.00    +0.004 A 
BRANCH  30  37
ATOM     36  C   UNL     1      -8.128  -6.753   6.829  0.00  0.00    +0.009 C 
ATOM     37  C   UNL     1      -8.054  -5.369   6.180  0.00  0.00    +0.032 C 
ENDBRANCH  30  37
ENDBRANCH  28  33
ENDBRANCH  25  28
ENDBRANCH  23  25
ENDBRANCH   1  23
TORSDOF 9
