REMARK  Name = ZINC10302326
REMARK  3 active torsions:
REMARK  status: ('A' for Active; 'I' for Inactive)
REMARK    1  A    between atoms: C_1  and  C_2
REMARK    2  A    between atoms: C_2  and  C_9
REMARK    3  A    between atoms: N_3  and  N_4
REMARK                            x       y       z     vdW  Elec       q    Type
REMARK                         _______ _______ _______ _____ _____    ______ ____
ROOT
ATOM      1  C   UNL     1      -0.215   1.534   0.033  0.00  0.00    +0.068 C 
ATOM      2  C   UNL     1       0.277   0.112  -0.050  0.00  0.00    +0.066 C 
ATOM      3  N   UNL     1       0.382  -0.602   1.029  0.00  0.00    -0.169 NA
ENDROOT
BRANCH   2   4
ATOM      4  C   UNL     1       0.641  -0.469  -1.356  0.00  0.00    -0.001 A 
ATOM      5  C   UNL     1      -0.103  -0.152  -2.495  0.00  0.00    +0.011 A 
ATOM      6  C   UNL     1       0.241  -0.698  -3.714  0.00  0.00    +0.022 A 
ATOM      7  C   UNL     1       1.323  -1.558  -3.811  0.00  0.00    +0.059 A 
ATOM      8  C   UNL     1       2.065  -1.876  -2.684  0.00  0.00    +0.060 A 
ATOM      9  C   UNL     1       1.734  -1.332  -1.460  0.00  0.00    +0.031 A 
ATOM     10 CL   UNL     1       3.418  -2.956  -2.815  0.00  0.00    -0.082 Cl
ATOM     11 CL   UNL     1       1.750  -2.240  -5.349  0.00  0.00    -0.082 Cl
ENDBRANCH   2   4
BRANCH   3  12
ATOM     12  N   UNL     1       0.697  -1.964   0.940  0.00  0.00    -0.207 N 
ATOM     13  C   UNL     1       0.053  -2.911   0.199  0.00  0.00    +0.248 A 
ATOM     14  N   UNL     1       0.669  -4.045   0.402  0.00  0.00    -0.136 NA
ATOM     15  N   UNL     1       1.649  -3.871   1.215  0.00  0.00    -0.136 NA
ATOM     16  C   UNL     1       1.715  -2.616   1.571  0.00  0.00    +0.248 A 
ENDBRANCH   3  12
TORSDOF 2
