REMARK  Name = ZINC09255508
REMARK  8 active torsions:
REMARK  status: ('A' for Active; 'I' for Inactive)
REMARK    1  A    between atoms: C_1  and  C_2
REMARK    2  A    between atoms: C_4  and  N_28
REMARK    3  A    between atoms: C_7  and  N_8
REMARK    4  A    between atoms: C_9  and  C_11
REMARK    5  A    between atoms: N_14  and  S_17
REMARK    6  A    between atoms: S_17  and  C_20
REMARK    7  A    between atoms: C_21  and  C_22
REMARK    8  A    between atoms: C_33  and  N_68
REMARK                            x       y       z     vdW  Elec       q    Type
REMARK                         _______ _______ _______ _____ _____    ______ ____
ROOT
ATOM      1  N   UNL     1      -3.226   5.069  -5.798  0.00  0.00    -0.285 N 
ATOM      2  C   UNL     1      -3.577   4.233  -6.795  0.00  0.00    +0.220 C 
ATOM      3  O   UNL     1      -3.451   3.035  -6.654  0.00  0.00    -0.275 OA
ATOM      4  H   UNL     1      -3.401   6.020  -5.878  0.00  0.00    +0.155 HD
ENDROOT
BRANCH   1  11
ATOM      5  C   UNL     1      -3.472   6.554  -3.385  0.00  0.00    +0.046 C 
ATOM      6  C   UNL     1      -2.703   5.259  -3.447  0.00  0.00    -0.028 A 
ATOM      7  C   UNL     1      -2.094   4.763  -2.311  0.00  0.00    +0.028 A 
ATOM      8  C   UNL     1      -1.385   3.571  -2.369  0.00  0.00    +0.030 A 
ATOM      9  C   UNL     1      -1.285   2.879  -3.569  0.00  0.00    +0.025 A 
ATOM     10  C   UNL     1      -1.899   3.372  -4.703  0.00  0.00    +0.025 A 
ATOM     11  C   UNL     1      -2.608   4.565  -4.646  0.00  0.00    +0.036 A 
BRANCH   8  12
ATOM     12  N   UNL     1      -0.767   3.068  -1.218  0.00  0.00    -0.333 N 
ATOM     13  C   UNL     1      -0.076   1.802  -1.502  0.00  0.00    +0.086 C 
ATOM     14  C   UNL     1       0.651   1.328  -0.241  0.00  0.00    -0.060 C 
ATOM     15  C   UNL     1      -1.012   2.427   1.132  0.00  0.00    -0.060 C 
ATOM     16  C   UNL     1      -1.739   2.901  -0.129  0.00  0.00    +0.086 C 
ATOM     17  C   UNL     1       0.329   0.634   2.056  0.00  0.00    -0.096 C 
ATOM     18  N   UNL     1      -0.340   1.143   0.840  0.00  0.00    +0.380 N 
ATOM     19  H   UNL     1      -1.043   0.460   0.535  0.00  0.00    -0.082 HD
ENDBRANCH   8  12
ENDBRANCH   1  11
BRANCH   2  20
ATOM     20  C   UNL     1      -4.127   4.786  -8.084  0.00  0.00    +0.078 C 
ATOM     21  C   UNL     1      -5.405   5.577  -7.795  0.00  0.00    +0.030 C 
ATOM     22  C   UNL     1      -5.942   6.167  -9.103  0.00  0.00    +0.110 C 
ATOM     23  N   UNL     1      -6.112   5.080 -10.077  0.00  0.00    -0.177 NA
ATOM     24  C   UNL     1      -4.970   4.201 -10.361  0.00  0.00    +0.110 C 
ATOM     25  C   UNL     1      -4.444   3.633  -9.040  0.00  0.00    +0.030 C 
BRANCH  23  26
ATOM     26  S   UNL     1      -7.564   4.851 -10.841  0.00  0.00    +0.054 S 
ATOM     27  O   UNL     1      -8.240   6.101 -10.812  0.00  0.00    -0.153 OA
ATOM     28  O   UNL     1      -7.282   4.165 -12.052  0.00  0.00    -0.153 OA
BRANCH  26  29
ATOM     29  C   UNL     1      -8.508   3.746  -9.844  0.00  0.00    +0.153 C 
ATOM     30  C   UNL     1      -9.628   4.163  -9.270  0.00  0.00    +0.028 C 
BRANCH  30  31
ATOM     31  C   UNL     1     -10.419   3.236  -8.434  0.00  0.00    -0.024 A 
ATOM     32  C   UNL     1      -9.994   1.919  -8.252  0.00  0.00    +0.008 A 
ATOM     33  C   UNL     1     -10.734   1.061  -7.466  0.00  0.00    +0.001 A 
ATOM     34  C   UNL     1     -11.903   1.499  -6.869  0.00  0.00    +0.000 A 
ATOM     35  C   UNL     1     -12.333   2.801  -7.050  0.00  0.00    +0.001 A 
ATOM     36  C   UNL     1     -11.599   3.671  -7.829  0.00  0.00    +0.008 A 
ENDBRANCH  30  31
ENDBRANCH  26  29
ENDBRANCH  23  26
ENDBRANCH   2  20
TORSDOF 6
