REMARK  Name = ZINC66939230
REMARK  9 active torsions:
REMARK  status: ('A' for Active; 'I' for Inactive)
REMARK    1  A    between atoms: C_1  and  C_2
REMARK    2  A    between atoms: C_2  and  C_3
REMARK    3  A    between atoms: C_2  and  C_4
REMARK    4  A    between atoms: C_4  and  C_6
REMARK    5  A    between atoms: C_4  and  N_20
REMARK    6  A    between atoms: C_6  and  N_7
REMARK    7  A    between atoms: N_7  and  C_8
REMARK    8  A    between atoms: C_8  and  C_10
REMARK    9  A    between atoms: C_8  and  C_17
REMARK                            x       y       z     vdW  Elec       q    Type
REMARK                         _______ _______ _______ _____ _____    ______ ____
ROOT
ATOM      1  C   UNL     1      -1.258  -2.054   0.178  0.00  0.00    +0.067 C 
ENDROOT
BRANCH   1   2
ATOM      2  N   UNL     1      -2.566  -2.697  -0.004  0.00  0.00    -0.304 NA
ATOM      3  H   UNL     1      -3.227  -2.375   0.688  0.00  0.00    +0.123 HD
BRANCH   2   4
ATOM      4  C   UNL     1      -2.443  -4.161   0.028  0.00  0.00    +0.171 C 
BRANCH   4   5
ATOM      5  C   UNL     1      -3.756  -4.766   0.452  0.00  0.00    -0.021 A 
ATOM      6  C   UNL     1      -4.944  -4.243  -0.024  0.00  0.00    +0.008 A 
ATOM      7  C   UNL     1      -6.149  -4.798   0.364  0.00  0.00    +0.038 A 
ATOM      8  C   UNL     1      -6.166  -5.878   1.230  0.00  0.00    +0.123 A 
ATOM      9  C   UNL     1      -4.976  -6.401   1.706  0.00  0.00    +0.038 A 
ATOM     10  C   UNL     1      -3.772  -5.848   1.313  0.00  0.00    +0.008 A 
ATOM     11  F   UNL     1      -7.343  -6.421   1.610  0.00  0.00    -0.205 F 
ENDBRANCH   4   5
BRANCH   4  12
ATOM     12  C   UNL     1      -2.077  -4.664  -1.344  0.00  0.00    +0.232 C 
ATOM     13  O   UNL     1      -1.934  -3.881  -2.259  0.00  0.00    -0.274 OA
ATOM     14  N   UNL     1      -1.910  -5.985  -1.555  0.00  0.00    -0.328 N 
ATOM     15  H   UNL     1      -2.025  -6.611  -0.823  0.00  0.00    +0.145 HD
ATOM     16  H   UNL     1      -1.675  -6.309  -2.438  0.00  0.00    +0.145 HD
ENDBRANCH   4  12
ENDBRANCH   2   4
ENDBRANCH   1   2
BRANCH   1  17
ATOM     17  C   UNL     1      -1.427  -0.534   0.139  0.00  0.00    -0.051 C 
BRANCH  17  18
ATOM     18  N   UNL     1      -1.945  -0.133  -1.176  0.00  0.00    +0.385 N 
ATOM     19  C   UNL     1      -3.307  -0.662  -1.350  0.00  0.00    -0.073 C 
ATOM     20  C   UNL     1      -3.939   0.011  -2.569  0.00  0.00    +0.017 C 
ATOM     21  C   UNL     1      -3.008  -0.092  -3.750  0.00  0.00    -0.048 A 
ATOM     22  C   UNL     1      -3.515   0.138  -5.019  0.00  0.00    +0.004 A 
ATOM     23  C   UNL     1      -2.691   0.055  -6.124  0.00  0.00    +0.000 A 
ATOM     24  C   UNL     1      -1.354  -0.259  -5.963  0.00  0.00    +0.000 A 
ATOM     25  C   UNL     1      -0.849  -0.489  -4.699  0.00  0.00    +0.002 A 
ATOM     26  C   UNL     1      -1.675  -0.408  -3.588  0.00  0.00    -0.061 A 
ATOM     27  C   UNL     1      -1.084  -0.676  -2.230  0.00  0.00    -0.042 C 
ATOM     28  H   UNL     1      -1.962   0.874  -1.239  0.00  0.00    -0.081 HD
ENDBRANCH  17  18
BRANCH  17  30
ATOM     29  C   UNL     1      -0.256   1.653   0.433  0.00  0.00    +0.005 C 
ATOM     30  C   UNL     1      -0.072   0.136   0.379  0.00  0.00    -0.030 C 
ATOM     31  C   UNL     1       0.512  -0.355   1.705  0.00  0.00    +0.005 C 
ENDBRANCH  17  30
ENDBRANCH   1  17
TORSDOF 7
