REMARK  Name = ZINC01295668
REMARK  7 active torsions:
REMARK  status: ('A' for Active; 'I' for Inactive)
REMARK    1  A    between atoms: C_1  and  C_2
REMARK    2  A    between atoms: C_5  and  N_9
REMARK    3  A    between atoms: C_7  and  C_8
REMARK    4  A    between atoms: C_16  and  C_18
REMARK    5  A    between atoms: C_18  and  S_19
REMARK    6  A    between atoms: S_19  and  C_20
REMARK    7  A    between atoms: C_20  and  C_21
REMARK                            x       y       z     vdW  Elec       q    Type
REMARK                         _______ _______ _______ _____ _____    ______ ____
ROOT
ATOM      1  N   UNL     1      -2.456   3.823   0.046  0.00  0.00    -0.269 N 
ATOM      2  C   UNL     1      -3.614   3.140  -0.048  0.00  0.00    +0.310 C 
ATOM      3  O   UNL     1      -3.604   1.924  -0.055  0.00  0.00    -0.252 OA
ATOM      4  N   UNL     1      -4.783   3.805  -0.135  0.00  0.00    -0.247 N 
ATOM      5  C   UNL     1      -5.978   3.100  -0.232  0.00  0.00    +0.189 A 
ATOM      6  N   UNL     1      -6.187   1.794  -0.256  0.00  0.00    -0.126 NA
ATOM      7  N   UNL     1      -7.347   1.306  -0.348  0.00  0.00    -0.144 NA
ATOM      8  C   UNL     1      -8.403   2.092  -0.425  0.00  0.00    +0.113 A 
ATOM      9  S   UNL     1      -7.609   3.693  -0.348  0.00  0.00    -0.034 S 
ATOM     10  H   UNL     1      -2.470   4.919   0.140  0.00  0.00    +0.156 HD
ATOM     11  H   UNL     1      -4.793   4.904  -0.130  0.00  0.00    +0.158 HD
ENDROOT
BRANCH   1  16
ATOM     12  C   UNL     1       2.490   1.046  -0.043  0.00  0.00    +0.044 C 
ATOM     13  C   UNL     1       1.177   1.784  -0.019  0.00  0.00    -0.047 A 
ATOM     14  C   UNL     1       0.104   1.308  -0.751  0.00  0.00    +0.005 A 
ATOM     15  C   UNL     1      -1.099   1.984  -0.737  0.00  0.00    +0.023 A 
ATOM     16  C   UNL     1      -1.236   3.139   0.024  0.00  0.00    +0.035 A 
ATOM     17  C   UNL     1      -0.158   3.615   0.757  0.00  0.00    +0.027 A 
ATOM     18  C   UNL     1       1.046   2.937   0.734  0.00  0.00    -0.046 A 
ATOM     19  C   UNL     1       2.216   3.453   1.530  0.00  0.00    +0.044 C 
ENDBRANCH   1  16
BRANCH   8  20
ATOM     20  C   UNL     1      -9.864   1.740  -0.540  0.00  0.00    +0.134 C 
BRANCH  20  21
ATOM     21  S   UNL     1     -10.581   1.589   1.119  0.00  0.00    -0.149 S 
BRANCH  21  22
ATOM     22  C   UNL     1     -12.319   1.169   0.809  0.00  0.00    +0.104 C 
BRANCH  22  23
ATOM     23  C   UNL     1     -13.040   1.013   2.123  0.00  0.00    -0.037 A 
ATOM     24  C   UNL     1     -13.097  -0.224   2.737  0.00  0.00    +0.006 A 
ATOM     25  C   UNL     1     -13.753  -0.367   3.945  0.00  0.00    +0.020 A 
ATOM     26  C   UNL     1     -14.363   0.726   4.534  0.00  0.00    +0.041 A 
ATOM     27  C   UNL     1     -14.311   1.963   3.916  0.00  0.00    +0.020 A 
ATOM     28  C   UNL     1     -13.649   2.106   2.711  0.00  0.00    +0.006 A 
ATOM     29 CL   UNL     1     -15.193   0.546   6.048  0.00  0.00    -0.084 Cl
ENDBRANCH  22  23
ENDBRANCH  21  22
ENDBRANCH  20  21
ENDBRANCH   8  20
TORSDOF 5
