REMARK  Name = ZINC15829170
REMARK  3 active torsions:
REMARK  status: ('A' for Active; 'I' for Inactive)
REMARK    1  A    between atoms: C_3  and  S_6
REMARK    2  A    between atoms: S_6  and  C_9
REMARK    3  A    between atoms: C_14  and  N_15
REMARK                            x       y       z     vdW  Elec       q    Type
REMARK                         _______ _______ _______ _____ _____    ______ ____
ROOT
ATOM      1  C   UNL     1      -2.936   4.567   1.737  0.00  0.00    +0.152 A 
ATOM      2  C   UNL     1      -2.767   5.830   2.270  0.00  0.00    +0.145 A 
ATOM      3  N   UNL     1      -3.070   6.043   3.542  0.00  0.00    -0.221 NA
ATOM      4  C   UNL     1      -3.522   5.061   4.308  0.00  0.00    +0.220 A 
ATOM      5  N   UNL     1      -3.693   3.835   3.837  0.00  0.00    -0.198 NA
ATOM      6  C   UNL     1      -3.414   3.552   2.568  0.00  0.00    +0.147 A 
ATOM      7  N   UNL     1      -3.821   5.322   5.633  0.00  0.00    -0.300 N 
ATOM      8  C   UNL     1      -2.953   4.530   6.542  0.00  0.00    +0.108 C 
ATOM      9  C   UNL     1      -3.041   5.304   7.881  0.00  0.00    +0.020 C 
ATOM     10  C   UNL     1      -3.075   6.781   7.425  0.00  0.00    +0.020 C 
ATOM     11  C   UNL     1      -3.565   6.740   5.965  0.00  0.00    +0.108 C 
ENDROOT
BRANCH   1  12
ATOM     12  S   UNL     1      -2.551   4.243   0.049  0.00  0.00    +0.036 S 
ATOM     13  O   UNL     1      -2.072   5.463  -0.500  0.00  0.00    -0.164 OA
ATOM     14  O   UNL     1      -3.664   3.547  -0.496  0.00  0.00    -0.164 OA
BRANCH  12  17
ATOM     15  C   UNL     1      -0.013   1.076   0.008  0.00  0.00    +0.009 A 
ATOM     16  C   UNL     1      -1.213   1.761   0.017  0.00  0.00    +0.035 A 
ATOM     17  C   UNL     1      -1.196   3.116   0.030  0.00  0.00    +0.131 A 
ATOM     18  S   UNL     1       0.555   3.464   0.015  0.00  0.00    -0.078 S 
ATOM     19  C   UNL     1       1.146   1.780   0.001  0.00  0.00    +0.047 A 
ENDBRANCH  12  17
ENDBRANCH   1  12
BRANCH   6  20
ATOM     20  N   UNL     1      -3.593   2.269   2.078  0.00  0.00    -0.341 N 
ATOM     21  H   UNL     1      -3.387   2.070   1.152  0.00  0.00    +0.144 HD
ATOM     22  H   UNL     1      -3.925   1.569   2.662  0.00  0.00    +0.144 HD
ENDBRANCH   6  20
TORSDOF 3
