REMARK  Name = ZINC44532551
REMARK  8 active torsions:
REMARK  status: ('A' for Active; 'I' for Inactive)
REMARK    1  A    between atoms: C_1  and  O_2
REMARK    2  A    between atoms: O_2  and  C_3
REMARK    3  A    between atoms: C_6  and  C_11
REMARK    4  A    between atoms: C_8  and  O_9
REMARK    5  A    between atoms: O_9  and  C_10
REMARK    6  A    between atoms: N_13  and  C_14
REMARK    7  A    between atoms: N_18  and  C_19
REMARK    8  A    between atoms: C_19  and  C_20
REMARK                            x       y       z     vdW  Elec       q    Type
REMARK                         _______ _______ _______ _____ _____    ______ ____
ROOT
ATOM      1  C   UNL     1      -4.962  -2.613   0.035  0.00  0.00    +0.249 C 
ATOM      2  O   UNL     1      -5.012  -3.828   0.034  0.00  0.00    -0.270 OA
ATOM      3  N   UNL     1      -6.100  -1.891   0.045  0.00  0.00    -0.267 N 
ATOM      4  H   UNL     1      -6.060  -0.922   0.046  0.00  0.00    +0.157 HD
ENDROOT
BRANCH   1   8
ATOM      5  C   UNL     1      -1.199  -0.637   0.010  0.00  0.00    +0.162 A 
ATOM      6  C   UNL     1      -2.373   0.105   0.019  0.00  0.00    +0.050 A 
ATOM      7  C   UNL     1      -3.595  -0.533   0.027  0.00  0.00    +0.017 A 
ATOM      8  C   UNL     1      -3.654  -1.929   0.026  0.00  0.00    +0.041 A 
ATOM      9  C   UNL     1      -2.473  -2.675   0.017  0.00  0.00    +0.062 A 
ATOM     10  C   UNL     1      -1.252  -2.030   0.003  0.00  0.00    +0.162 A 
BRANCH   5  12
ATOM     11  C   UNL     1      -0.017   1.425   0.010  0.00  0.00    +0.277 C 
ATOM     12  O   UNL     1       0.002  -0.004   0.002  0.00  0.00    -0.491 OA
ENDBRANCH   5  12
BRANCH  10  13
ATOM     13  O   UNL     1      -0.100  -2.754  -0.012  0.00  0.00    -0.491 OA
ATOM     14  C   UNL     1      -0.229  -4.177  -0.018  0.00  0.00    +0.277 C 
ENDBRANCH  10  13
ENDBRANCH   1   8
BRANCH   3  15
ATOM     15  C   UNL     1      -7.335  -2.538   0.054  0.00  0.00    +0.124 A 
ATOM     16  C   UNL     1      -7.539  -3.884   0.060  0.00  0.00    +0.065 A 
ATOM     17  C   UNL     1      -8.918  -4.107   0.068  0.00  0.00    +0.136 A 
ATOM     18  N   UNL     1      -9.526  -2.949   0.067  0.00  0.00    -0.178 NA
ATOM     19  N   UNL     1      -8.554  -1.940   0.064  0.00  0.00    -0.246 N 
BRANCH  19  20
ATOM     20  C   UNL     1      -8.808  -0.497   0.068  0.00  0.00    +0.180 C 
BRANCH  20  21
ATOM     21  C   UNL     1      -8.906  -0.000  -1.352  0.00  0.00    -0.025 A 
ATOM     22  C   UNL     1      -7.771   0.430  -2.013  0.00  0.00    +0.005 A 
ATOM     23  C   UNL     1      -7.859   0.886  -3.315  0.00  0.00    +0.001 A 
ATOM     24  C   UNL     1      -9.084   0.912  -3.956  0.00  0.00    +0.015 A 
ATOM     25  C   UNL     1     -10.220   0.481  -3.295  0.00  0.00    +0.018 A 
ATOM     26  C   UNL     1     -10.129   0.020  -1.994  0.00  0.00    +0.020 A 
ATOM     27 BR   UNL     1     -11.895   0.517  -4.171  0.00  0.00    -0.050 Br
ENDBRANCH  20  21
ENDBRANCH  19  20
ENDBRANCH   3  15
TORSDOF 6
