REMARK  Name = ZINC27545181
REMARK  11 active torsions:
REMARK  status: ('A' for Active; 'I' for Inactive)
REMARK    1  A    between atoms: C_1  and  C_2
REMARK    2  A    between atoms: C_4  and  N_11
REMARK    3  A    between atoms: C_6  and  C_8
REMARK    4  A    between atoms: C_8  and  C_9
REMARK    5  A    between atoms: C_8  and  C_10
REMARK    6  A    between atoms: N_14  and  C_17
REMARK    7  A    between atoms: C_17  and  C_19
REMARK    8  A    between atoms: C_17  and  C_20
REMARK    9  A    between atoms: N_22  and  C_23
REMARK   10  A    between atoms: C_26  and  O_29
REMARK   11  A    between atoms: O_29  and  C_30
REMARK                            x       y       z     vdW  Elec       q    Type
REMARK                         _______ _______ _______ _____ _____    ______ ____
ROOT
ATOM      1  N   UNL     1       3.922  -0.359   0.287  0.00  0.00    -0.319 N 
ATOM      2  C   UNL     1       4.780   0.003  -0.849  0.00  0.00    +0.088 C 
ATOM      3  C   UNL     1       6.006  -0.912  -0.872  0.00  0.00    -0.059 C 
ATOM      4  N   UNL     1       5.567  -2.311  -0.973  0.00  0.00    +0.389 N 
ATOM      5  C   UNL     1       4.710  -2.674   0.164  0.00  0.00    -0.059 C 
ATOM      6  C   UNL     1       3.484  -1.758   0.187  0.00  0.00    +0.088 C 
ATOM      7  H   UNL     1       4.974  -2.416  -1.893  0.00  0.00    -0.081 HD
ENDROOT
BRANCH   1  11
ATOM      8  C   UNL     1       2.064   4.180   0.697  0.00  0.00    +0.066 C 
ATOM      9  C   UNL     1       1.912   2.685   0.581  0.00  0.00    +0.044 A 
ATOM     10  C   UNL     1       3.027   1.875   0.488  0.00  0.00    +0.066 A 
ATOM     11  C   UNL     1       2.837   0.496   0.383  0.00  0.00    +0.125 A 
ATOM     12  N   UNL     1       1.596   0.016   0.376  0.00  0.00    -0.217 NA
ATOM     13  C   UNL     1       0.561   0.827   0.467  0.00  0.00    +0.134 A 
ATOM     14  N   UNL     1       0.708   2.132   0.568  0.00  0.00    -0.237 NA
BRANCH  13  15
ATOM     15  C   UNL     1      -0.829   0.244   0.456  0.00  0.00    +0.051 C 
ATOM     16  C   UNL     1      -1.545   0.610   1.757  0.00  0.00    +0.015 C 
ATOM     17  C   UNL     1      -1.609   0.809  -0.733  0.00  0.00    +0.015 C 
ENDBRANCH  13  15
ENDBRANCH   1  11
BRANCH   4  18
ATOM     18  C   UNL     1       6.719  -3.218  -1.074  0.00  0.00    +0.017 C 
ATOM     19  C   UNL     1       7.613  -3.046   0.155  0.00  0.00    -0.004 C 
BRANCH  18  20
ATOM     20  C   UNL     1       7.506  -2.894  -2.317  0.00  0.00    +0.203 C 
ATOM     21  O   UNL     1       7.144  -1.995  -3.047  0.00  0.00    -0.277 OA
ATOM     22  N   UNL     1       8.613  -3.602  -2.618  0.00  0.00    -0.287 N 
ATOM     23  H   UNL     1       8.991  -4.357  -1.914  0.00  0.00    +0.155 HD
BRANCH  22  24
ATOM     24  C   UNL     1       9.282  -3.375  -3.828  0.00  0.00    +0.034 A 
ATOM     25  C   UNL     1       8.565  -3.021  -4.963  0.00  0.00    +0.027 A 
ATOM     26  C   UNL     1       9.226  -2.793  -6.154  0.00  0.00    +0.047 A 
ATOM     27  C   UNL     1      10.605  -2.928  -6.219  0.00  0.00    +0.127 A 
ATOM     28  C   UNL     1      11.322  -3.286  -5.086  0.00  0.00    +0.047 A 
ATOM     29  C   UNL     1      10.663  -3.509  -3.893  0.00  0.00    +0.027 A 
BRANCH  27  30
ATOM     30  O   UNL     1      11.255  -2.708  -7.393  0.00  0.00    -0.434 OA
BRANCH  30  31
ATOM     31  C   UNL     1      10.454  -2.342  -8.518  0.00  0.00    +0.541 C 
ATOM     32  F   UNL     1       9.531  -3.359  -8.784  0.00  0.00    -0.166 F 
ATOM     33  F   UNL     1       9.771  -1.154  -8.239  0.00  0.00    -0.166 F 
ENDBRANCH  30  31
ENDBRANCH  27  30
ENDBRANCH  22  24
ENDBRANCH  18  20
ENDBRANCH   4  18
TORSDOF 7
