REMARK  Name = ZINC01437969
REMARK  5 active torsions:
REMARK  status: ('A' for Active; 'I' for Inactive)
REMARK    1  A    between atoms: C_4  and  C_7
REMARK    2  A    between atoms: C_12  and  C_20
REMARK    3  A    between atoms: C_14  and  C_18
REMARK    4  A    between atoms: C_15  and  N_17
REMARK    5  A    between atoms: C_23  and  N_25
REMARK                            x       y       z     vdW  Elec       q    Type
REMARK                         _______ _______ _______ _____ _____    ______ ____
ROOT
ATOM      1  C   UNL     1       2.451   3.937   0.001  0.00  0.00    +0.034 C 
ATOM      2  C   UNL     1       2.502   4.844  -1.230  0.00  0.00    +0.083 C 
ATOM      3  C   UNL     1       3.781   5.648  -1.216  0.00  0.00    +0.115 C 
ATOM      4  C   UNL     1       4.352   6.010  -0.052  0.00  0.00    +0.046 C 
ATOM      5  C   UNL     1       5.623   6.825  -0.041  0.00  0.00    +0.108 C 
ATOM      6  C   UNL     1       6.308   6.730  -1.375  0.00  0.00    +0.099 C 
ATOM      7  C   UNL     1       5.623   6.319  -2.470  0.00  0.00    +0.198 C 
ATOM      8  O   UNL     1       4.323   5.992  -2.399  0.00  0.00    -0.445 OA
ATOM      9  C   UNL     1       3.788   5.643   1.185  0.00  0.00    +0.164 C 
ATOM     10  O   UNL     1       4.323   6.003   2.214  0.00  0.00    -0.292 OA
ATOM     11  C   UNL     1       2.535   4.813   1.255  0.00  0.00    +0.088 C 
ENDROOT
BRANCH   1  15
ATOM     12  C   UNL     1      -1.219   1.751   0.017  0.00  0.00    +0.000 A 
ATOM     13  C   UNL     1      -0.013   1.076   0.008  0.00  0.00    +0.000 A 
ATOM     14  C   UNL     1       1.175   1.783   0.000  0.00  0.00    +0.004 A 
ATOM     15  C   UNL     1       1.156   3.165   0.008  0.00  0.00    -0.043 A 
ATOM     16  C   UNL     1      -0.050   3.840   0.023  0.00  0.00    +0.004 A 
ATOM     17  C   UNL     1      -1.238   3.133   0.029  0.00  0.00    +0.000 A 
ENDBRANCH   1  15
BRANCH   5  18
ATOM     18  C   UNL     1       5.290   8.265   0.249  0.00  0.00    +0.005 A 
ATOM     19  C   UNL     1       5.705   9.048   1.275  0.00  0.00    +0.014 A 
ATOM     20  C   UNL     1       5.266  10.357   1.340  0.00  0.00    +0.041 A 
ATOM     21  C   UNL     1       4.433  10.820   0.376  0.00  0.00    +0.164 A 
ATOM     22  S   UNL     1       4.252   9.387  -0.674  0.00  0.00    -0.068 S 
BRANCH  21  23
ATOM     23  N   UNL     1       3.835  12.166   0.228  0.00  0.00    +0.063 N 
ATOM     24  O   UNL     1       4.078  13.034   1.048  0.00  0.00    -0.126 OA
ATOM     25  O   UNL     1       3.100  12.406  -0.713  0.00  0.00    -0.126 OA
ENDBRANCH  21  23
ENDBRANCH   5  18
BRANCH   7  26
ATOM     26  N   UNL     1       6.272   6.234  -3.676  0.00  0.00    -0.328 N 
ATOM     27  H   UNL     1       7.211   6.468  -3.739  0.00  0.00    +0.145 HD
ATOM     28  H   UNL     1       5.792   5.941  -4.466  0.00  0.00    +0.145 HD
ENDBRANCH   7  26
BRANCH   6  29
ATOM     29  C   UNL     1       7.693   7.077  -1.491  0.00  0.00    +0.101 C 
ATOM     30  N   UNL     1       8.791   7.351  -1.583  0.00  0.00    -0.191 NA
ENDBRANCH   6  29
TORSDOF 5
