REMARK  Name = ZINC16566404
REMARK  12 active torsions:
REMARK  status: ('A' for Active; 'I' for Inactive)
REMARK    1  A    between atoms: C_1  and  C_2
REMARK    2  A    between atoms: C_2  and  C_3
REMARK    3  A    between atoms: C_3  and  N_4
REMARK    4  A    between atoms: C_5  and  C_7
REMARK    5  A    between atoms: C_10  and  C_12
REMARK    6  A    between atoms: C_12  and  N_13
REMARK    7  A    between atoms: C_17  and  C_18
REMARK    8  A    between atoms: C_18  and  N_19
REMARK    9  A    between atoms: N_19  and  C_20
REMARK   10  A    between atoms: C_20  and  C_21
REMARK   11  A    between atoms: C_21  and  C_22
REMARK   12  A    between atoms: C_23  and  C_25
REMARK                            x       y       z     vdW  Elec       q    Type
REMARK                         _______ _______ _______ _____ _____    ______ ____
ROOT
ATOM      1  N   UNL     1      -0.152  -0.938  -0.571  0.00  0.00    -0.343 N 
ATOM      2  C   UNL     1      -0.691  -1.978   0.126  0.00  0.00    +0.086 A 
ATOM      3  C   UNL     1      -0.904  -1.570   1.394  0.00  0.00    +0.019 A 
ATOM      4  C   UNL     1      -0.475  -0.231   1.484  0.00  0.00    +0.024 A 
ATOM      5  C   UNL     1      -0.016   0.128   0.268  0.00  0.00    +0.036 A 
ENDROOT
BRANCH   1   6
ATOM      6  C   UNL     1       0.224  -0.963  -1.987  0.00  0.00    +0.184 C 
BRANCH   6  10
ATOM      7  C   UNL     1       3.620  -2.493  -2.241  0.00  0.00    +0.133 A 
ATOM      8  C   UNL     1       4.307  -1.310  -2.349  0.00  0.00    +0.080 A 
ATOM      9  S   UNL     1       3.016  -0.153  -2.283  0.00  0.00    -0.078 S 
ATOM     10  C   UNL     1       1.696  -1.263  -2.111  0.00  0.00    +0.099 A 
ATOM     11  N   UNL     1       2.293  -2.426  -2.121  0.00  0.00    -0.238 NA
BRANCH   7  13
ATOM     12  N   UNL     1       3.622  -4.934  -2.147  0.00  0.00    -0.310 N 
ATOM     13  C   UNL     1       4.322  -3.787  -2.255  0.00  0.00    +0.263 C 
ATOM     14  O   UNL     1       5.533  -3.821  -2.365  0.00  0.00    -0.269 OA
ATOM     15  H   UNL     1       2.657  -4.907  -2.059  0.00  0.00    +0.149 HD
BRANCH  12  16
ATOM     16  C   UNL     1       4.321  -6.222  -2.161  0.00  0.00    +0.104 C 
BRANCH  16  18
ATOM     17  C   UNL     1       4.031  -8.701  -2.039  0.00  0.00    +0.005 C 
ATOM     18  C   UNL     1       3.302  -7.356  -2.024  0.00  0.00    +0.015 C 
ENDBRANCH  16  18
ENDBRANCH  12  16
ENDBRANCH   7  13
ENDBRANCH   6  10
ENDBRANCH   1   6
BRANCH   5  19
ATOM     19  C   UNL     1       0.545   1.477  -0.101  0.00  0.00    +0.161 C 
BRANCH  19  20
ATOM     20  N   UNL     1       0.015   2.493   0.811  0.00  0.00    -0.292 N 
ATOM     21  C   UNL     1       0.662   2.770   1.961  0.00  0.00    +0.250 C 
ATOM     22  O   UNL     1       1.712   2.214   2.216  0.00  0.00    -0.270 OA
BRANCH  21  23
ATOM     23  C   UNL     1       0.095   3.749   2.910  0.00  0.00    +0.072 A 
ATOM     24  C   UNL     1      -1.289   3.894   3.026  0.00  0.00    +0.016 A 
ATOM     25  C   UNL     1      -1.812   4.806   3.919  0.00  0.00    +0.001 A 
ATOM     26  C   UNL     1      -0.969   5.586   4.691  0.00  0.00    +0.003 A 
ATOM     27  C   UNL     1       0.402   5.455   4.579  0.00  0.00    +0.039 A 
ATOM     28  C   UNL     1       0.942   4.540   3.693  0.00  0.00    +0.135 A 
ATOM     29  F   UNL     1       2.282   4.412   3.583  0.00  0.00    -0.205 F 
ENDBRANCH  21  23
BRANCH  20  30
ATOM     30  C   UNL     1      -1.219   3.208   0.475  0.00  0.00    +0.108 C 
BRANCH  30  31
ATOM     31  C   UNL     1      -2.397   2.232   0.501  0.00  0.00    +0.016 C 
ATOM     32  C   UNL     1      -3.686   2.978   0.149  0.00  0.00    +0.005 C 
ENDBRANCH  30  31
ENDBRANCH  20  30
ENDBRANCH  19  20
ENDBRANCH   5  19
TORSDOF 10
