REMARK  Name = ZINC25501404
REMARK  19 active torsions:
REMARK  status: ('A' for Active; 'I' for Inactive)
REMARK    1  A    between atoms: C_1  and  C_2
REMARK    2  A    between atoms: C_2  and  C_3
REMARK    3  A    between atoms: C_3  and  C_4
REMARK    4  A    between atoms: C_4  and  S_5
REMARK    5  A    between atoms: S_5  and  C_6
REMARK    6  A    between atoms: C_6  and  C_7
REMARK    7  A    between atoms: C_7  and  N_8
REMARK    8  A    between atoms: N_8  and  CA_9
REMARK    9  A    between atoms: CA_9  and  C_11
REMARK   10  A    between atoms: CA_9  and  C_26
REMARK   11  A    between atoms: C_11  and  C_12
REMARK   12  A    between atoms: C_15  and  O_18
REMARK   13  A    between atoms: O_18  and  C_19
REMARK   14  A    between atoms: C_19  and  C_20
REMARK   15  A    between atoms: C_20  and  S_21
REMARK   16  A    between atoms: S_21  and  C_22
REMARK   17  A    between atoms: C_22  and  C_23
REMARK   18  A    between atoms: C_23  and  C_24
REMARK   19  A    between atoms: C_24  and  C_25
REMARK                            x       y       z     vdW  Elec       q    Type
REMARK                         _______ _______ _______ _____ _____    ______ ____
ROOT
ATOM      1  C   UNL     1      -0.729   1.579   1.267  0.00  0.00    +0.030 C 
ENDROOT
BRANCH   1   2
ATOM      2  C   UNL     1      -0.074   0.981   2.485  0.00  0.00    -0.048 A 
ATOM      3  C   UNL     1      -0.524  -0.226   2.988  0.00  0.00    +0.007 A 
ATOM      4  C   UNL     1       0.079  -0.780   4.101  0.00  0.00    +0.046 A 
ATOM      5  C   UNL     1       1.129  -0.119   4.720  0.00  0.00    +0.121 A 
ATOM      6  C   UNL     1       1.575   1.094   4.217  0.00  0.00    +0.046 A 
ATOM      7  C   UNL     1       0.973   1.641   3.101  0.00  0.00    +0.007 A 
BRANCH   5   8
ATOM      8  O   UNL     1       1.720  -0.659   5.819  0.00  0.00    -0.491 OA
BRANCH   8   9
ATOM      9  C   UNL     1       1.208  -1.911   6.281  0.00  0.00    +0.239 C 
BRANCH   9  10
ATOM     10  C   UNL     1       1.993  -2.357   7.517  0.00  0.00    +0.110 C 
BRANCH  10  11
ATOM     11  S   UNL     1       1.343  -3.946   8.104  0.00  0.00    -0.157 S 
BRANCH  11  12
ATOM     12  C   UNL     1       2.366  -4.329   9.552  0.00  0.00    +0.069 C 
BRANCH  12  13
ATOM     13  C   UNL     1       1.919  -5.663  10.153  0.00  0.00    +0.010 C 
BRANCH  13  14
ATOM     14  C   UNL     1       2.781  -5.987  11.375  0.00  0.00    -0.003 C 
ATOM     15  C   UNL     1       2.334  -7.321  11.976  0.00  0.00    +0.004 C 
ENDBRANCH  13  14
ENDBRANCH  12  13
ENDBRANCH  11  12
ENDBRANCH  10  11
ENDBRANCH   9  10
ENDBRANCH   8   9
ENDBRANCH   5   8
ENDBRANCH   1   2
BRANCH   1  16
ATOM     16  CA  UNL     1      -0.013   1.086   0.008  0.00  0.00    +0.048 C 
BRANCH  16  17
ATOM     17  C   UNL     1      -0.742   1.585  -1.213  0.00  0.00    +0.343 C 
ATOM     18  O   UNL     1      -0.172   2.292  -2.010  0.00  0.00    -0.248 OA
ATOM     19  OXT UNL     1      -2.024   1.244  -1.415  0.00  0.00    -0.248 OA
ENDBRANCH  16  17
BRANCH  16  20
ATOM     20  N   UNL     1       1.365   1.594  -0.002  0.00  0.00    +0.389 N 
ATOM     21  H1  UNL     1       1.735   1.633   1.033  0.00  0.00    -0.085 HD
ATOM     22  H2  UNL     1       1.364   2.608  -0.430  0.00  0.00    -0.085 HD
BRANCH  20  23
ATOM     23  C   UNL     1       2.241   0.727  -0.802  0.00  0.00    -0.071 C 
BRANCH  23  24
ATOM     24  C   UNL     1       3.664   1.287  -0.789  0.00  0.00    +0.050 C 
BRANCH  24  25
ATOM     25  S   UNL     1       4.745   0.216  -1.777  0.00  0.00    -0.163 S 
BRANCH  25  26
ATOM     26  C   UNL     1       6.372   1.009  -1.661  0.00  0.00    +0.069 C 
BRANCH  26  27
ATOM     27  C   UNL     1       7.393   0.196  -2.461  0.00  0.00    +0.010 C 
BRANCH  27  29
ATOM     28  C   UNL     1       9.787   0.052  -3.163  0.00  0.00    +0.004 C 
ATOM     29  C   UNL     1       8.766   0.865  -2.364  0.00  0.00    -0.003 C 
ENDBRANCH  27  29
ENDBRANCH  26  27
ENDBRANCH  25  26
ENDBRANCH  24  25
ENDBRANCH  23  24
ENDBRANCH  20  23
ENDBRANCH  16  20
ENDBRANCH   1  16
TORSDOF 17
