REMARK  Name = ZINC16430939
REMARK  1 active torsions:
REMARK  status: ('A' for Active; 'I' for Inactive)
REMARK    1  A    between atoms: C_5  and  C_15
REMARK                            x       y       z     vdW  Elec       q    Type
REMARK                         _______ _______ _______ _____ _____    ______ ____
ROOT
ATOM      1  C   UNL     1      -0.018   1.469   0.010  0.00  0.00    +0.033 A 
ATOM      2  C   UNL     1       1.116   2.187   0.003  0.00  0.00    +0.032 A 
ATOM      3  C   UNL     1       2.418   1.526  -0.013  0.00  0.00    +0.093 A 
ATOM      4  N   UNL     1       3.539   2.244  -0.020  0.00  0.00    -0.235 NA
ATOM      5  C   UNL     1       4.714   1.629  -0.035  0.00  0.00    +0.193 A 
ATOM      6  C   UNL     1       4.779   0.223  -0.043  0.00  0.00    +0.301 A 
ATOM      7  O   UNL     1       5.984  -0.396  -0.058  0.00  0.00    -0.263 OA
ATOM      8  N   UNL     1       3.669  -0.495  -0.037  0.00  0.00    -0.203 NA
ATOM      9  C   UNL     1       2.487   0.116  -0.022  0.00  0.00    +0.121 A 
ATOM     10  C   UNL     1       1.240  -0.681  -0.013  0.00  0.00    +0.127 A 
ATOM     11  C   UNL     1       0.002  -0.004   0.002  0.00  0.00    +0.102 A 
ATOM     12  N   UNL     1      -1.056  -0.818   0.007  0.00  0.00    -0.191 NA
ATOM     13  S   UNL     1      -0.448  -2.307  -0.007  0.00  0.00    +0.117 S 
ATOM     14  N   UNL     1       1.134  -2.009  -0.019  0.00  0.00    -0.189 NA
ENDROOT
BRANCH   5  15
ATOM     15  C   UNL     1       5.960   2.424  -0.042  0.00  0.00    +0.275 C 
ATOM     16  O   UNL     1       7.038   1.864  -0.056  0.00  0.00    -0.268 OA
ATOM     17  N   UNL     1       5.900   3.771  -0.035  0.00  0.00    -0.235 N 
ATOM     18  C   UNL     1       7.037   4.495  -0.041  0.00  0.00    +0.304 C 
ATOM     19  O   UNL     1       8.115   3.935  -0.055  0.00  0.00    -0.253 OA
ATOM     20  N   UNL     1       6.977   5.842  -0.034  0.00  0.00    -0.313 N 
ATOM     21  H   UNL     1       5.040   4.218  -0.024  0.00  0.00    +0.159 HD
ATOM     22  H   UNL     1       6.116   6.289  -0.023  0.00  0.00    +0.146 HD
ATOM     23  H   UNL     1       7.795   6.364  -0.038  0.00  0.00    +0.146 HD
ENDBRANCH   5  15
TORSDOF 1
