REMARK  Name = ZINC00979894
REMARK  7 active torsions:
REMARK  status: ('A' for Active; 'I' for Inactive)
REMARK    1  A    between atoms: C_1  and  C_2
REMARK    2  A    between atoms: C_5  and  N_11
REMARK    3  A    between atoms: C_7  and  N_8
REMARK    4  A    between atoms: C_12  and  C_34
REMARK    5  A    between atoms: C_14  and  C_17
REMARK    6  A    between atoms: C_15  and  C_16
REMARK    7  A    between atoms: N_24  and  C_27
REMARK                            x       y       z     vdW  Elec       q    Type
REMARK                         _______ _______ _______ _____ _____    ______ ____
ROOT
ATOM      1  C   UNL     1      -4.646   7.131  -0.922  0.00  0.00    +0.028 C 
ATOM      2  C   UNL     1      -5.723   7.764  -0.324  0.00  0.00    +0.100 C 
ATOM      3  C   UNL     1      -6.694   8.543  -1.115  0.00  0.00    +0.255 C 
ATOM      4  O   UNL     1      -6.574   8.651  -2.321  0.00  0.00    -0.270 OA
ATOM      5  N   UNL     1      -7.721   9.128  -0.466  0.00  0.00    -0.263 N 
ATOM      6  C   UNL     1      -7.863   9.022   0.863  0.00  0.00    +0.150 C 
ATOM      7  S   UNL     1      -9.194   9.804   1.601  0.00  0.00    -0.018 S 
ATOM      8  N   UNL     1      -7.017   8.335   1.644  0.00  0.00    -0.217 N 
ATOM      9  C   UNL     1      -5.947   7.693   1.131  0.00  0.00    +0.262 C 
ATOM     10  O   UNL     1      -5.187   7.073   1.851  0.00  0.00    -0.269 OA
ATOM     11  H   UNL     1      -8.371   9.641  -0.972  0.00  0.00    +0.157 HD
ENDROOT
BRANCH   1  15
ATOM     12  N   UNL     1      -2.091   5.224   0.723  0.00  0.00    -0.317 N 
ATOM     13  C   UNL     1      -3.195   4.578   1.207  0.00  0.00    +0.022 A 
ATOM     14  C   UNL     1      -4.300   5.154   0.706  0.00  0.00    +0.031 A 
ATOM     15  C   UNL     1      -3.840   6.243  -0.170  0.00  0.00    -0.003 A 
ATOM     16  C   UNL     1      -2.455   6.222  -0.105  0.00  0.00    +0.028 A 
ATOM     17  C   UNL     1      -1.520   7.152  -0.834  0.00  0.00    +0.064 C 
ATOM     18  C   UNL     1      -3.175   3.407   2.155  0.00  0.00    +0.064 C 
BRANCH  12  23
ATOM     19  C   UNL     1       3.270   3.877   2.007  0.00  0.00    +0.046 C 
ATOM     20  C   UNL     1       1.847   4.234   1.666  0.00  0.00    -0.020 A 
ATOM     21  C   UNL     1       1.332   5.459   2.051  0.00  0.00    +0.007 A 
ATOM     22  C   UNL     1       0.028   5.790   1.740  0.00  0.00    +0.026 A 
ATOM     23  C   UNL     1      -0.767   4.892   1.040  0.00  0.00    +0.049 A 
ATOM     24  C   UNL     1      -0.246   3.665   0.650  0.00  0.00    +0.059 A 
ATOM     25  C   UNL     1       1.058   3.338   0.970  0.00  0.00    +0.131 A 
BRANCH  25  26
ATOM     26  N   UNL     1       1.613   2.028   0.560  0.00  0.00    +0.057 N 
ATOM     27  O   UNL     1       2.776   1.941   0.212  0.00  0.00    -0.126 OA
ATOM     28  O   UNL     1       0.905   1.037   0.572  0.00  0.00    -0.126 OA
ENDBRANCH  25  26
ENDBRANCH  12  23
ENDBRANCH   1  15
BRANCH   8  29
ATOM     29  C   UNL     1      -7.251   8.282   3.025  0.00  0.00    +0.043 A 
ATOM     30  C   UNL     1      -7.027   9.404   3.811  0.00  0.00    +0.027 A 
ATOM     31  C   UNL     1      -7.264   9.351   5.171  0.00  0.00    +0.040 A 
ATOM     32  C   UNL     1      -7.713   8.177   5.752  0.00  0.00    +0.124 A 
ATOM     33  C   UNL     1      -7.931   7.055   4.970  0.00  0.00    +0.040 A 
ATOM     34  C   UNL     1      -7.701   7.105   3.609  0.00  0.00    +0.027 A 
ATOM     35  F   UNL     1      -7.939   8.126   7.083  0.00  0.00    -0.205 F 
ENDBRANCH   8  29
TORSDOF 4
