REMARK  Name = ZINC03598677
REMARK  4 active torsions:
REMARK  status: ('A' for Active; 'I' for Inactive)
REMARK    1  A    between atoms: C_5  and  N_7
REMARK    2  A    between atoms: N_12  and  C_15
REMARK    3  A    between atoms: C_15  and  C_16
REMARK    4  A    between atoms: N_18  and  C_19
REMARK                            x       y       z     vdW  Elec       q    Type
REMARK                         _______ _______ _______ _____ _____    ______ ____
ROOT
ATOM      1  C   UNL     1       2.768  -6.962  -0.134  0.00  0.00    +0.003 A 
ATOM      2  C   UNL     1       2.991  -5.834  -0.909  0.00  0.00    +0.014 A 
ATOM      3  C   UNL     1       3.165  -4.604  -0.298  0.00  0.00    +0.052 A 
ATOM      4  C   UNL     1       3.115  -4.506   1.108  0.00  0.00    +0.080 A 
ATOM      5  C   UNL     1       2.891  -5.641   1.870  0.00  0.00    +0.139 A 
ATOM      6  C   UNL     1       2.719  -6.866   1.244  0.00  0.00    +0.033 A 
ATOM      7  C   UNL     1       3.341  -3.079   1.422  0.00  0.00    +0.256 C 
ATOM      8  O   UNL     1       3.375  -2.595   2.535  0.00  0.00    -0.269 OA
ATOM      9  N   UNL     1       3.501  -2.406   0.268  0.00  0.00    -0.225 N 
ATOM     10  C   UNL     1       3.415  -3.232  -0.790  0.00  0.00    +0.254 C 
ATOM     11  O   UNL     1       3.523  -2.906  -1.955  0.00  0.00    -0.270 OA
ENDROOT
BRANCH   5  12
ATOM     12  N   UNL     1       2.838  -5.546   3.346  0.00  0.00    +0.057 N 
ATOM     13  O   UNL     1       2.642  -6.546   4.013  0.00  0.00    -0.126 OA
ATOM     14  O   UNL     1       2.990  -4.469   3.893  0.00  0.00    -0.126 OA
ENDBRANCH   5  12
BRANCH   9  15
ATOM     15  C   UNL     1       3.744  -0.964   0.176  0.00  0.00    +0.213 C 
BRANCH  15  16
ATOM     16  C   UNL     1       2.426  -0.239   0.079  0.00  0.00    +0.235 C 
ATOM     17  O   UNL     1       1.387  -0.865   0.086  0.00  0.00    -0.274 OA
ATOM     18  N   UNL     1       2.403   1.105  -0.015  0.00  0.00    -0.283 N 
ATOM     19  H   UNL     1       3.233   1.601  -0.086  0.00  0.00    +0.155 HD
BRANCH  18  20
ATOM     20  C   UNL     1       1.180   1.786  -0.010  0.00  0.00    +0.048 A 
ATOM     21  C   UNL     1       0.064   1.216  -0.608  0.00  0.00    +0.025 A 
ATOM     22  C   UNL     1      -1.141   1.892  -0.607  0.00  0.00    +0.017 A 
ATOM     23  C   UNL     1      -1.239   3.132  -0.002  0.00  0.00    +0.019 A 
ATOM     24  C   UNL     1      -0.129   3.704   0.595  0.00  0.00    +0.032 A 
ATOM     25  C   UNL     1       1.080   3.034   0.592  0.00  0.00    +0.040 A 
ATOM     26 BR   UNL     1       2.596   3.815   1.408  0.00  0.00    -0.048 Br
ATOM     27 BR   UNL     1      -2.891   4.052   0.002  0.00  0.00    -0.050 Br
ENDBRANCH  18  20
ENDBRANCH  15  16
ENDBRANCH   9  15
TORSDOF 4
