REMARK  Name = ZINC39395130
REMARK  11 active torsions:
REMARK  status: ('A' for Active; 'I' for Inactive)
REMARK    1  A    between atoms: C_1  and  C_2
REMARK    2  A    between atoms: C_6  and  C_7
REMARK    3  A    between atoms: C_7  and  C_9
REMARK    4  A    between atoms: C_7  and  C_26
REMARK    5  A    between atoms: C_12  and  O_17
REMARK    6  A    between atoms: C_13  and  O_15
REMARK    7  A    between atoms: O_15  and  C_16
REMARK    8  A    between atoms: O_17  and  C_18
REMARK    9  A    between atoms: C_18  and  C_19
REMARK   10  A    between atoms: C_27  and  C_33
REMARK   11  A    between atoms: C_30  and  O_32
REMARK                            x       y       z     vdW  Elec       q    Type
REMARK                         _______ _______ _______ _____ _____    ______ ____
ROOT
ATOM      1  C   UNL     1       0.025  -0.160   2.489  0.00  0.00    +0.088 C 
ENDROOT
BRANCH   1   7
ATOM      2  C   UNL     1      -2.332  -1.296   0.703  0.00  0.00    +0.068 C 
ATOM      3  C   UNL     1      -0.868  -1.312   0.348  0.00  0.00    +0.068 A 
ATOM      4  N   UNL     1      -0.351  -1.793  -0.753  0.00  0.00    -0.176 NA
ATOM      5  N   UNL     1       1.038  -1.619  -0.701  0.00  0.00    -0.243 N 
ATOM      6  C   UNL     1       1.338  -1.018   0.471  0.00  0.00    +0.271 A 
ATOM      7  C   UNL     1       0.172  -0.811   1.138  0.00  0.00    +0.052 A 
ATOM      8  O   UNL     1       2.579  -0.676   0.901  0.00  0.00    -0.266 OA
ATOM      9  H   UNL     1       1.672  -1.885  -1.385  0.00  0.00    +0.192 HD
ENDBRANCH   1   7
BRANCH   1  10
ATOM     10  C   UNL     1      -1.077  -0.841   3.258  0.00  0.00    -0.032 A 
ATOM     11  C   UNL     1      -1.022  -2.205   3.480  0.00  0.00    +0.008 A 
ATOM     12  C   UNL     1      -2.030  -2.834   4.186  0.00  0.00    +0.050 A 
ATOM     13  C   UNL     1      -3.099  -2.099   4.672  0.00  0.00    +0.162 A 
ATOM     14  C   UNL     1      -3.154  -0.727   4.449  0.00  0.00    +0.162 A 
ATOM     15  C   UNL     1      -2.138  -0.101   3.745  0.00  0.00    +0.054 A 
BRANCH  14  16
ATOM     16  O   UNL     1      -4.201  -0.000   4.924  0.00  0.00    -0.491 OA
ATOM     17  C   UNL     1      -4.192   1.403   4.657  0.00  0.00    +0.277 C 
ENDBRANCH  14  16
BRANCH  13  18
ATOM     18  O   UNL     1      -4.092  -2.717   5.365  0.00  0.00    -0.484 OA
BRANCH  18  19
ATOM     19  C   UNL     1      -3.969  -4.128   5.556  0.00  0.00    +0.266 C 
BRANCH  19  20
ATOM     20  C   UNL     1      -5.153  -4.634   6.339  0.00  0.00    +0.008 A 
ATOM     21  C   UNL     1      -6.140  -3.756   6.745  0.00  0.00    +0.008 A 
ATOM     22  C   UNL     1      -7.226  -4.220   7.463  0.00  0.00    +0.000 A 
ATOM     23  C   UNL     1      -7.325  -5.562   7.777  0.00  0.00    +0.001 A 
ATOM     24  C   UNL     1      -6.339  -6.442   7.373  0.00  0.00    +0.020 A 
ATOM     25  C   UNL     1      -5.255  -5.979   6.648  0.00  0.00    +0.047 A 
ATOM     26 CL   UNL     1      -4.018  -7.083   6.134  0.00  0.00    -0.083 Cl
ENDBRANCH  19  20
ENDBRANCH  18  19
ENDBRANCH  13  18
ENDBRANCH   1  10
BRANCH   1  27
ATOM     27  C   UNL     1       1.321  -0.284   3.249  0.00  0.00    +0.017 C 
ATOM     28  C   UNL     1       2.160   0.689   3.609  0.00  0.00    +0.065 C 
ATOM     29  N   UNL     1       3.219   0.185   4.282  0.00  0.00    -0.156 NA
ATOM     30  N   UNL     1       3.199  -1.040   4.425  0.00  0.00    -0.151 NA
ATOM     31  C   UNL     1       1.970  -1.546   3.791  0.00  0.00    +0.284 C 
ATOM     32  C   UNL     1       1.956   2.151   3.306  0.00  0.00    +0.067 C 
BRANCH  31  33
ATOM     33  O   UNL     1       2.287  -2.447   2.728  0.00  0.00    -0.366 OA
ATOM     34  H   UNL     1       2.704  -3.269   3.021  0.00  0.00    +0.212 HD
ENDBRANCH  31  33
ENDBRANCH   1  27
TORSDOF 8
