REMARK  Name = ZINC13195086
REMARK  13 active torsions:
REMARK  status: ('A' for Active; 'I' for Inactive)
REMARK    1  A    between atoms: C_1  and  C_2
REMARK    2  A    between atoms: C_2  and  O_3
REMARK    3  A    between atoms: O_3  and  C_4
REMARK    4  A    between atoms: C_7  and  C_10
REMARK    5  A    between atoms: C_13  and  S_18
REMARK    6  A    between atoms: N_14  and  C_15
REMARK    7  A    between atoms: C_15  and  C_16
REMARK    8  A    between atoms: S_18  and  C_19
REMARK    9  A    between atoms: C_19  and  C_21
REMARK   10  A    between atoms: C_19  and  C_22
REMARK   11  A    between atoms: N_24  and  C_25
REMARK   12  A    between atoms: C_28  and  N_31
REMARK   13  A    between atoms: C_32  and  C_34
REMARK                            x       y       z     vdW  Elec       q    Type
REMARK                         _______ _______ _______ _____ _____    ______ ____
ROOT
ATOM      1  C   UNL     1      -2.883   0.798  -0.959  0.00  0.00    +0.165 A 
ATOM      2  N   UNL     1      -3.780  -0.072  -0.557  0.00  0.00    -0.128 NA
ATOM      3  N   UNL     1      -3.727  -0.198   0.721  0.00  0.00    -0.122 NA
ATOM      4  C   UNL     1      -2.789   0.579   1.212  0.00  0.00    +0.193 A 
ATOM      5  N   UNL     1      -2.216   1.237   0.161  0.00  0.00    -0.291 N 
ENDROOT
BRANCH   1   9
ATOM      6  C   UNL     1      -2.167   2.019  -4.965  0.00  0.00    +0.121 A 
ATOM      7  C   UNL     1      -1.186   2.204  -3.999  0.00  0.00    +0.046 A 
ATOM      8  C   UNL     1      -1.415   1.810  -2.699  0.00  0.00    +0.015 A 
ATOM      9  C   UNL     1      -2.634   1.223  -2.353  0.00  0.00    +0.020 A 
ATOM     10  C   UNL     1      -3.614   1.033  -3.328  0.00  0.00    +0.015 A 
ATOM     11  C   UNL     1      -3.380   1.436  -4.626  0.00  0.00    +0.046 A 
BRANCH   6  12
ATOM     12  O   UNL     1      -1.938   2.409  -6.247  0.00  0.00    -0.492 OA
BRANCH  12  14
ATOM     13  C   UNL     1      -2.550   2.689  -8.568  0.00  0.00    +0.048 C 
ATOM     14  C   UNL     1      -2.989   2.190  -7.190  0.00  0.00    +0.225 C 
ENDBRANCH  12  14
ENDBRANCH   6  12
ENDBRANCH   1   9
BRANCH   5  15
ATOM     15  C   UNL     1      -1.124   2.212   0.216  0.00  0.00    +0.250 C 
BRANCH  15  16
ATOM     16  C   UNL     1       0.198   1.488   0.205  0.00  0.00    +0.375 C 
ATOM     17  O   UNL     1       0.224   0.281   0.156  0.00  0.00    -0.244 OA
ATOM     18  O   UNL     1       1.345   2.184   0.243  0.00  0.00    -0.244 OA
ENDBRANCH  15  16
ENDBRANCH   5  15
BRANCH   4  19
ATOM     19  S   UNL     1      -2.350   0.741   2.911  0.00  0.00    -0.073 S 
BRANCH  19  20
ATOM     20  C   UNL     1      -3.527  -0.417   3.652  0.00  0.00    +0.137 C 
ATOM     21  C   UNL     1      -4.952   0.098   3.439  0.00  0.00    +0.029 C 
BRANCH  20  22
ATOM     22  C   UNL     1      -3.251  -0.538   5.128  0.00  0.00    +0.230 C 
ATOM     23  O   UNL     1      -2.702   0.367   5.719  0.00  0.00    -0.274 OA
ATOM     24  N   UNL     1      -3.615  -1.653   5.793  0.00  0.00    -0.285 N 
ATOM     25  H   UNL     1      -3.993  -2.404   5.309  0.00  0.00    +0.155 HD
BRANCH  24  26
ATOM     26  C   UNL     1      -3.446  -1.728   7.181  0.00  0.00    +0.034 A 
ATOM     27  C   UNL     1      -2.351  -1.120   7.781  0.00  0.00    +0.025 A 
ATOM     28  C   UNL     1      -2.187  -1.190   9.150  0.00  0.00    +0.025 A 
ATOM     29  C   UNL     1      -3.112  -1.875   9.926  0.00  0.00    +0.033 A 
ATOM     30  C   UNL     1      -4.205  -2.487   9.326  0.00  0.00    +0.025 A 
ATOM     31  C   UNL     1      -4.371  -2.414   7.957  0.00  0.00    +0.025 A 
BRANCH  29  32
ATOM     32  N   UNL     1      -2.944  -1.948  11.315  0.00  0.00    -0.286 N 
ATOM     33  C   UNL     1      -2.411  -0.908  11.985  0.00  0.00    +0.214 C 
ATOM     34  O   UNL     1      -2.169   0.128  11.403  0.00  0.00    -0.276 OA
ATOM     35  C   UNL     1      -2.117  -1.031  13.458  0.00  0.00    +0.109 C 
ATOM     36  H   UNL     1      -3.211  -2.748  11.794  0.00  0.00    +0.155 HD
ENDBRANCH  29  32
ENDBRANCH  24  26
ENDBRANCH  20  22
ENDBRANCH  19  20
ENDBRANCH   4  19
TORSDOF 10
