REMARK  Name = ZINC09368431
REMARK  1 active torsions:
REMARK  status: ('A' for Active; 'I' for Inactive)
REMARK    1  A    between atoms: N_9  and  C_16
REMARK                            x       y       z     vdW  Elec       q    Type
REMARK                         _______ _______ _______ _____ _____    ______ ____
ROOT
ATOM      1  C   UNL     1      -4.678   1.187  -0.689  0.00  0.00    +0.001 A 
ATOM      2  C   UNL     1      -4.326   0.637  -1.912  0.00  0.00    +0.002 A 
ATOM      3  C   UNL     1      -3.172  -0.114  -2.039  0.00  0.00    +0.024 A 
ATOM      4  C   UNL     1      -2.365  -0.318  -0.934  0.00  0.00    +0.041 A 
ATOM      5  C   UNL     1      -2.724   0.231   0.310  0.00  0.00    +0.058 A 
ATOM      6  C   UNL     1      -3.885   0.990   0.423  0.00  0.00    +0.015 A 
ATOM      7  C   UNL     1      -1.853  -0.040   1.468  0.00  0.00    +0.254 C 
ATOM      8  O   UNL     1      -2.261   0.133   2.600  0.00  0.00    -0.270 OA
ATOM      9  N   UNL     1      -0.596  -0.482   1.254  0.00  0.00    -0.245 N 
ATOM     10  C   UNL     1      -0.081  -0.675  -0.106  0.00  0.00    +0.116 C 
ATOM     11  N   UNL     1      -1.187  -1.054  -1.004  0.00  0.00    -0.322 N 
ATOM     12  C   UNL     1       0.950  -1.808  -0.094  0.00  0.00    +0.057 C 
ATOM     13  C   UNL     1       2.370  -1.244   0.181  0.00  0.00    +0.073 C 
ATOM     14  S   UNL     1       2.289   0.300  -0.829  0.00  0.00    -0.157 S 
ATOM     15  C   UNL     1       0.499   0.667  -0.603  0.00  0.00    +0.115 C 
ATOM     16  H   UNL     1      -1.096  -1.794  -1.624  0.00  0.00    +0.148 HD
ENDROOT
BRANCH   9  17
ATOM     17  C   UNL     1       0.231  -0.760   2.350  0.00  0.00    +0.042 A 
ATOM     18  C   UNL     1       0.180  -2.007   2.959  0.00  0.00    +0.027 A 
ATOM     19  C   UNL     1       0.999  -2.285   4.037  0.00  0.00    +0.051 A 
ATOM     20  C   UNL     1       1.865  -1.317   4.519  0.00  0.00    +0.166 A 
ATOM     21  C   UNL     1       1.915  -0.064   3.914  0.00  0.00    +0.168 A 
ATOM     22  C   UNL     1       1.097   0.212   2.830  0.00  0.00    +0.073 A 
ATOM     23  O   UNL     1       2.837   0.701   4.568  0.00  0.00    -0.453 OA
ATOM     24  C   UNL     1       3.056   0.044   5.830  0.00  0.00    +0.466 C 
ATOM     25  O   UNL     1       2.758  -1.337   5.553  0.00  0.00    -0.453 OA
ENDBRANCH   9  17
TORSDOF 1
