REMARK  Name = ZINC42675193
REMARK  5 active torsions:
REMARK  status: ('A' for Active; 'I' for Inactive)
REMARK    1  A    between atoms: C_1  and  C_2
REMARK    2  A    between atoms: C_7  and  S_8
REMARK    3  A    between atoms: S_8  and  N_11
REMARK    4  A    between atoms: C_19  and  S_21
REMARK    5  A    between atoms: S_21  and  N_24
REMARK                            x       y       z     vdW  Elec       q    Type
REMARK                         _______ _______ _______ _____ _____    ______ ____
ROOT
ATOM      1  N   UNL     1       1.557   1.188   2.995  0.00  0.00    -0.203 N 
ATOM      2  C   UNL     1       2.739   0.473   3.493  0.00  0.00    +0.132 C 
ATOM      3  C   UNL     1       3.348   1.308   4.628  0.00  0.00    +0.025 C 
ATOM      4  C   UNL     1       3.815   2.648   4.059  0.00  0.00    +0.039 C 
ATOM      5  C   UNL     1       2.709   3.301   3.273  0.00  0.00    -0.023 A 
ATOM      6  C   UNL     1       1.644   2.567   2.771  0.00  0.00    +0.055 A 
ATOM      7  C   UNL     1       0.644   3.199   2.041  0.00  0.00    +0.027 A 
ATOM      8  C   UNL     1       0.710   4.559   1.811  0.00  0.00    +0.030 A 
ATOM      9  C   UNL     1       1.772   5.291   2.309  0.00  0.00    +0.105 A 
ATOM     10  C   UNL     1       2.765   4.666   3.045  0.00  0.00    +0.034 A 
ENDROOT
BRANCH   1  11
ATOM     11  S   UNL     1       0.145   0.375   2.697  0.00  0.00    +0.075 S 
ATOM     12  O   UNL     1       0.399  -0.995   2.977  0.00  0.00    -0.150 OA
ATOM     13  O   UNL     1      -0.320   0.820   1.430  0.00  0.00    -0.150 OA
BRANCH  11  20
ATOM     14  C   UNL     1       0.353  -0.165   5.665  0.00  0.00    +0.046 C 
ATOM     15  C   UNL     1      -0.852   0.626   5.225  0.00  0.00    -0.021 A 
ATOM     16  C   UNL     1      -1.773   1.060   6.160  0.00  0.00    +0.043 A 
ATOM     17  C   UNL     1      -2.879   1.787   5.756  0.00  0.00    +0.124 A 
ATOM     18  C   UNL     1      -3.062   2.079   4.414  0.00  0.00    +0.040 A 
ATOM     19  C   UNL     1      -2.140   1.644   3.481  0.00  0.00    +0.032 A 
ATOM     20  C   UNL     1      -1.033   0.923   3.887  0.00  0.00    +0.112 A 
ATOM     21  F   UNL     1      -3.780   2.211   6.669  0.00  0.00    -0.205 F 
ENDBRANCH  11  20
ENDBRANCH   1  11
BRANCH   9  22
ATOM     22  S   UNL     1       1.856   7.027   2.018  0.00  0.00    +0.056 S 
ATOM     23  O   UNL     1       3.226   7.390   2.121  0.00  0.00    -0.153 OA
ATOM     24  O   UNL     1       1.086   7.280   0.850  0.00  0.00    -0.153 OA
BRANCH  22  25
ATOM     25  N   UNL     1       1.072   7.772   3.272  0.00  0.00    -0.204 NA
ATOM     26  H   UNL     1       0.678   7.241   3.982  0.00  0.00    +0.144 HD
ATOM     27  H   UNL     1       1.008   8.739   3.297  0.00  0.00    +0.144 HD
ENDBRANCH  22  25
ENDBRANCH   9  22
TORSDOF 4
