REMARK  Name = ZINC32090318
REMARK  7 active torsions:
REMARK  status: ('A' for Active; 'I' for Inactive)
REMARK    1  A    between atoms: C_1  and  C_2
REMARK    2  A    between atoms: C_2  and  C_3
REMARK    3  A    between atoms: C_3  and  C_31
REMARK    4  A    between atoms: N_13  and  C_16
REMARK    5  A    between atoms: C_16  and  C_17
REMARK    6  A    between atoms: N_19  and  C_20
REMARK    7  A    between atoms: C_20  and  C_21
REMARK                            x       y       z     vdW  Elec       q    Type
REMARK                         _______ _______ _______ _____ _____    ______ ____
ROOT
ATOM      1  C   UNL     1      -0.753   1.593  -1.232  0.00  0.00    +0.072 C 
ATOM      2  C   UNL     1      -0.040   1.101  -2.492  0.00  0.00    +0.090 C 
ATOM      3  C   UNL     1      -0.903   1.363  -3.701  0.00  0.00    +0.051 A 
ATOM      4  C   UNL     1      -2.254   1.632  -3.575  0.00  0.00    +0.000 A 
ATOM      5  C   UNL     1      -3.022   1.860  -4.699  0.00  0.00    +0.020 A 
ATOM      6  C   UNL     1      -2.413   1.818  -5.973  0.00  0.00    +0.034 A 
ATOM      7  C   UNL     1      -3.050   2.030  -7.285  0.00  0.00    +0.094 A 
ATOM      8  C   UNL     1      -2.212   1.931  -8.393  0.00  0.00    +0.105 A 
ATOM      9  C   UNL     1      -2.704   2.113  -9.693  0.00  0.00    +0.269 A 
ATOM     10  O   UNL     1      -1.967   2.026 -10.661  0.00  0.00    -0.266 OA
ATOM     11  N   UNL     1      -4.021   2.388  -9.842  0.00  0.00    -0.289 N 
ATOM     12  C   UNL     1      -4.810   2.477  -8.741  0.00  0.00    +0.203 A 
ATOM     13  N   UNL     1      -4.361   2.311  -7.537  0.00  0.00    -0.236 NA
ATOM     14  S   UNL     1      -0.614   1.566  -7.721  0.00  0.00    -0.062 S 
ATOM     15  C   UNL     1      -1.034   1.540  -5.995  0.00  0.00    +0.111 A 
ATOM     16  N   UNL     1      -0.341   1.328  -4.898  0.00  0.00    -0.244 NA
ATOM     17  C   UNL     1      -2.920   1.690  -2.224  0.00  0.00    +0.197 C 
ATOM     18  O   UNL     1      -2.090   1.080  -1.237  0.00  0.00    -0.369 OA
ATOM     19  C   UNL     1      -0.784   3.122  -1.222  0.00  0.00    +0.042 C 
ENDROOT
BRANCH   1  21
ATOM     20  C   UNL     1      -0.729   1.579   1.267  0.00  0.00    +0.007 C 
ATOM     21  C   UNL     1      -0.013   1.086   0.008  0.00  0.00    +0.032 C 
ENDBRANCH   1  21
BRANCH  11  22
ATOM     22  C   UNL     1      -4.590   2.587 -11.178  0.00  0.00    +0.222 C 
BRANCH  22  23
ATOM     23  C   UNL     1      -5.064   1.265 -11.724  0.00  0.00    +0.233 C 
ATOM     24  O   UNL     1      -4.940   0.256 -11.063  0.00  0.00    -0.274 OA
ATOM     25  N   UNL     1      -5.627   1.205 -12.948  0.00  0.00    -0.307 N 
ATOM     26  H   UNL     1      -5.739   2.120 -13.547  0.00  0.00    +0.149 HD
BRANCH  25  27
ATOM     27  C   UNL     1      -6.088  -0.080 -13.479  0.00  0.00    +0.178 C 
BRANCH  27  28
ATOM     28  C   UNL     1      -6.673   0.124 -14.852  0.00  0.00    +0.122 A 
ATOM     29  C   UNL     1      -5.995   0.062 -16.013  0.00  0.00    +0.046 A 
ATOM     30  C   UNL     1      -6.927   0.315 -17.046  0.00  0.00    +0.041 A 
ATOM     31  C   UNL     1      -8.118   0.517 -16.454  0.00  0.00    +0.195 A 
ATOM     32  O   UNL     1      -7.959   0.395 -15.126  0.00  0.00    -0.466 OA
ENDBRANCH  27  28
ENDBRANCH  25  27
ENDBRANCH  22  23
ENDBRANCH  11  22
TORSDOF 5
