REMARK  Name = ZINC44737059
REMARK  6 active torsions:
REMARK  status: ('A' for Active; 'I' for Inactive)
REMARK    1  A    between atoms: C_1  and  C_2
REMARK    2  A    between atoms: C_9  and  C_11
REMARK    3  A    between atoms: C_11  and  C_13
REMARK    4  A    between atoms: C_11  and  N_14
REMARK    5  A    between atoms: C_15  and  C_17
REMARK    6  A    between atoms: C_28  and  C_30
REMARK                            x       y       z     vdW  Elec       q    Type
REMARK                         _______ _______ _______ _____ _____    ______ ____
ROOT
ATOM      1  C   UNL     1       1.878  -8.733   0.984  0.00  0.00    +0.100 C 
ATOM      2  C   UNL     1       2.964  -8.094   0.090  0.00  0.00    +0.121 C 
ATOM      3  N   UNL     1       4.235  -8.339   0.812  0.00  0.00    -0.296 N 
ATOM      4  C   UNL     1       4.091  -9.712   1.355  0.00  0.00    +0.115 C 
ATOM      5  C   UNL     1       2.621  -9.797   1.809  0.00  0.00    -0.004 C 
ATOM      6  C   UNL     1       2.057 -11.184   1.515  0.00  0.00    -0.010 C 
ATOM      7  C   UNL     1       2.772 -12.217   2.390  0.00  0.00    -0.082 C 
ATOM      8  N   UNL     1       2.580 -11.879   3.806  0.00  0.00    +0.379 N 
ATOM      9  C   UNL     1       3.207 -10.585   4.101  0.00  0.00    -0.082 C 
ATOM     10  C   UNL     1       2.511  -9.483   3.298  0.00  0.00    -0.010 C 
ATOM     11  C   UNL     1       5.284  -7.504   0.945  0.00  0.00    +0.252 C 
ATOM     12  O   UNL     1       6.264  -7.854   1.573  0.00  0.00    -0.270 OA
ATOM     13  H   UNL     1       1.592 -11.826   4.007  0.00  0.00    -0.086 HD
ATOM     14  H   UNL     1       2.999 -12.594   4.381  0.00  0.00    -0.086 HD
ENDROOT
BRANCH  11  15
ATOM     15  C   UNL     1       5.243  -6.164   0.329  0.00  0.00    +0.107 A 
ATOM     16  C   UNL     1       4.742  -5.074   1.048  0.00  0.00    +0.138 A 
ATOM     17  C   UNL     1       4.707  -3.822   0.463  0.00  0.00    +0.039 A 
ATOM     18  C   UNL     1       5.166  -3.646  -0.830  0.00  0.00    +0.006 A 
ATOM     19  C   UNL     1       5.662  -4.718  -1.548  0.00  0.00    +0.039 A 
ATOM     20  C   UNL     1       5.710  -5.976  -0.977  0.00  0.00    +0.138 A 
ATOM     21  F   UNL     1       6.201  -7.021  -1.678  0.00  0.00    -0.205 F 
ATOM     22  F   UNL     1       4.292  -5.244   2.311  0.00  0.00    -0.205 F 
ENDBRANCH  11  15
BRANCH   1  24
ATOM     23  N   UNL     1      -0.004  -7.835   2.314  0.00  0.00    -0.305 N 
ATOM     24  C   UNL     1       1.268  -7.697   1.892  0.00  0.00    +0.219 C 
ATOM     25  O   UNL     1       1.922  -6.737   2.242  0.00  0.00    -0.275 OA
ATOM     26  H   UNL     1      -0.528  -8.603   2.034  0.00  0.00    +0.149 HD
BRANCH  23  27
ATOM     27  C   UNL     1      -0.597  -6.828   3.197  0.00  0.00    +0.136 C 
ATOM     28  C   UNL     1      -0.235  -7.145   4.649  0.00  0.00    +0.036 C 
BRANCH  27  37
ATOM     29  C   UNL     1      -7.932  -5.623   2.832  0.00  0.00    +0.044 C 
ATOM     30  C   UNL     1      -6.582  -6.288   2.755  0.00  0.00    -0.048 A 
ATOM     31  C   UNL     1      -6.486  -7.607   2.336  0.00  0.00    +0.005 A 
ATOM     32  C   UNL     1      -5.272  -8.228   2.260  0.00  0.00    +0.030 A 
ATOM     33  C   UNL     1      -4.111  -7.531   2.606  0.00  0.00    +0.089 A 
ATOM     34  C   UNL     1      -4.207  -6.195   3.030  0.00  0.00    +0.067 A 
ATOM     35  C   UNL     1      -5.450  -5.579   3.096  0.00  0.00    +0.031 A 
ATOM     36  N   UNL     1      -2.916  -5.786   3.296  0.00  0.00    -0.340 N 
ATOM     37  C   UNL     1      -2.096  -6.840   3.038  0.00  0.00    +0.128 A 
ATOM     38  N   UNL     1      -2.794  -7.861   2.635  0.00  0.00    -0.231 NA
ATOM     39  H   UNL     1      -2.644  -4.909   3.609  0.00  0.00    +0.167 HD
ENDBRANCH  27  37
ENDBRANCH  23  27
ENDBRANCH   1  24
TORSDOF 4
