REMARK  Name = ZINC20423844
REMARK  10 active torsions:
REMARK  status: ('A' for Active; 'I' for Inactive)
REMARK    1  A    between atoms: C_4  and  C_7
REMARK    2  A    between atoms: C_7  and  C_8
REMARK    3  A    between atoms: C_8  and  O_9
REMARK    4  A    between atoms: O_9  and  C_10
REMARK    5  A    between atoms: C_14  and  C_16
REMARK    6  A    between atoms: N_18  and  C_19
REMARK    7  A    between atoms: C_19  and  N_21
REMARK    8  A    between atoms: N_21  and  C_22
REMARK    9  A    between atoms: C_25  and  S_28
REMARK   10  A    between atoms: S_28  and  N_31
REMARK                            x       y       z     vdW  Elec       q    Type
REMARK                         _______ _______ _______ _____ _____    ______ ____
ROOT
ATOM      1  C   UNL     1      -2.805   4.215   5.426  0.00  0.00    +0.141 C 
ATOM      2  S   UNL     1      -1.667   5.293   4.737  0.00  0.00    -0.018 S 
ENDROOT
BRANCH   1   5
ATOM      3  C   UNL     1      -3.158   5.712   7.183  0.00  0.00    +0.250 C 
ATOM      4  O   UNL     1      -2.350   6.477   6.693  0.00  0.00    -0.270 OA
ATOM      5  N   UNL     1      -3.429   4.539   6.576  0.00  0.00    -0.264 N 
ATOM      6  H   UNL     1      -4.160   3.847   7.019  0.00  0.00    +0.157 HD
BRANCH   3  11
ATOM      7  C   UNL     1      -4.208   7.607  10.255  0.00  0.00    +0.121 A 
ATOM      8  C   UNL     1      -5.130   6.728  10.809  0.00  0.00    +0.046 A 
ATOM      9  C   UNL     1      -5.407   5.526  10.186  0.00  0.00    +0.004 A 
ATOM     10  C   UNL     1      -4.774   5.193   9.005  0.00  0.00    +0.013 A 
ATOM     11  C   UNL     1      -3.842   6.067   8.444  0.00  0.00    +0.041 A 
ATOM     12  C   UNL     1      -3.563   7.281   9.074  0.00  0.00    +0.058 A 
BRANCH   7  13
ATOM     13  O   UNL     1      -3.940   8.787  10.872  0.00  0.00    -0.492 OA
BRANCH  13  14
ATOM     14  C   UNL     1      -4.641   9.059  12.087  0.00  0.00    +0.233 C 
BRANCH  14  15
ATOM     15  C   UNL     1      -4.211  10.423  12.630  0.00  0.00    +0.076 C 
BRANCH  15  19
ATOM     16  C   UNL     1      -6.309  11.235  16.262  0.00  0.00    +0.000 A 
ATOM     17  C   UNL     1      -5.093  10.578  16.298  0.00  0.00    +0.000 A 
ATOM     18  C   UNL     1      -4.415  10.315  15.123  0.00  0.00    +0.004 A 
ATOM     19  C   UNL     1      -4.951  10.709  13.912  0.00  0.00    -0.044 A 
ATOM     20  C   UNL     1      -6.165  11.371  13.876  0.00  0.00    +0.004 A 
ATOM     21  C   UNL     1      -6.846  11.629  15.050  0.00  0.00    +0.000 A 
ENDBRANCH  15  19
ENDBRANCH  14  15
ENDBRANCH  13  14
ENDBRANCH   7  13
ENDBRANCH   3  11
ENDBRANCH   1   5
BRANCH   1  22
ATOM     22  N   UNL     1      -3.076   3.043   4.820  0.00  0.00    -0.297 N 
ATOM     23  H   UNL     1      -3.872   2.392   5.212  0.00  0.00    +0.154 HD
BRANCH  22  24
ATOM     24  C   UNL     1      -2.347   2.654   3.692  0.00  0.00    +0.033 A 
ATOM     25  C   UNL     1      -0.972   2.847   3.651  0.00  0.00    +0.025 A 
ATOM     26  C   UNL     1      -0.255   2.462   2.536  0.00  0.00    +0.031 A 
ATOM     27  C   UNL     1      -0.903   1.884   1.460  0.00  0.00    +0.113 A 
ATOM     28  C   UNL     1      -2.273   1.694   1.495  0.00  0.00    +0.031 A 
ATOM     29  C   UNL     1      -2.995   2.073   2.610  0.00  0.00    +0.025 A 
BRANCH  27  30
ATOM     30  S   UNL     1       0.016   1.394   0.039  0.00  0.00    +0.102 S 
ATOM     31  O   UNL     1       1.199   2.180   0.029  0.00  0.00    -0.146 OA
ATOM     32  O   UNL     1      -0.897   1.378  -1.050  0.00  0.00    -0.146 OA
BRANCH  30  33
ATOM     33  N   UNL     1       0.492  -0.174   0.280  0.00  0.00    -0.093 NA
ATOM     34  C   UNL     1      -0.449  -1.173   0.361  0.00  0.00    +0.212 C 
ATOM     35  N   UNL     1      -1.715  -0.887   0.247  0.00  0.00    -0.369 N 
ATOM     36  N   UNL     1      -0.053  -2.475   0.561  0.00  0.00    -0.369 N 
ATOM     37  H   UNL     1      -2.468  -1.687   0.311  0.00  0.00    +0.159 HD
ATOM     38  H   UNL     1      -0.806  -3.275   0.625  0.00  0.00    +0.159 HD
ATOM     39  H   UNL     1       1.016  -2.717   0.657  0.00  0.00    +0.159 HD
ATOM     40  H   UNL     1      -2.031   0.154   0.086  0.00  0.00    +0.159 HD
ENDBRANCH  30  33
ENDBRANCH  27  30
ENDBRANCH  22  24
ENDBRANCH   1  22
TORSDOF 10
