REMARK  Name = ZINC22112654
REMARK  12 active torsions:
REMARK  status: ('A' for Active; 'I' for Inactive)
REMARK    1  A    between atoms: C_1  and  C_2
REMARK    2  A    between atoms: C_2  and  CA_4
REMARK    3  A    between atoms: C_2  and  O_27
REMARK    4  A    between atoms: CA_4  and  C_6
REMARK    5  A    between atoms: CA_4  and  N_9
REMARK    6  A    between atoms: C_10  and  O_12
REMARK    7  A    between atoms: O_12  and  C_13
REMARK    8  A    between atoms: C_13  and  C_14
REMARK    9  A    between atoms: O_27  and  P_28
REMARK   10  A    between atoms: P_28  and  O_31
REMARK   11  A    between atoms: O_31  and  C_32
REMARK   12  A    between atoms: C_32  and  C_33
REMARK                            x       y       z     vdW  Elec       q    Type
REMARK                         _______ _______ _______ _____ _____    ______ ____
ROOT
ATOM      1  N   UNL     1      -3.849   6.505  -2.143  0.00  0.00    -0.265 N 
ATOM      2  C   UNL     1      -2.501   6.498  -2.159  0.00  0.00    +0.401 C 
ATOM      3  O   UNL     1      -1.902   6.982  -3.099  0.00  0.00    -0.226 OA
ATOM      4  H   UNL     1      -4.391   6.066  -1.292  0.00  0.00    +0.153 HD
ENDROOT
BRANCH   1   5
ATOM      5  CA  UNL     1      -4.592   7.097  -3.258  0.00  0.00    +0.218 C 
BRANCH   5   6
ATOM      6  C   UNL     1      -4.754   6.074  -4.352  0.00  0.00    +0.378 C 
ATOM      7  O   UNL     1      -4.296   4.964  -4.215  0.00  0.00    -0.244 OA
ATOM      8  OXT UNL     1      -5.407   6.395  -5.480  0.00  0.00    -0.244 OA
ENDBRANCH   5   6
BRANCH   5  10
ATOM      9  C   UNL     1      -5.806   8.585  -1.660  0.00  0.00    +0.041 C 
ATOM     10  C   UNL     1      -5.971   7.546  -2.771  0.00  0.00    +0.159 C 
BRANCH  10  11
ATOM     11  O   UNL     1      -6.695   8.123  -3.859  0.00  0.00    -0.280 OA
BRANCH  11  12
ATOM     12  P   UNL     1      -8.101   7.540  -4.384  0.00  0.00    +0.505 P 
ATOM     13  O   UNL     1      -9.057   7.468  -3.256  0.00  0.00    -0.225 OA
ATOM     14  O   UNL     1      -7.877   6.066  -4.992  0.00  0.00    -0.116 OA
BRANCH  12  15
ATOM     15  O   UNL     1      -8.691   8.508  -5.527  0.00  0.00    -0.280 OA
BRANCH  15  16
ATOM     16  C   UNL     1      -9.977   8.319  -6.120  0.00  0.00    +0.207 C 
BRANCH  16  17
ATOM     17  C   UNL     1     -10.220   9.394  -7.148  0.00  0.00    -0.021 A 
ATOM     18  C   UNL     1     -10.826  10.580  -6.778  0.00  0.00    +0.006 A 
ATOM     19  C   UNL     1     -11.043  11.568  -7.721  0.00  0.00    +0.000 A 
ATOM     20  C   UNL     1     -10.664  11.365  -9.034  0.00  0.00    +0.000 A 
ATOM     21  C   UNL     1     -10.063  10.177  -9.405  0.00  0.00    +0.000 A 
ATOM     22  C   UNL     1      -9.840   9.191  -8.462  0.00  0.00    +0.006 A 
ENDBRANCH  16  17
ENDBRANCH  15  16
ENDBRANCH  12  15
ENDBRANCH  11  12
ENDBRANCH  10  11
ENDBRANCH   5  10
ENDBRANCH   1   5
BRANCH   2  23
ATOM     23  O   UNL     1      -1.818   5.954  -1.134  0.00  0.00    -0.449 OA
BRANCH  23  24
ATOM     24  C   UNL     1      -0.369   5.982  -1.218  0.00  0.00    +0.246 C 
BRANCH  24  25
ATOM     25  C   UNL     1       0.227   5.323   0.027  0.00  0.00    +0.088 C 
ATOM     26  C   UNL     1      -0.064   3.843   0.022  0.00  0.00    -0.029 A 
ATOM     27  C   UNL     1      -1.245   3.132   0.029  0.00  0.00    +0.005 A 
ATOM     28  C   UNL     1      -1.221   1.748   0.017  0.00  0.00    +0.000 A 
ATOM     29  C   UNL     1      -0.013   1.076   0.008  0.00  0.00    +0.001 A 
ATOM     30  C   UNL     1       1.174   1.779   0.000  0.00  0.00    +0.009 A 
ATOM     31  C   UNL     1       1.157   3.175   0.008  0.00  0.00    -0.014 A 
ATOM     32  C   UNL     1       2.262   4.166   0.002  0.00  0.00    -0.014 A 
ATOM     33  C   UNL     1       1.731   5.452   0.014  0.00  0.00    -0.029 A 
ATOM     34  C   UNL     1       2.566   6.550   0.011  0.00  0.00    +0.005 A 
ATOM     35  C   UNL     1       3.938   6.376  -0.003  0.00  0.00    +0.000 A 
ATOM     36  C   UNL     1       4.476   5.101  -0.015  0.00  0.00    +0.001 A 
ATOM     37  C   UNL     1       3.648   3.998  -0.012  0.00  0.00    +0.009 A 
ENDBRANCH  24  25
ENDBRANCH  23  24
ENDBRANCH   2  23
TORSDOF 11
