REMARK  Name = ZINC09849719
REMARK  2 active torsions:
REMARK  status: ('A' for Active; 'I' for Inactive)
REMARK    1  A    between atoms: C_4  and  C_8
REMARK    2  A    between atoms: N_22  and  C_25
REMARK                            x       y       z     vdW  Elec       q    Type
REMARK                         _______ _______ _______ _____ _____    ______ ____
ROOT
ATOM      1  C   UNL     1       3.103  -0.606   1.613  0.00  0.00    +0.251 C 
ATOM      2  O   UNL     1       3.021  -1.815   1.710  0.00  0.00    -0.270 OA
ATOM      3  N   UNL     1       1.995   0.130   1.400  0.00  0.00    -0.294 N 
ATOM      4  C   UNL     1       0.675  -0.509   1.282  0.00  0.00    +0.127 C 
ATOM      5  C   UNL     1       0.002  -0.004   0.002  0.00  0.00    +0.125 C 
ATOM      6  N   UNL     1      -0.018   1.465   0.010  0.00  0.00    -0.310 N 
ATOM      7  C   UNL     1       1.344   2.016   0.000  0.00  0.00    +0.125 C 
ATOM      8  C   UNL     1       2.072   1.594   1.280  0.00  0.00    +0.127 C 
ATOM      9  C   UNL     1      -0.759   1.956  -1.048  0.00  0.00    +0.154 A 
ATOM     10  C   UNL     1      -0.914   3.344  -1.237  0.00  0.00    +0.172 A 
ATOM     11  C   UNL     1      -1.680   3.779  -2.332  0.00  0.00    +0.188 A 
ATOM     12  N   UNL     1      -2.224   2.875  -3.142  0.00  0.00    -0.214 NA
ATOM     13  C   UNL     1      -2.051   1.589  -2.925  0.00  0.00    +0.225 A 
ATOM     14  N   UNL     1      -1.337   1.131  -1.913  0.00  0.00    -0.218 NA
ATOM     15  N   UNL     1      -1.669   5.148  -2.282  0.00  0.00    -0.194 N 
ATOM     16  N   UNL     1      -0.900   5.501  -1.162  0.00  0.00    -0.058 NA
ATOM     17  N   UNL     1      -0.478   4.433  -0.580  0.00  0.00    -0.124 NA
ENDROOT
BRANCH   1  21
ATOM     18  C   UNL     1       6.886   1.298   1.944  0.00  0.00    +0.004 A 
ATOM     19  C   UNL     1       6.118   1.096   3.076  0.00  0.00    +0.039 A 
ATOM     20  C   UNL     1       4.883   0.482   2.976  0.00  0.00    +0.137 A 
ATOM     21  C   UNL     1       4.418   0.055   1.728  0.00  0.00    +0.090 A 
ATOM     22  C   UNL     1       5.202   0.264   0.590  0.00  0.00    +0.056 A 
ATOM     23  C   UNL     1       6.430   0.884   0.706  0.00  0.00    +0.021 A 
ATOM     24 CL   UNL     1       4.632  -0.255  -0.966  0.00  0.00    -0.083 Cl
ATOM     25  F   UNL     1       4.131   0.290   4.082  0.00  0.00    -0.205 F 
ENDBRANCH   1  21
BRANCH  15  26
ATOM     26  C   UNL     1      -2.302   6.024  -3.175  0.00  0.00    +0.069 A 
ATOM     27  C   UNL     1      -2.385   5.703  -4.523  0.00  0.00    +0.029 A 
ATOM     28  C   UNL     1      -3.012   6.566  -5.400  0.00  0.00    +0.022 A 
ATOM     29  C   UNL     1      -3.549   7.755  -4.937  0.00  0.00    +0.041 A 
ATOM     30  C   UNL     1      -3.464   8.079  -3.594  0.00  0.00    +0.022 A 
ATOM     31  C   UNL     1      -2.841   7.217  -2.713  0.00  0.00    +0.029 A 
ATOM     32 CL   UNL     1      -4.332   8.841  -6.043  0.00  0.00    -0.084 Cl
ENDBRANCH  15  26
TORSDOF 2
