REMARK  Name = ZINC25788436
REMARK  12 active torsions:
REMARK  status: ('A' for Active; 'I' for Inactive)
REMARK    1  A    between atoms: C_1  and  C_2
REMARK    2  A    between atoms: C_2  and  C_4
REMARK    3  A    between atoms: C_2  and  N_12
REMARK    4  A    between atoms: N_12  and  C_13
REMARK    5  A    between atoms: C_13  and  C_15
REMARK    6  A    between atoms: C_13  and  C_16
REMARK    7  A    between atoms: N_18  and  C_19
REMARK    8  A    between atoms: C_22  and  S_25
REMARK    9  A    between atoms: S_25  and  N_28
REMARK   10  A    between atoms: N_28  and  C_29
REMARK   11  A    between atoms: C_29  and  C_30
REMARK   12  A    between atoms: C_29  and  C_31
REMARK                            x       y       z     vdW  Elec       q    Type
REMARK                         _______ _______ _______ _____ _____    ______ ____
ROOT
ATOM      1  C   UNL     1       0.622  -0.506  -3.630  0.00  0.00    +0.203 C 
ATOM      2  O   UNL     1       1.574  -1.249  -3.517  0.00  0.00    -0.277 OA
ATOM      3  N   UNL     1       0.118  -0.236  -4.850  0.00  0.00    -0.287 N 
ATOM      4  H   UNL     1      -0.593   0.415  -4.948  0.00  0.00    +0.155 HD
ENDROOT
BRANCH   3   5
ATOM      5  C   UNL     1       0.622  -0.897  -5.976  0.00  0.00    +0.033 A 
ATOM      6  C   UNL     1       0.708  -0.233  -7.193  0.00  0.00    +0.025 A 
ATOM      7  C   UNL     1       1.205  -0.887  -8.302  0.00  0.00    +0.030 A 
ATOM      8  C   UNL     1       1.617  -2.204  -8.203  0.00  0.00    +0.105 A 
ATOM      9  C   UNL     1       1.532  -2.869  -6.994  0.00  0.00    +0.030 A 
ATOM     10  C   UNL     1       1.042  -2.217  -5.879  0.00  0.00    +0.025 A 
BRANCH   8  11
ATOM     11  S   UNL     1       2.251  -3.036  -9.621  0.00  0.00    +0.059 S 
ATOM     12  O   UNL     1       2.059  -4.426  -9.396  0.00  0.00    -0.153 OA
ATOM     13  O   UNL     1       1.718  -2.367 -10.756  0.00  0.00    -0.153 OA
BRANCH  11  14
ATOM     14  N   UNL     1       3.887  -2.782  -9.647  0.00  0.00    -0.187 NA
ATOM     15  H   UNL     1       4.287  -2.271 -10.368  0.00  0.00    +0.148 HD
BRANCH  14  16
ATOM     16  C   UNL     1       4.730  -3.329  -8.582  0.00  0.00    +0.070 C 
ATOM     17  C   UNL     1       5.301  -4.678  -9.025  0.00  0.00    +0.025 C 
ATOM     18  C   UNL     1       5.878  -2.361  -8.291  0.00  0.00    +0.025 C 
ENDBRANCH  14  16
ENDBRANCH  11  14
ENDBRANCH   8  11
ENDBRANCH   3   5
BRANCH   1  19
ATOM     19  C   UNL     1       0.003   0.117  -2.405  0.00  0.00    +0.014 C 
ATOM     20  C   UNL     1       0.085   1.641  -2.511  0.00  0.00    -0.004 C 
BRANCH  19  21
ATOM     21  N   UNL     1       0.728  -0.331  -1.208  0.00  0.00    +0.391 N 
ATOM     22  H   UNL     1       1.669   0.034  -1.229  0.00  0.00    -0.084 HD
ATOM     23  H   UNL     1       0.759  -1.339  -1.191  0.00  0.00    -0.084 HD
BRANCH  21  25
ATOM     24  C   UNL     1       0.869  -0.185   1.232  0.00  0.00    -0.009 C 
ATOM     25  C   UNL     1       0.039   0.158  -0.007  0.00  0.00    -0.042 C 
BRANCH  25  26
ATOM     26  C   UNL     1      -1.314  -0.496   0.098  0.00  0.00    -0.043 A 
ATOM     27  C   UNL     1      -1.535  -1.726  -0.494  0.00  0.00    +0.005 A 
ATOM     28  C   UNL     1      -2.776  -2.326  -0.399  0.00  0.00    +0.020 A 
ATOM     29  C   UNL     1      -3.798  -1.698   0.290  0.00  0.00    +0.042 A 
ATOM     30  C   UNL     1      -3.578  -0.468   0.883  0.00  0.00    +0.040 A 
ATOM     31  C   UNL     1      -2.334   0.131   0.792  0.00  0.00    +0.044 A 
ATOM     32 CL   UNL     1      -2.054   1.672   1.541  0.00  0.00    -0.083 Cl
ATOM     33 CL   UNL     1      -5.357  -2.452   0.410  0.00  0.00    -0.083 Cl
ENDBRANCH  25  26
ENDBRANCH  21  25
ENDBRANCH  19  21
ENDBRANCH   1  19
TORSDOF 8
