REMARK  Name = ZINC34786316
REMARK  10 active torsions:
REMARK  status: ('A' for Active; 'I' for Inactive)
REMARK    1  A    between atoms: C_1  and  C_2
REMARK    2  A    between atoms: C_2  and  C_3
REMARK    3  A    between atoms: C_4  and  C_32
REMARK    4  A    between atoms: C_6  and  N_11
REMARK    5  A    between atoms: C_7  and  C_8
REMARK    6  A    between atoms: N_17  and  C_20
REMARK    7  A    between atoms: C_20  and  C_21
REMARK    8  A    between atoms: N_23  and  C_24
REMARK    9  A    between atoms: C_29  and  O_30
REMARK   10  A    between atoms: O_30  and  C_31
REMARK                            x       y       z     vdW  Elec       q    Type
REMARK                         _______ _______ _______ _____ _____    ______ ____
ROOT
ATOM      1  N   UNL     1       0.388  -1.543   4.814  0.00  0.00    -0.263 N 
ATOM      2  C   UNL     1       1.297  -1.980   5.708  0.00  0.00    +0.307 C 
ATOM      3  O   UNL     1       2.448  -2.164   5.365  0.00  0.00    -0.252 OA
ATOM      4  N   UNL     1       0.929  -2.212   6.984  0.00  0.00    -0.289 N 
ATOM      5  C   UNL     1      -0.480  -2.111   7.395  0.00  0.00    +0.091 C 
ATOM      6  C   UNL     1      -0.857  -3.386   8.157  0.00  0.00    -0.059 C 
ATOM      7  N   UNL     1       0.085  -3.589   9.265  0.00  0.00    +0.387 N 
ATOM      8  C   UNL     1       1.434  -3.828   8.737  0.00  0.00    -0.059 C 
ATOM      9  C   UNL     1       1.923  -2.581   8.003  0.00  0.00    +0.091 C 
ATOM     10  H   UNL     1      -0.544  -1.466   5.068  0.00  0.00    +0.157 HD
ATOM     11  H   UNL     1       0.095  -2.768   9.851  0.00  0.00    -0.081 HD
ENDROOT
BRANCH   1  15
ATOM     12  C   UNL     1       0.676  -0.463   1.240  0.00  0.00    -0.024 A 
ATOM     13  C   UNL     1       2.003  -0.685   1.231  0.00  0.00    -0.008 A 
ATOM     14  S   UNL     1       2.333  -1.262   2.881  0.00  0.00    -0.078 S 
ATOM     15  C   UNL     1       0.787  -1.205   3.530  0.00  0.00    +0.086 A 
ATOM     16  C   UNL     1       0.000  -0.736   2.488  0.00  0.00    +0.068 A 
ATOM     17  C   UNL     1       2.975  -0.491   0.096  0.00  0.00    +0.052 C 
BRANCH  16  18
ATOM     18  C   UNL     1      -1.444  -0.534   2.643  0.00  0.00    +0.244 C 
ATOM     19  O   UNL     1      -2.215  -1.442   2.397  0.00  0.00    -0.270 OA
ATOM     20  N   UNL     1      -1.916   0.658   3.059  0.00  0.00    -0.325 N 
ATOM     21  H   UNL     1      -1.301   1.382   3.255  0.00  0.00    +0.145 HD
ATOM     22  H   UNL     1      -2.871   0.792   3.162  0.00  0.00    +0.145 HD
ENDBRANCH  16  18
BRANCH  12  24
ATOM     23  C   UNL     1      -0.071   1.576   0.042  0.00  0.00    +0.009 C 
ATOM     24  C   UNL     1      -0.059   0.046   0.027  0.00  0.00    +0.033 C 
ENDBRANCH  12  24
ENDBRANCH   1  15
BRANCH   7  25
ATOM     25  C   UNL     1      -0.341  -4.749  10.060  0.00  0.00    +0.019 C 
BRANCH  25  26
ATOM     26  C   UNL     1       0.552  -4.885  11.267  0.00  0.00    +0.201 C 
ATOM     27  O   UNL     1       1.454  -4.094  11.446  0.00  0.00    -0.278 OA
ATOM     28  N   UNL     1       0.348  -5.886  12.146  0.00  0.00    -0.284 N 
ATOM     29  H   UNL     1      -0.320  -6.565  11.962  0.00  0.00    +0.155 HD
BRANCH  28  30
ATOM     30  C   UNL     1       1.102  -5.946  13.326  0.00  0.00    +0.076 A 
ATOM     31  C   UNL     1       1.657  -4.790  13.857  0.00  0.00    +0.027 A 
ATOM     32  C   UNL     1       2.399  -4.852  15.021  0.00  0.00    +0.002 A 
ATOM     33  C   UNL     1       2.591  -6.064  15.659  0.00  0.00    +0.004 A 
ATOM     34  C   UNL     1       2.041  -7.219  15.136  0.00  0.00    +0.047 A 
ATOM     35  C   UNL     1       1.291  -7.165  13.973  0.00  0.00    +0.141 A 
BRANCH  35  36
ATOM     36  O   UNL     1       0.744  -8.300  13.461  0.00  0.00    -0.493 OA
ATOM     37  C   UNL     1       0.979  -9.514  14.177  0.00  0.00    +0.277 C 
ENDBRANCH  35  36
ENDBRANCH  28  30
ENDBRANCH  25  26
ENDBRANCH   7  25
TORSDOF 7
