REMARK  Name = ZINC17226737
REMARK  9 active torsions:
REMARK  status: ('A' for Active; 'I' for Inactive)
REMARK    1  A    between atoms: C_1  and  C_2
REMARK    2  A    between atoms: C_7  and  N_12
REMARK    3  A    between atoms: C_9  and  C_11
REMARK    4  A    between atoms: C_13  and  C_15
REMARK    5  A    between atoms: C_15  and  C_17
REMARK    6  A    between atoms: C_15  and  S_18
REMARK    7  A    between atoms: S_18  and  C_19
REMARK    8  A    between atoms: C_22  and  S_25
REMARK    9  A    between atoms: S_25  and  N_28
REMARK                            x       y       z     vdW  Elec       q    Type
REMARK                         _______ _______ _______ _____ _____    ______ ____
ROOT
ATOM      1  S   UNL     1      -2.611   0.883   0.742  0.00  0.00    -0.093 S 
ENDROOT
BRANCH   1   2
ATOM      2  C   UNL     1      -4.032   1.922   0.819  0.00  0.00    +0.098 A 
ATOM      3  C   UNL     1      -5.225   1.422   1.333  0.00  0.00    +0.037 A 
ATOM      4  C   UNL     1      -6.332   2.248   1.388  0.00  0.00    +0.032 A 
ATOM      5  C   UNL     1      -6.209   3.552   0.925  0.00  0.00    +0.124 A 
ATOM      6  C   UNL     1      -4.995   3.983   0.428  0.00  0.00    +0.140 A 
ATOM      7  N   UNL     1      -3.954   3.174   0.393  0.00  0.00    -0.247 NA
BRANCH   5   8
ATOM      8  S   UNL     1      -7.589   4.647   0.973  0.00  0.00    +0.062 S 
ATOM      9  O   UNL     1      -7.358   5.636  -0.020  0.00  0.00    -0.153 OA
ATOM     10  O   UNL     1      -8.754   3.832   0.980  0.00  0.00    -0.153 OA
BRANCH   8  11
ATOM     11  N   UNL     1      -7.547   5.424   2.435  0.00  0.00    -0.177 NA
ATOM     12  C   UNL     1      -8.200   4.965   3.669  0.00  0.00    +0.109 C 
ATOM     13  C   UNL     1      -7.909   6.016   4.761  0.00  0.00    +0.018 C 
ATOM     14  C   UNL     1      -7.593   7.292   3.936  0.00  0.00    +0.018 C 
ATOM     15  C   UNL     1      -6.854   6.696   2.712  0.00  0.00    +0.109 C 
ENDBRANCH   8  11
ENDBRANCH   5   8
ENDBRANCH   1   2
BRANCH   1  16
ATOM     16  C   UNL     1      -1.330   1.944   0.019  0.00  0.00    +0.135 C 
ATOM     17  C   UNL     1      -1.720   2.311  -1.414  0.00  0.00    +0.029 C 
BRANCH  16  19
ATOM     18  N   UNL     1       1.143   1.898   0.001  0.00  0.00    -0.311 N 
ATOM     19  C   UNL     1      -0.014   1.209   0.009  0.00  0.00    +0.226 C 
ATOM     20  O   UNL     1       0.002  -0.004   0.002  0.00  0.00    -0.275 OA
ATOM     21  H   UNL     1       1.130   2.868   0.007  0.00  0.00    +0.149 HD
BRANCH  18  27
ATOM     22  C   UNL     1       5.936   2.214   1.177  0.00  0.00    +0.008 C 
ATOM     23  C   UNL     1       4.846   1.325   0.573  0.00  0.00    -0.009 C 
ATOM     24  C   UNL     1       5.216   0.974  -0.870  0.00  0.00    +0.003 C 
ATOM     25  C   UNL     1       4.127   0.085  -1.474  0.00  0.00    +0.002 C 
ATOM     26  C   UNL     1       2.792   0.832  -1.457  0.00  0.00    +0.022 C 
ATOM     27  C   UNL     1       2.422   1.183  -0.015  0.00  0.00    +0.076 C 
ATOM     28  C   UNL     1       3.511   2.072   0.589  0.00  0.00    +0.009 C 
ATOM     29  C   UNL     1       3.635   3.357  -0.232  0.00  0.00    +0.009 C 
ENDBRANCH  18  27
ENDBRANCH  16  19
ENDBRANCH   1  16
TORSDOF 6
