REMARK  Name = ZINC09114419
REMARK  7 active torsions:
REMARK  status: ('A' for Active; 'I' for Inactive)
REMARK    1  A    between atoms: C_1  and  N_50
REMARK    2  A    between atoms: C_2  and  C_3
REMARK    3  A    between atoms: C_2  and  N_50
REMARK    4  A    between atoms: C_14  and  C_15
REMARK    5  A    between atoms: C_14  and  N_50
REMARK    6  A    between atoms: C_18  and  C_28
REMARK    7  A    between atoms: C_21  and  C_23
REMARK                            x       y       z     vdW  Elec       q    Type
REMARK                         _______ _______ _______ _____ _____    ______ ____
ROOT
ATOM      1  C   UNL     1       0.159  -6.677  -0.510  0.00  0.00    +0.219 C 
ATOM      2  O   UNL     1      -0.807  -5.944  -0.470  0.00  0.00    -0.276 OA
ATOM      3  N   UNL     1      -0.003  -7.992  -0.758  0.00  0.00    -0.186 N 
ATOM      4  C   UNL     1      -1.289  -8.666  -0.996  0.00  0.00    +0.143 C 
ATOM      5  C   UNL     1      -0.892 -10.138  -1.219  0.00  0.00    +0.088 C 
ATOM      6  C   UNL     1       0.614 -10.135  -1.079  0.00  0.00    +0.075 C 
ATOM      7  N   UNL     1       1.021  -8.934  -0.835  0.00  0.00    -0.180 NA
ENDROOT
BRANCH   6   8
ATOM      8  C   UNL     1       1.478 -11.312  -1.207  0.00  0.00    +0.035 A 
ATOM      9  C   UNL     1       2.855 -11.400  -1.095  0.00  0.00    +0.017 A 
ATOM     10  C   UNL     1       3.447 -12.631  -1.258  0.00  0.00    +0.008 A 
ATOM     11  C   UNL     1       2.669 -13.714  -1.521  0.00  0.00    +0.046 A 
ATOM     12  S   UNL     1       1.030 -13.008  -1.540  0.00  0.00    -0.095 S 
ENDBRANCH   6   8
BRANCH   4  13
ATOM     13  C   UNL     1      -2.187  -8.536   0.208  0.00  0.00    +0.013 A 
ATOM     14  C   UNL     1      -3.526  -8.335   0.256  0.00  0.00    +0.013 A 
ATOM     15  C   UNL     1      -4.147  -8.247   1.488  0.00  0.00    +0.008 A 
ATOM     16  C   UNL     1      -3.398  -8.364   2.612  0.00  0.00    +0.045 A 
ATOM     17  S   UNL     1      -1.762  -8.614   1.940  0.00  0.00    -0.100 S 
ENDBRANCH   4  13
BRANCH   1  18
ATOM     18  C   UNL     1       1.540  -6.117  -0.284  0.00  0.00    +0.021 C 
BRANCH  18  20
ATOM     19  C   UNL     1       0.748  -4.397   1.225  0.00  0.00    -0.095 C 
ATOM     20  N   UNL     1       1.433  -4.661  -0.058  0.00  0.00    +0.388 N 
ATOM     21  H   UNL     1       0.884  -4.245  -0.821  0.00  0.00    -0.081 HD
BRANCH  20  22
ATOM     22  C   UNL     1       2.779  -4.051  -0.047  0.00  0.00    -0.003 C 
BRANCH  22  23
ATOM     23  C   UNL     1       2.633  -2.551  -0.038  0.00  0.00    +0.094 A 
ATOM     24  N   UNL     1       3.761  -1.792  -0.044  0.00  0.00    -0.311 N 
ATOM     25  H   UNL     1       4.634  -2.213  -0.056  0.00  0.00    +0.170 HD
ATOM     26  C   UNL     1       3.652  -0.442  -0.036  0.00  0.00    +0.266 A 
ATOM     27  O   UNL     1       4.645   0.267  -0.042  0.00  0.00    -0.267 OA
ATOM     28  C   UNL     1       2.373   0.115  -0.020  0.00  0.00    +0.102 A 
ATOM     29  C   UNL     1       1.223  -0.693  -0.013  0.00  0.00    +0.085 A 
ATOM     30  N   UNL     1       1.440  -2.049  -0.023  0.00  0.00    -0.235 NA
ATOM     31  C   UNL     1       0.002  -0.004   0.002  0.00  0.00    +0.036 A 
ATOM     32  C   UNL     1      -0.016   1.346   0.009  0.00  0.00    +0.048 A 
ATOM     33  S   UNL     1       1.720   1.763  -0.005  0.00  0.00    -0.090 S 
ENDBRANCH  22  23
ENDBRANCH  20  22
ENDBRANCH  18  20
ENDBRANCH   1  18
TORSDOF 6
