REMARK  Name = ZINC12467838
REMARK  9 active torsions:
REMARK  status: ('A' for Active; 'I' for Inactive)
REMARK    1  A    between atoms: C_7  and  C_11
REMARK    2  A    between atoms: C_11  and  C_13
REMARK    3  A    between atoms: C_11  and  N_21
REMARK    4  A    between atoms: N_15  and  C_16
REMARK    5  A    between atoms: N_21  and  C_22
REMARK    6  A    between atoms: C_22  and  C_23
REMARK    7  A    between atoms: C_28  and  C_30
REMARK    8  A    between atoms: C_31  and  N_38
REMARK    9  A    between atoms: C_32  and  C_35
REMARK                            x       y       z     vdW  Elec       q    Type
REMARK                         _______ _______ _______ _____ _____    ______ ____
ROOT
ATOM      1  N   UNL     1      -1.230   1.777  -0.124  0.00  0.00    -0.277 N 
ATOM      2  C   UNL     1      -0.883   3.072  -0.265  0.00  0.00    +0.258 C 
ATOM      3  O   UNL     1      -1.732   3.941  -0.196  0.00  0.00    -0.269 OA
ENDROOT
BRANCH   2   4
ATOM      4  C   UNL     1       0.517   3.434  -0.495  0.00  0.00    +0.115 A 
ATOM      5  C   UNL     1       1.075   4.684  -0.768  0.00  0.00    +0.076 A 
ATOM      6  C   UNL     1       2.460   4.629  -0.925  0.00  0.00    +0.155 A 
ATOM      7  N   UNL     1       3.074   3.471  -0.818  0.00  0.00    -0.203 NA
ATOM      8  S   UNL     1       1.964   2.395  -0.509  0.00  0.00    +0.019 S 
BRANCH   6   9
ATOM      9  C   UNL     1       3.226   5.854  -1.215  0.00  0.00    +0.262 C 
ATOM     10  O   UNL     1       2.652   6.921  -1.314  0.00  0.00    -0.269 OA
ATOM     11  N   UNL     1       4.564   5.792  -1.371  0.00  0.00    -0.324 N 
ATOM     12  H   UNL     1       5.022   4.941  -1.292  0.00  0.00    +0.145 HD
ATOM     13  H   UNL     1       5.068   6.598  -1.562  0.00  0.00    +0.145 HD
ENDBRANCH   6   9
BRANCH   5  14
ATOM     14  N   UNL     1       0.333   5.854  -0.869  0.00  0.00    -0.355 N 
ATOM     15  H   UNL     1      -0.629   5.830  -0.748  0.00  0.00    +0.142 HD
ATOM     16  H   UNL     1       0.777   6.694  -1.062  0.00  0.00    +0.142 HD
ENDBRANCH   5  14
ENDBRANCH   2   4
BRANCH   1  17
ATOM     17  C   UNL     1      -2.642   1.406  -0.003  0.00  0.00    +0.195 C 
BRANCH  17  24
ATOM     18  C   UNL     1      -6.696  -0.005  -1.885  0.00  0.00    +0.001 A 
ATOM     19  C   UNL     1      -6.969   0.605  -3.102  0.00  0.00    +0.002 A 
ATOM     20  C   UNL     1      -6.093   1.522  -3.640  0.00  0.00    +0.026 A 
ATOM     21  C   UNL     1      -4.922   1.841  -2.960  0.00  0.00    +0.047 A 
ATOM     22  C   UNL     1      -4.650   1.219  -1.727  0.00  0.00    +0.005 A 
ATOM     23  C   UNL     1      -5.552   0.293  -1.200  0.00  0.00    +0.010 A 
ATOM     24  C   UNL     1      -3.366   1.760  -1.276  0.00  0.00    +0.007 A 
ATOM     25  C   UNL     1      -2.959   2.636  -2.209  0.00  0.00    +0.089 A 
ATOM     26  N   UNL     1      -3.873   2.693  -3.225  0.00  0.00    -0.360 N 
ATOM     27  H   UNL     1      -3.796   3.253  -4.013  0.00  0.00    +0.165 HD
ENDBRANCH  17  24
BRANCH  17  28
ATOM     28  C   UNL     1      -3.260   2.154   1.151  0.00  0.00    +0.238 C 
ATOM     29  O   UNL     1      -2.587   2.920   1.807  0.00  0.00    -0.273 OA
ATOM     30  N   UNL     1      -4.560   1.970   1.454  0.00  0.00    -0.311 N 
ATOM     31  H   UNL     1      -5.098   1.357   0.930  0.00  0.00    +0.149 HD
BRANCH  30  32
ATOM     32  C   UNL     1      -5.160   2.696   2.576  0.00  0.00    +0.073 C 
ATOM     33  C   UNL     1      -4.968   1.901   3.884  0.00  0.00    +0.022 C 
ATOM     34  C   UNL     1      -6.283   2.135   4.668  0.00  0.00    +0.002 C 
ATOM     35  C   UNL     1      -7.355   2.115   3.550  0.00  0.00    +0.002 C 
ATOM     36  C   UNL     1      -6.678   2.832   2.363  0.00  0.00    +0.022 C 
ENDBRANCH  30  32
ENDBRANCH  17  28
ENDBRANCH   1  17
BRANCH   1  37
ATOM     37  C   UNL     1      -0.195   0.741  -0.093  0.00  0.00    +0.151 C 
BRANCH  37  38
ATOM     38  C   UNL     1       0.332   0.598   1.311  0.00  0.00    +0.007 A 
ATOM     39  C   UNL     1      -0.038  -0.278   2.277  0.00  0.00    +0.013 A 
ATOM     40  C   UNL     1       0.591  -0.225   3.507  0.00  0.00    +0.008 A 
ATOM     41  C   UNL     1       1.559   0.702   3.711  0.00  0.00    +0.045 A 
ATOM     42  S   UNL     1       1.610   1.536   2.133  0.00  0.00    -0.100 S 
ENDBRANCH  37  38
ENDBRANCH   1  37
TORSDOF 9
