REMARK  Name = ZINC37569840
REMARK  6 active torsions:
REMARK  status: ('A' for Active; 'I' for Inactive)
REMARK    1  A    between atoms: C_3  and  C_6
REMARK    2  A    between atoms: C_6  and  N_7
REMARK    3  A    between atoms: C_8  and  C_10
REMARK    4  A    between atoms: C_15  and  C_16
REMARK    5  A    between atoms: C_17  and  C_18
REMARK    6  A    between atoms: C_18  and  N_19
REMARK                            x       y       z     vdW  Elec       q    Type
REMARK                         _______ _______ _______ _____ _____    ______ ____
ROOT
ATOM      1  C   UNL     1       5.933   0.556   2.966  0.00  0.00    +0.055 A 
ATOM      2  C   UNL     1       5.042   0.566   4.039  0.00  0.00    +0.052 A 
ATOM      3  C   UNL     1       5.520   0.548   5.335  0.00  0.00    +0.124 A 
ATOM      4  C   UNL     1       6.886   0.521   5.578  0.00  0.00    +0.039 A 
ATOM      5  C   UNL     1       7.783   0.512   4.530  0.00  0.00    +0.020 A 
ATOM      6  C   UNL     1       7.319   0.522   3.215  0.00  0.00    +0.037 A 
ATOM      7  F   UNL     1       4.654   0.558   6.371  0.00  0.00    -0.205 F 
ENDROOT
BRANCH   1   9
ATOM      8  N   UNL     1       4.101   0.607   1.347  0.00  0.00    -0.304 N 
ATOM      9  C   UNL     1       5.428   0.575   1.580  0.00  0.00    +0.246 C 
ATOM     10  O   UNL     1       6.208   0.561   0.648  0.00  0.00    -0.270 OA
ATOM     11  H   UNL     1       3.478   0.617   2.090  0.00  0.00    +0.149 HD
BRANCH   8  12
ATOM     12  C   UNL     1       3.599   0.625  -0.029  0.00  0.00    +0.179 C 
BRANCH  12  15
ATOM     13  C   UNL     1      -0.016   1.341   0.009  0.00  0.00    +0.041 A 
ATOM     14  C   UNL     1       1.331   1.769  -0.001  0.00  0.00    +0.046 A 
ATOM     15  C   UNL     1       2.092   0.660  -0.014  0.00  0.00    +0.122 A 
ATOM     16  O   UNL     1       1.282  -0.411  -0.012  0.00  0.00    -0.466 OA
ATOM     17  C   UNL     1       0.002  -0.004   0.002  0.00  0.00    +0.195 A 
ENDBRANCH  12  15
ENDBRANCH   8  12
ENDBRANCH   1   9
BRANCH   6  18
ATOM     18  C   UNL     1       8.246   0.506   2.124  0.00  0.00    -0.067 C 
ATOM     19  C   UNL     1       9.007   0.493   1.230  0.00  0.00    -0.117 C 
BRANCH  19  20
ATOM     20  C   UNL     1       9.960   0.476   0.108  0.00  0.00    +0.005 C 
BRANCH  20  21
ATOM     21  N   UNL     1      11.332   0.442   0.632  0.00  0.00    +0.385 N 
ATOM     22  H   UNL     1      11.495   1.260   1.200  0.00  0.00    -0.089 HD
ATOM     23  H   UNL     1      11.457  -0.388   1.192  0.00  0.00    -0.089 HD
ATOM     24  H   UNL     1      11.985   0.431  -0.137  0.00  0.00    -0.089 HD
ENDBRANCH  20  21
ENDBRANCH  19  20
ENDBRANCH   6  18
TORSDOF 6
