REMARK  Name = ZINC65182904
REMARK  12 active torsions:
REMARK  status: ('A' for Active; 'I' for Inactive)
REMARK    1  A    between atoms: C_1  and  C_2
REMARK    2  A    between atoms: C_2  and  C_3
REMARK    3  A    between atoms: C_2  and  C_4
REMARK    4  A    between atoms: C_2  and  C_5
REMARK    5  A    between atoms: C_8  and  C_11
REMARK    6  A    between atoms: N_13  and  C_14
REMARK    7  A    between atoms: N_13  and  C_15
REMARK    8  A    between atoms: C_15  and  C_16
REMARK    9  A    between atoms: C_16  and  C_17
REMARK   10  A    between atoms: C_20  and  C_23
REMARK   11  A    between atoms: C_28  and  O_33
REMARK   12  A    between atoms: O_33  and  C_34
REMARK                            x       y       z     vdW  Elec       q    Type
REMARK                         _______ _______ _______ _____ _____    ______ ____
ROOT
ATOM      1  C   UNL     1       4.552  -0.796  -8.669  0.00  0.00    +0.139 C 
ATOM      2  N   UNL     1       5.346  -1.757  -8.975  0.00  0.00    -0.072 NA
ATOM      3  O   UNL     1       5.708  -1.701 -10.342  0.00  0.00    -0.367 OA
ATOM      4  C   UNL     1       5.034  -0.558 -10.891  0.00  0.00    +0.318 C 
ATOM      5  N   UNL     1       4.283   0.001  -9.756  0.00  0.00    -0.291 N 
ATOM      6  H   UNL     1       3.709   0.783  -9.771  0.00  0.00    +0.151 HD
ENDROOT
BRANCH   4   7
ATOM      7  C   UNL     1       4.077  -0.986 -12.005  0.00  0.00    +0.165 C 
ATOM      8  C   UNL     1       4.848  -1.620 -13.141  0.00  0.00    +0.013 C 
ATOM      9  C   UNL     1       4.615  -0.851 -14.228  0.00  0.00    -0.000 A 
ATOM     10  C   UNL     1       5.069  -0.932 -15.621  0.00  0.00    +0.055 A 
ATOM     11  C   UNL     1       4.662   0.005 -16.511  0.00  0.00    +0.121 A 
ATOM     12  C   UNL     1       3.810   1.063 -16.150  0.00  0.00    +0.047 A 
ATOM     13  C   UNL     1       3.340   1.222 -14.894  0.00  0.00    +0.029 A 
ATOM     14  C   UNL     1       3.718   0.265 -13.849  0.00  0.00    +0.043 A 
ATOM     15  N   UNL     1       3.409   0.189 -12.577  0.00  0.00    -0.373 N 
ATOM     16  H   UNL     1       2.835   0.805 -12.095  0.00  0.00    +0.160 HD
BRANCH  11  17
ATOM     17  O   UNL     1       5.091  -0.083 -17.798  0.00  0.00    -0.495 OA
ATOM     18  C   UNL     1       4.636   0.925 -18.703  0.00  0.00    +0.277 C 
ENDBRANCH  11  17
ENDBRANCH   4   7
BRANCH   1  19
ATOM     19  C   UNL     1       3.981  -0.574  -7.292  0.00  0.00    +0.094 C 
BRANCH  19  20
ATOM     20  C   UNL     1       4.502  -1.656  -6.343  0.00  0.00    +0.115 C 
BRANCH  20  23
ATOM     21  C   UNL     1       2.779  -2.015  -4.658  0.00  0.00    +0.246 C 
ATOM     22  O   UNL     1       2.229  -2.784  -5.423  0.00  0.00    -0.270 OA
ATOM     23  N   UNL     1       3.947  -1.440  -5.005  0.00  0.00    -0.300 N 
ATOM     24  C   UNL     1       4.662  -0.598  -4.043  0.00  0.00    +0.132 C 
BRANCH  21  28
ATOM     25  C   UNL     1       1.016  -1.143  -0.893  0.00  0.00    -0.042 A 
ATOM     26  C   UNL     1       2.387  -1.296  -0.993  0.00  0.00    +0.005 A 
ATOM     27  C   UNL     1       2.966  -1.579  -2.213  0.00  0.00    +0.013 A 
ATOM     28  C   UNL     1       2.165  -1.712  -3.348  0.00  0.00    +0.037 A 
ATOM     29  C   UNL     1       0.782  -1.557  -3.240  0.00  0.00    +0.013 A 
ATOM     30  C   UNL     1       0.215  -1.280  -2.014  0.00  0.00    +0.005 A 
BRANCH  25  32
ATOM     31  C   UNL     1      -0.588  -1.948   0.818  0.00  0.00    +0.015 C 
ATOM     32  C   UNL     1       0.390  -0.834   0.442  0.00  0.00    -0.013 C 
ATOM     33  C   UNL     1      -0.360   0.497   0.358  0.00  0.00    +0.015 C 
ATOM     34  C   UNL     1       1.484  -0.735   1.507  0.00  0.00    +0.015 C 
ENDBRANCH  25  32
ENDBRANCH  21  28
ENDBRANCH  20  23
ENDBRANCH  19  20
ENDBRANCH   1  19
TORSDOF 7
