REMARK  Name = ZINC20086798
REMARK  7 active torsions:
REMARK  status: ('A' for Active; 'I' for Inactive)
REMARK    1  A    between atoms: C_1  and  C_2
REMARK    2  A    between atoms: N_8  and  C_9
REMARK    3  A    between atoms: C_10  and  C_18
REMARK    4  A    between atoms: C_12  and  C_16
REMARK    5  A    between atoms: C_13  and  N_15
REMARK    6  A    between atoms: C_22  and  O_24
REMARK    7  A    between atoms: O_24  and  C_25
REMARK                            x       y       z     vdW  Elec       q    Type
REMARK                         _______ _______ _______ _____ _____    ______ ____
ROOT
ATOM      1  C   UNL     1      -0.422   3.849   0.421  0.00  0.00    +0.064 C 
ATOM      2  C   UNL     1      -0.949   2.890   1.457  0.00  0.00    +0.022 A 
ATOM      3  C   UNL     1      -1.516   3.372   2.584  0.00  0.00    +0.068 A 
ATOM      4  C   UNL     1      -2.005   2.479   3.559  0.00  0.00    +0.141 A 
ATOM      5  C   UNL     1      -1.896   1.123   3.337  0.00  0.00    +0.072 A 
ATOM      6  C   UNL     1      -1.306   0.668   2.151  0.00  0.00    +0.259 A 
ATOM      7  O   UNL     1      -1.203  -0.530   1.940  0.00  0.00    -0.267 OA
ATOM      8  N   UNL     1      -0.851   1.552   1.242  0.00  0.00    -0.315 N 
ATOM      9  C   UNL     1      -0.237   1.063   0.006  0.00  0.00    +0.152 C 
ATOM     10  C   UNL     1      -2.403   0.134   4.351  0.00  0.00    +0.103 C 
ATOM     11  C   UNL     1      -3.330   0.816   5.319  0.00  0.00    +0.098 C 
ATOM     12  C   UNL     1      -3.360   2.164   5.431  0.00  0.00    +0.199 C 
ATOM     13  O   UNL     1      -2.568   2.958   4.689  0.00  0.00    -0.441 OA
ENDROOT
BRANCH  10  14
ATOM     14  C   UNL     1      -1.237  -0.448   5.107  0.00  0.00    -0.031 A 
ATOM     15  C   UNL     1      -0.401   0.380   5.833  0.00  0.00    +0.005 A 
ATOM     16  C   UNL     1       0.669  -0.151   6.529  0.00  0.00    +0.004 A 
ATOM     17  C   UNL     1       0.907  -1.512   6.500  0.00  0.00    +0.046 A 
ATOM     18  C   UNL     1       0.070  -2.345   5.771  0.00  0.00    +0.129 A 
ATOM     19  C   UNL     1      -1.007  -1.810   5.078  0.00  0.00    +0.050 A 
BRANCH  18  20
ATOM     20  O   UNL     1       0.301  -3.684   5.741  0.00  0.00    -0.456 OA
BRANCH  20  21
ATOM     21  C   UNL     1       0.131  -4.387   6.891  0.00  0.00    +0.128 A 
ATOM     22  C   UNL     1      -0.383  -3.761   8.018  0.00  0.00    +0.046 A 
ATOM     23  C   UNL     1      -0.560  -4.480   9.185  0.00  0.00    +0.004 A 
ATOM     24  C   UNL     1      -0.215  -5.818   9.233  0.00  0.00    +0.000 A 
ATOM     25  C   UNL     1       0.303  -6.442   8.113  0.00  0.00    +0.004 A 
ATOM     26  C   UNL     1       0.476  -5.730   6.943  0.00  0.00    +0.046 A 
ENDBRANCH  20  21
ENDBRANCH  18  20
ENDBRANCH  10  14
BRANCH  12  27
ATOM     27  N   UNL     1      -4.225   2.739   6.329  0.00  0.00    -0.328 N 
ATOM     28  H   UNL     1      -4.262   3.833   6.434  0.00  0.00    +0.145 HD
ATOM     29  H   UNL     1      -4.880   2.105   6.945  0.00  0.00    +0.145 HD
ENDBRANCH  12  27
BRANCH  11  30
ATOM     30  C   UNL     1      -4.199   0.023   6.136  0.00  0.00    +0.101 C 
ATOM     31  N   UNL     1      -4.887  -0.606   6.785  0.00  0.00    -0.191 NA
ENDBRANCH  11  30
TORSDOF 5
