REMARK  Name = ZINC21922605
REMARK  3 active torsions:
REMARK  status: ('A' for Active; 'I' for Inactive)
REMARK    1  A    between atoms: C_4  and  C_7
REMARK    2  A    between atoms: C_9  and  C_30
REMARK    3  A    between atoms: C_13  and  C_16
REMARK                            x       y       z     vdW  Elec       q    Type
REMARK                         _______ _______ _______ _____ _____    ______ ____
ROOT
ATOM      1  C   UNL     1       1.712  11.885  -4.793  0.00  0.00    +0.075 A 
ATOM      2  C   UNL     1       0.609  12.084  -5.649  0.00  0.00    +0.060 A 
ATOM      3  C   UNL     1      -0.519  11.360  -5.454  0.00  0.00    +0.149 A 
ATOM      4  N   UNL     1      -0.567  10.464  -4.425  0.00  0.00    -0.209 N 
ATOM      5  C   UNL     1       0.520  10.299  -3.613  0.00  0.00    +0.169 A 
ATOM      6  N   UNL     1       1.633  11.004  -3.808  0.00  0.00    -0.227 NA
ATOM      7  C   UNL     1       0.171   9.318  -2.664  0.00  0.00    +0.101 A 
ATOM      8  C   UNL     1      -1.151   8.928  -2.945  0.00  0.00    +0.150 A 
ATOM      9  N   UNL     1      -1.577   9.604  -3.979  0.00  0.00    -0.172 NA
ENDROOT
BRANCH   7  10
ATOM     10  C   UNL     1       1.021   8.806  -1.585  0.00  0.00    +0.252 C 
ATOM     11  O   UNL     1       1.619   9.581  -0.862  0.00  0.00    -0.270 OA
ATOM     12  N   UNL     1       1.142   7.478  -1.395  0.00  0.00    -0.294 N 
ATOM     13  C   UNL     1       2.061   6.941  -0.380  0.00  0.00    +0.127 C 
ATOM     14  C   UNL     1       2.949   5.880  -1.039  0.00  0.00    +0.125 C 
ATOM     15  N   UNL     1       2.101   4.879  -1.702  0.00  0.00    -0.314 N 
ATOM     16  C   UNL     1       1.313   5.482  -2.785  0.00  0.00    +0.125 C 
ATOM     17  C   UNL     1       0.357   6.526  -2.197  0.00  0.00    +0.127 C 
ATOM     18  C   UNL     1       2.862   3.815  -2.172  0.00  0.00    +0.099 A 
ATOM     19  C   UNL     1       2.239   2.760  -2.831  0.00  0.00    +0.042 A 
ATOM     20  C   UNL     1       3.008   1.710  -3.298  0.00  0.00    +0.005 A 
ATOM     21  C   UNL     1       4.379   1.745  -3.080  0.00  0.00    +0.018 A 
ATOM     22  C   UNL     1       4.931   2.823  -2.417  0.00  0.00    +0.084 A 
ATOM     23  N   UNL     1       4.173   3.814  -1.987  0.00  0.00    -0.350 N 
ATOM     24  H   UNL     1       4.656   4.653  -1.465  0.00  0.00    +0.166 HD
ENDBRANCH   7  10
BRANCH   1  28
ATOM     25  C   UNL     1       5.287  14.109  -5.377  0.00  0.00    +0.000 A 
ATOM     26  C   UNL     1       5.208  13.190  -4.346  0.00  0.00    +0.001 A 
ATOM     27  C   UNL     1       4.050  12.465  -4.151  0.00  0.00    +0.010 A 
ATOM     28  C   UNL     1       2.958  12.661  -4.996  0.00  0.00    +0.000 A 
ATOM     29  C   UNL     1       3.046  13.585  -6.037  0.00  0.00    +0.010 A 
ATOM     30  C   UNL     1       4.207  14.308  -6.218  0.00  0.00    +0.001 A 
ENDBRANCH   1  28
BRANCH   3  31
ATOM     31  C   UNL     1      -1.714  11.554  -6.352  0.00  0.00    +0.434 C 
ATOM     32  F   UNL     1      -2.533  12.559  -5.827  0.00  0.00    -0.164 F 
ATOM     33  F   UNL     1      -1.281  11.925  -7.630  0.00  0.00    -0.164 F 
ATOM     34  F   UNL     1      -2.436  10.358  -6.433  0.00  0.00    -0.164 F 
ENDBRANCH   3  31
TORSDOF 3
