REMARK  Name = ZINC63532963
REMARK  8 active torsions:
REMARK  status: ('A' for Active; 'I' for Inactive)
REMARK    1  A    between atoms: C_1  and  C_2
REMARK    2  A    between atoms: C_8  and  C_11
REMARK    3  A    between atoms: C_11  and  C_12
REMARK    4  A    between atoms: C_12  and  N_13
REMARK    5  A    between atoms: C_14  and  C_16
REMARK    6  A    between atoms: C_19  and  C_23
REMARK    7  A    between atoms: C_26  and  O_29
REMARK    8  A    between atoms: O_29  and  C_30
REMARK                            x       y       z     vdW  Elec       q    Type
REMARK                         _______ _______ _______ _____ _____    ______ ____
ROOT
ATOM      1  N   UNL     1      -1.377  -2.600   5.613  0.00  0.00    -0.313 N 
ATOM      2  C   UNL     1      -2.537  -2.599   6.299  0.00  0.00    +0.244 C 
ATOM      3  O   UNL     1      -3.583  -2.808   5.722  0.00  0.00    -0.273 OA
ATOM      4  H   UNL     1      -0.540  -2.433   6.075  0.00  0.00    +0.149 HD
ENDROOT
BRANCH   2   5
ATOM      5  C   UNL     1      -2.534  -2.338   7.783  0.00  0.00    +0.229 C 
ATOM      6  C   UNL     1      -1.810  -3.482   8.521  0.00  0.00    +0.069 C 
ATOM      7  C   UNL     1      -2.873  -4.051   9.489  0.00  0.00    +0.114 C 
ATOM      8  N   UNL     1      -3.829  -2.920   9.635  0.00  0.00    -0.193 NA
ATOM      9  O   UNL     1      -3.884  -2.322   8.285  0.00  0.00    -0.286 OA
ATOM     10  H   UNL     1      -3.495  -2.251  10.313  0.00  0.00    +0.155 HD
BRANCH   7  11
ATOM     11  C   UNL     1      -2.252  -4.405  10.815  0.00  0.00    -0.028 A 
ATOM     12  C   UNL     1      -2.011  -3.415  11.750  0.00  0.00    +0.009 A 
ATOM     13  C   UNL     1      -1.441  -3.737  12.967  0.00  0.00    +0.046 A 
ATOM     14  C   UNL     1      -1.111  -5.054  13.250  0.00  0.00    +0.120 A 
ATOM     15  C   UNL     1      -1.354  -6.046  12.311  0.00  0.00    +0.046 A 
ATOM     16  C   UNL     1      -1.929  -5.720  11.098  0.00  0.00    +0.009 A 
BRANCH  14  17
ATOM     17  O   UNL     1      -0.550  -5.373  14.446  0.00  0.00    -0.495 OA
ATOM     18  C   UNL     1      -0.236  -6.749  14.669  0.00  0.00    +0.277 C 
ENDBRANCH  14  17
ENDBRANCH   7  11
ENDBRANCH   2   5
BRANCH   1  19
ATOM     19  C   UNL     1      -1.379  -2.854   4.170  0.00  0.00    +0.108 C 
BRANCH  19  20
ATOM     20  C   UNL     1       0.055  -2.799   3.641  0.00  0.00    +0.052 C 
BRANCH  20  28
ATOM     21  C   UNL     1      -0.018   1.503   0.010  0.00  0.00    +0.044 C 
ATOM     22  C   UNL     1       0.002  -0.004   0.002  0.00  0.00    -0.050 A 
ATOM     23  C   UNL     1       0.005  -0.680  -1.226  0.00  0.00    +0.005 A 
ATOM     24  C   UNL     1       0.023  -2.026  -1.317  0.00  0.00    +0.026 A 
ATOM     25  C   UNL     1       0.039  -2.826  -0.141  0.00  0.00    +0.043 A 
ATOM     26  N   UNL     1       0.057  -4.126   0.030  0.00  0.00    -0.380 N 
ATOM     27  C   UNL     1       0.067  -4.408   1.470  0.00  0.00    +0.144 C 
ATOM     28  C   UNL     1       0.052  -3.060   2.156  0.00  0.00    -0.040 C 
ATOM     29  C   UNL     1       0.036  -2.137   1.168  0.00  0.00    -0.001 A 
ATOM     30  C   UNL     1       0.022  -0.669   1.180  0.00  0.00    +0.013 A 
ATOM     31  H   UNL     1       0.062  -4.790  -0.677  0.00  0.00    +0.160 HD
ENDBRANCH  20  28
ENDBRANCH  19  20
ENDBRANCH   1  19
TORSDOF 6
