REMARK  Name = ZINC37064287
REMARK  6 active torsions:
REMARK  status: ('A' for Active; 'I' for Inactive)
REMARK    1  A    between atoms: C_1  and  C_2
REMARK    2  A    between atoms: C_5  and  N_20
REMARK    3  A    between atoms: C_6  and  S_9
REMARK    4  A    between atoms: C_7  and  C_8
REMARK    5  A    between atoms: S_9  and  N_12
REMARK    6  A    between atoms: N_12  and  C_13
REMARK                            x       y       z     vdW  Elec       q    Type
REMARK                         _______ _______ _______ _____ _____    ______ ____
ROOT
ATOM      1  S   UNL     1       0.184  -3.418   3.250  0.00  0.00    +0.074 S 
ATOM      2  O   UNL     1      -0.220  -2.513   4.269  0.00  0.00    -0.150 OA
ATOM      3  O   UNL     1      -0.454  -4.671   3.047  0.00  0.00    -0.150 OA
ENDROOT
BRANCH   1   9
ATOM      4  C   UNL     1      -0.381   1.010   0.534  0.00  0.00    +0.044 C 
ATOM      5  C   UNL     1      -0.193  -0.485   0.529  0.00  0.00    -0.046 A 
ATOM      6  C   UNL     1      -0.110  -1.166  -0.671  0.00  0.00    +0.005 A 
ATOM      7  C   UNL     1       0.063  -2.536  -0.679  0.00  0.00    +0.025 A 
ATOM      8  C   UNL     1       0.154  -3.230   0.521  0.00  0.00    +0.052 A 
ATOM      9  C   UNL     1       0.070  -2.542   1.725  0.00  0.00    +0.132 A 
ATOM     10  C   UNL     1      -0.097  -1.171   1.725  0.00  0.00    -0.019 A 
ATOM     11  C   UNL     1      -0.182  -0.424   3.031  0.00  0.00    +0.046 C 
BRANCH   8  12
ATOM     12  N   UNL     1       0.328  -4.616   0.517  0.00  0.00    -0.356 N 
ATOM     13  H   UNL     1       0.283  -5.108  -0.318  0.00  0.00    +0.142 HD
ATOM     14  H   UNL     1       0.494  -5.086   1.349  0.00  0.00    +0.142 HD
ENDBRANCH   8  12
ENDBRANCH   1   9
BRANCH   1  15
ATOM     15  N   UNL     1       1.787  -3.739   3.512  0.00  0.00    -0.216 N 
ATOM     16  H   UNL     1       2.107  -4.655   3.497  0.00  0.00    +0.174 HD
BRANCH  15  17
ATOM     17  C   UNL     1       2.679  -2.692   3.753  0.00  0.00    +0.048 A 
ATOM     18  C   UNL     1       2.664  -1.564   2.942  0.00  0.00    +0.025 A 
ATOM     19  C   UNL     1       3.547  -0.530   3.183  0.00  0.00    +0.016 A 
ATOM     20  C   UNL     1       4.447  -0.617   4.231  0.00  0.00    +0.013 A 
ATOM     21  C   UNL     1       4.465  -1.739   5.040  0.00  0.00    +0.016 A 
ATOM     22  C   UNL     1       3.580  -2.773   4.808  0.00  0.00    +0.025 A 
ATOM     23  I   UNL     1       5.786   0.954   4.591  0.00  0.00    -0.044 I 
ENDBRANCH  15  17
ENDBRANCH   1  15
TORSDOF 4
