REMARK  Name = ZINC05012207
REMARK  7 active torsions:
REMARK  status: ('A' for Active; 'I' for Inactive)
REMARK    1  A    between atoms: C_1  and  C_2
REMARK    2  A    between atoms: C_2  and  C_3
REMARK    3  A    between atoms: C_8  and  N_9
REMARK    4  A    between atoms: N_9  and  C_10
REMARK    5  A    between atoms: C_10  and  C_11
REMARK    6  A    between atoms: C_17  and  C_19
REMARK    7  A    between atoms: C_19  and  C_20
REMARK                            x       y       z     vdW  Elec       q    Type
REMARK                         _______ _______ _______ _____ _____    ______ ____
ROOT
ATOM      1  C   UNL     1       3.815  -1.330  -0.042  0.00  0.00    +0.236 C 
ATOM      2  O   UNL     1       4.380  -0.257  -0.041  0.00  0.00    -0.274 OA
ATOM      3  N   UNL     1       2.468  -1.382  -0.029  0.00  0.00    -0.263 N 
ATOM      4  C   UNL     1       1.727  -0.206  -0.015  0.00  0.00    +0.165 A 
ATOM      5  N   UNL     1       2.153   1.042  -0.013  0.00  0.00    -0.233 NA
ATOM      6  C   UNL     1       1.306   2.052   0.001  0.00  0.00    +0.124 A 
ATOM      7  C   UNL     1      -0.022   1.783   0.012  0.00  0.00    +0.015 A 
ATOM      8  S   UNL     1       0.002  -0.004   0.002  0.00  0.00    -0.057 S 
ATOM      9  H   UNL     1       2.016  -2.241  -0.030  0.00  0.00    +0.157 HD
ENDROOT
BRANCH   1  10
ATOM     10  C   UNL     1       4.618  -2.605  -0.057  0.00  0.00    +0.198 C 
BRANCH  10  11
ATOM     11  N   UNL     1       6.047  -2.281  -0.069  0.00  0.00    -0.335 N 
ATOM     12  H   UNL     1       6.335  -1.355  -0.066  0.00  0.00    +0.147 HD
BRANCH  11  18
ATOM     13  C   UNL     1       8.350  -3.002  -0.095  0.00  0.00    -0.027 A 
ATOM     14  C   UNL     1       9.285  -4.018  -0.109  0.00  0.00    +0.005 A 
ATOM     15  C   UNL     1       8.873  -5.338  -0.112  0.00  0.00    +0.000 A 
ATOM     16  C   UNL     1       7.525  -5.645  -0.100  0.00  0.00    +0.002 A 
ATOM     17  C   UNL     1       6.585  -4.634  -0.081  0.00  0.00    +0.023 A 
ATOM     18  C   UNL     1       6.995  -3.307  -0.083  0.00  0.00    +0.031 A 
BRANCH  13  20
ATOM     19  C   UNL     1       8.845  -1.047   1.349  0.00  0.00    +0.009 C 
ATOM     20  C   UNL     1       8.800  -1.563  -0.091  0.00  0.00    +0.033 C 
ENDBRANCH  13  20
ENDBRANCH  11  18
ENDBRANCH  10  11
ENDBRANCH   1  10
BRANCH   7  21
ATOM     21  C   UNL     1      -1.195   2.728   0.023  0.00  0.00    +0.079 C 
BRANCH  21  22
ATOM     22  C   UNL     1      -1.594   3.051  -1.394  0.00  0.00    -0.042 A 
ATOM     23  C   UNL     1      -1.030   4.134  -2.041  0.00  0.00    +0.007 A 
ATOM     24  C   UNL     1      -1.391   4.428  -3.342  0.00  0.00    +0.038 A 
ATOM     25  C   UNL     1      -2.326   3.643  -3.994  0.00  0.00    +0.123 A 
ATOM     26  C   UNL     1      -2.895   2.561  -3.344  0.00  0.00    +0.038 A 
ATOM     27  C   UNL     1      -2.528   2.266  -2.044  0.00  0.00    +0.007 A 
ATOM     28  F   UNL     1      -2.684   3.932  -5.265  0.00  0.00    -0.205 F 
ENDBRANCH  21  22
ENDBRANCH   7  21
TORSDOF 6
