REMARK  Name = ZINC33380440
REMARK  6 active torsions:
REMARK  status: ('A' for Active; 'I' for Inactive)
REMARK    1  A    between atoms: C_1  and  C_2
REMARK    2  A    between atoms: C_4  and  C_16
REMARK    3  A    between atoms: C_5  and  C_15
REMARK    4  A    between atoms: N_6  and  C_7
REMARK    5  A    between atoms: C_12  and  C_13
REMARK    6  A    between atoms: C_26  and  C_28
REMARK                            x       y       z     vdW  Elec       q    Type
REMARK                         _______ _______ _______ _____ _____    ______ ____
ROOT
ATOM      1  C   UNL     1       5.622   0.301  -1.047  0.00  0.00    +0.026 C 
ATOM      2  C   UNL     1       4.772   0.189   0.035  0.00  0.00    +0.081 C 
ATOM      3  C   UNL     1       3.781   1.250   0.367  0.00  0.00    +0.153 C 
ATOM      4  N   UNL     1       3.991   2.521   0.145  0.00  0.00    -0.283 NA
ATOM      5  N   UNL     1       2.594   0.751   0.944  0.00  0.00    -0.152 N 
ATOM      6  C   UNL     1       2.644  -0.492   1.538  0.00  0.00    +0.181 C 
ATOM      7  N   UNL     1       3.663  -1.312   1.586  0.00  0.00    -0.152 NA
ATOM      8  C   UNL     1       4.796  -0.994   0.928  0.00  0.00    +0.273 C 
ATOM      9  O   UNL     1       5.811  -1.659   1.065  0.00  0.00    -0.268 OA
ATOM     10  S   UNL     1       1.010  -0.655   2.208  0.00  0.00    -0.033 S 
ATOM     11  C   UNL     1       0.353   0.896   1.610  0.00  0.00    +0.133 C 
ATOM     12  N   UNL     1       1.384   1.412   0.986  0.00  0.00    -0.164 NA
ATOM     13  H   UNL     1       3.222   3.260   0.411  0.00  0.00    +0.188 HD
ENDROOT
BRANCH   1  17
ATOM     14  C   UNL     1       7.257  -4.404  -1.893  0.00  0.00    +0.064 C 
ATOM     15  C   UNL     1       7.150  -2.903  -1.803  0.00  0.00    +0.022 A 
ATOM     16  C   UNL     1       6.093  -2.226  -1.324  0.00  0.00    +0.031 A 
ATOM     17  C   UNL     1       6.431  -0.799  -1.430  0.00  0.00    -0.003 A 
ATOM     18  C   UNL     1       7.698  -0.750  -1.987  0.00  0.00    +0.028 A 
ATOM     19  N   UNL     1       8.112  -2.015  -2.196  0.00  0.00    -0.317 N 
ATOM     20  C   UNL     1       8.479   0.500  -2.299  0.00  0.00    +0.064 C 
BRANCH  19  21
ATOM     21  C   UNL     1       9.352  -2.371  -2.746  0.00  0.00    +0.051 A 
ATOM     22  C   UNL     1       9.486  -2.522  -4.120  0.00  0.00    +0.026 A 
ATOM     23  C   UNL     1      10.710  -2.866  -4.659  0.00  0.00    +0.003 A 
ATOM     24  C   UNL     1      11.799  -3.072  -3.832  0.00  0.00    +0.020 A 
ATOM     25  C   UNL     1      11.667  -2.928  -2.462  0.00  0.00    +0.046 A 
ATOM     26  C   UNL     1      10.446  -2.578  -1.917  0.00  0.00    -0.008 A 
ATOM     27  C   UNL     1      10.303  -2.421  -0.425  0.00  0.00    +0.047 C 
ATOM     28 CL   UNL     1      13.037  -3.188  -1.427  0.00  0.00    -0.083 Cl
ENDBRANCH  19  21
ENDBRANCH   1  17
BRANCH  11  29
ATOM     29  C   UNL     1      -1.008   1.453   1.773  0.00  0.00    +0.044 A 
ATOM     30  C   UNL     1      -1.979   0.735   2.471  0.00  0.00    +0.013 A 
ATOM     31  C   UNL     1      -3.245   1.262   2.624  0.00  0.00    +0.001 A 
ATOM     32  C   UNL     1      -3.557   2.495   2.078  0.00  0.00    +0.003 A 
ATOM     33  C   UNL     1      -2.602   3.210   1.381  0.00  0.00    +0.039 A 
ATOM     34  C   UNL     1      -1.327   2.697   1.224  0.00  0.00    +0.133 A 
ATOM     35  F   UNL     1      -0.394   3.396   0.541  0.00  0.00    -0.205 F 
ENDBRANCH  11  29
TORSDOF 3
