REMARK  Name = ZINC31249506
REMARK  12 active torsions:
REMARK  status: ('A' for Active; 'I' for Inactive)
REMARK    1  A    between atoms: C_1  and  C_2
REMARK    2  A    between atoms: C_2  and  C_4
REMARK    3  A    between atoms: C_2  and  N_13
REMARK    4  A    between atoms: C_7  and  C_10
REMARK    5  A    between atoms: C_10  and  C_11
REMARK    6  A    between atoms: C_10  and  C_12
REMARK    7  A    between atoms: C_14  and  C_16
REMARK    8  A    between atoms: C_16  and  C_18
REMARK    9  A    between atoms: C_16  and  N_21
REMARK   10  A    between atoms: C_18  and  C_19
REMARK   11  A    between atoms: C_18  and  C_20
REMARK   12  A    between atoms: C_22  and  C_24
REMARK                            x       y       z     vdW  Elec       q    Type
REMARK                         _______ _______ _______ _____ _____    ______ ____
ROOT
ATOM      1  N   UNL     1       0.745  -0.831  -1.168  0.00  0.00    -0.307 N 
ATOM      2  C   UNL     1       0.079  -0.668  -2.328  0.00  0.00    +0.234 C 
ATOM      3  O   UNL     1      -1.062  -0.254  -2.320  0.00  0.00    -0.274 OA
ATOM      4  H   UNL     1       1.631  -1.225  -1.169  0.00  0.00    +0.149 HD
ENDROOT
BRANCH   1   6
ATOM      5  C   UNL     1       0.395   1.077   0.321  0.00  0.00    +0.033 C 
ATOM      6  C   UNL     1       0.131  -0.413   0.094  0.00  0.00    +0.100 C 
BRANCH   6   7
ATOM      7  C   UNL     1       0.725  -1.207   1.229  0.00  0.00    -0.027 A 
ATOM      8  C   UNL     1       2.080  -1.480   1.247  0.00  0.00    +0.006 A 
ATOM      9  C   UNL     1       2.624  -2.208   2.288  0.00  0.00    +0.004 A 
ATOM     10  C   UNL     1       1.814  -2.663   3.312  0.00  0.00    -0.045 A 
ATOM     11  C   UNL     1       0.459  -2.389   3.294  0.00  0.00    +0.004 A 
ATOM     12  C   UNL     1      -0.085  -1.657   2.255  0.00  0.00    +0.006 A 
BRANCH  10  13
ATOM     13  C   UNL     1       2.408  -3.458   4.446  0.00  0.00    +0.013 C 
ATOM     14  C   UNL     1       2.163  -2.724   5.766  0.00  0.00    +0.012 C 
ATOM     15  C   UNL     1       1.750  -4.838   4.500  0.00  0.00    +0.012 C 
ENDBRANCH  10  13
ENDBRANCH   6   7
ENDBRANCH   1   6
BRANCH   2  16
ATOM     16  C   UNL     1       0.750  -1.001  -3.636  0.00  0.00    +0.162 C 
BRANCH  16  17
ATOM     17  N   UNL     1      -0.264  -1.386  -4.621  0.00  0.00    -0.300 N 
ATOM     18  C   UNL     1       0.070  -2.183  -5.655  0.00  0.00    +0.246 C 
ATOM     19  O   UNL     1       1.212  -2.583  -5.771  0.00  0.00    -0.270 OA
ATOM     20  H   UNL     1      -1.175  -1.067  -4.529  0.00  0.00    +0.150 HD
BRANCH  18  21
ATOM     21  C   UNL     1      -0.953  -2.571  -6.649  0.00  0.00    +0.055 A 
ATOM     22  C   UNL     1      -2.264  -2.109  -6.523  0.00  0.00    +0.014 A 
ATOM     23  C   UNL     1      -3.213  -2.474  -7.454  0.00  0.00    +0.001 A 
ATOM     24  C   UNL     1      -2.869  -3.298  -8.512  0.00  0.00    +0.001 A 
ATOM     25  C   UNL     1      -1.573  -3.760  -8.644  0.00  0.00    +0.021 A 
ATOM     26  C   UNL     1      -0.610  -3.397  -7.722  0.00  0.00    +0.053 A 
ATOM     27 CL   UNL     1       1.019  -3.972  -7.893  0.00  0.00    -0.083 Cl
ENDBRANCH  18  21
ENDBRANCH  16  17
BRANCH  16  28
ATOM     28  C   UNL     1       1.514   0.224  -4.143  0.00  0.00    +0.012 C 
ATOM     29  C   UNL     1       2.610   0.591  -3.140  0.00  0.00    +0.009 C 
ATOM     30  C   UNL     1       2.149  -0.096  -5.497  0.00  0.00    +0.009 C 
ENDBRANCH  16  28
ENDBRANCH   2  16
TORSDOF 7
