REMARK  Name = ZINC28349658
REMARK  5 active torsions:
REMARK  status: ('A' for Active; 'I' for Inactive)
REMARK    1  A    between atoms: C_6  and  S_7
REMARK    2  A    between atoms: S_7  and  N_10
REMARK    3  A    between atoms: C_13  and  C_16
REMARK    4  A    between atoms: N_18  and  C_19
REMARK    5  A    between atoms: C_19  and  C_20
REMARK                            x       y       z     vdW  Elec       q    Type
REMARK                         _______ _______ _______ _____ _____    ______ ____
ROOT
ATOM      1  N   UNL     1      -2.163   1.185  -1.141  0.00  0.00    -0.177 NA
ATOM      2  C   UNL     1      -0.755   1.594  -1.232  0.00  0.00    +0.110 C 
ATOM      3  C   UNL     1      -0.013   1.086   0.008  0.00  0.00    +0.030 C 
ATOM      4  C   UNL     1      -0.730   1.580   1.266  0.00  0.00    +0.077 C 
ATOM      5  C   UNL     1      -2.156   1.023   1.294  0.00  0.00    +0.030 C 
ATOM      6  C   UNL     1      -2.923   1.530   0.068  0.00  0.00    +0.110 C 
ENDROOT
BRANCH   4   7
ATOM      7  C   UNL     1       0.017   1.111   2.488  0.00  0.00    +0.216 C 
ATOM      8  O   UNL     1       1.024   0.446   2.364  0.00  0.00    -0.276 OA
ATOM      9  N   UNL     1      -0.434   1.429   3.717  0.00  0.00    -0.315 N 
ATOM     10  H   UNL     1      -1.347   2.031   3.829  0.00  0.00    +0.149 HD
BRANCH   9  11
ATOM     11  C   UNL     1       0.293   0.972   4.905  0.00  0.00    +0.106 C 
BRANCH  11  12
ATOM     12  C   UNL     1      -0.424   1.466   6.163  0.00  0.00    -0.008 C 
ATOM     13  C   UNL     1      -0.375   2.994   6.209  0.00  0.00    +0.002 C 
ATOM     14  C   UNL     1      -1.052   3.471   7.495  0.00  0.00    -0.018 C 
ATOM     15  C   UNL     1      -0.327   2.857   8.692  0.00  0.00    -0.078 C 
ATOM     16  N   UNL     1      -0.384   1.389   8.619  0.00  0.00    +0.382 N 
ATOM     17  C   UNL     1       0.264   0.885   7.402  0.00  0.00    -0.064 C 
ATOM     18  C   UNL     1       0.151  -0.641   7.337  0.00  0.00    -0.015 C 
ATOM     19  C   UNL     1       0.784  -1.262   8.583  0.00  0.00    -0.003 C 
ATOM     20  C   UNL     1       0.082  -0.704   9.825  0.00  0.00    -0.019 C 
ATOM     21  C   UNL     1       0.226   0.818   9.831  0.00  0.00    -0.078 C 
ATOM     22  H   UNL     1      -1.436   1.072   8.564  0.00  0.00    -0.081 HD
ENDBRANCH  11  12
ENDBRANCH   9  11
ENDBRANCH   4   7
BRANCH   1  23
ATOM     23  S   UNL     1      -2.880   0.349  -2.378  0.00  0.00    +0.061 S 
ATOM     24  O   UNL     1      -4.277   0.588  -2.273  0.00  0.00    -0.153 OA
ATOM     25  O   UNL     1      -2.142   0.651  -3.554  0.00  0.00    -0.153 OA
BRANCH  23  31
ATOM     26  C   UNL     1      -1.519  -2.010  -2.552  0.00  0.00    +0.030 A 
ATOM     27  C   UNL     1      -1.325  -3.355  -2.296  0.00  0.00    +0.022 A 
ATOM     28  C   UNL     1      -2.257  -4.059  -1.554  0.00  0.00    +0.041 A 
ATOM     29  C   UNL     1      -3.380  -3.415  -1.064  0.00  0.00    +0.022 A 
ATOM     30  C   UNL     1      -3.569  -2.069  -1.316  0.00  0.00    +0.030 A 
ATOM     31  C   UNL     1      -2.638  -1.367  -2.057  0.00  0.00    +0.106 A 
ATOM     32 CL   UNL     1      -2.018  -5.749  -1.238  0.00  0.00    -0.084 Cl
ENDBRANCH  23  31
ENDBRANCH   1  23
TORSDOF 5
