REMARK  Name = ZINC38999527
REMARK  11 active torsions:
REMARK  status: ('A' for Active; 'I' for Inactive)
REMARK    1  A    between atoms: C_1  and  C_2
REMARK    2  A    between atoms: C_5  and  C_8
REMARK    3  A    between atoms: C_10  and  C_14
REMARK    4  A    between atoms: C_18  and  S_22
REMARK    5  A    between atoms: N_20  and  N_21
REMARK    6  A    between atoms: S_22  and  C_23
REMARK    7  A    between atoms: C_23  and  C_24
REMARK    8  A    between atoms: N_26  and  C_27
REMARK    9  A    between atoms: C_32  and  C_33
REMARK   10  A    between atoms: C_33  and  C_34
REMARK   11  A    between atoms: C_33  and  C_35
REMARK                            x       y       z     vdW  Elec       q    Type
REMARK                         _______ _______ _______ _____ _____    ______ ____
ROOT
ATOM      1  C   UNL     1      -1.198  -7.189   0.971  0.00  0.00    +0.185 C 
ATOM      2  N   UNL     1      -2.419  -6.640   0.325  0.00  0.00    -0.234 NA
ATOM      3  N   UNL     1      -3.354  -7.775   0.362  0.00  0.00    -0.228 NA
ATOM      4  C   UNL     1      -2.507  -8.961   0.102  0.00  0.00    +0.214 C 
ATOM      5  N   UNL     1      -1.129  -8.590   0.494  0.00  0.00    -0.197 NA
ATOM      6  H   UNL     1      -2.229  -6.359  -0.625  0.00  0.00    +0.143 HD
ATOM      7  H   UNL     1      -3.805  -7.843   1.263  0.00  0.00    +0.143 HD
ENDROOT
BRANCH   1  10
ATOM      8  C   UNL     1      -0.009  -4.220  -0.023  0.00  0.00    +0.091 C 
ATOM      9  C   UNL     1       0.012  -4.996   1.077  0.00  0.00    +0.034 C 
ATOM     10  C   UNL     1       0.041  -6.410   0.525  0.00  0.00    +0.187 C 
ATOM     11  N   UNL     1       0.031  -6.202  -0.932  0.00  0.00    -0.176 NA
ATOM     12  N   UNL     1      -0.002  -4.988  -1.145  0.00  0.00    -0.154 NA
BRANCH   8  17
ATOM     13  C   UNL     1      -0.133   1.538   0.017  0.00  0.00    +0.044 C 
ATOM     14  C   UNL     1      -0.101   0.031   0.006  0.00  0.00    -0.050 A 
ATOM     15  C   UNL     1      -0.096  -0.650  -1.198  0.00  0.00    +0.004 A 
ATOM     16  C   UNL     1      -0.066  -2.030  -1.214  0.00  0.00    +0.010 A 
ATOM     17  C   UNL     1      -0.040  -2.737  -0.013  0.00  0.00    +0.002 A 
ATOM     18  C   UNL     1      -0.045  -2.046   1.197  0.00  0.00    +0.010 A 
ATOM     19  C   UNL     1      -0.070  -0.666   1.201  0.00  0.00    +0.004 A 
ENDBRANCH   8  17
ENDBRANCH   1  10
BRANCH   5  20
ATOM     20  N   UNL     1      -0.626  -9.471   1.535  0.00  0.00    -0.264 NA
ATOM     21  H   UNL     1      -0.579 -10.425   1.210  0.00  0.00    +0.137 HD
ATOM     22  H   UNL     1       0.274  -9.158   1.870  0.00  0.00    +0.137 HD
ENDBRANCH   5  20
BRANCH   4  23
ATOM     23  S   UNL     1      -3.079 -10.365   1.099  0.00  0.00    -0.115 S 
BRANCH  23  24
ATOM     24  C   UNL     1      -2.961  -9.767   2.807  0.00  0.00    +0.168 C 
BRANCH  24  25
ATOM     25  C   UNL     1      -3.413 -10.851   3.751  0.00  0.00    +0.227 C 
ATOM     26  O   UNL     1      -3.778 -11.921   3.315  0.00  0.00    -0.275 OA
ATOM     27  N   UNL     1      -3.410 -10.630   5.081  0.00  0.00    -0.285 N 
ATOM     28  H   UNL     1      -3.044  -9.805   5.435  0.00  0.00    +0.155 HD
BRANCH  27  29
ATOM     29  C   UNL     1      -3.937 -11.592   5.950  0.00  0.00    +0.037 A 
ATOM     30  C   UNL     1      -4.893 -12.491   5.497  0.00  0.00    +0.023 A 
ATOM     31  C   UNL     1      -5.411 -13.439   6.357  0.00  0.00    +0.002 A 
ATOM     32  C   UNL     1      -4.979 -13.493   7.670  0.00  0.00    +0.000 A 
ATOM     33  C   UNL     1      -4.027 -12.599   8.125  0.00  0.00    +0.006 A 
ATOM     34  C   UNL     1      -3.500 -11.653   7.267  0.00  0.00    -0.024 A 
BRANCH  34  35
ATOM     35  C   UNL     1      -2.458 -10.683   7.762  0.00  0.00    +0.015 C 
ATOM     36  C   UNL     1      -2.988  -9.950   8.995  0.00  0.00    +0.012 C 
ATOM     37  C   UNL     1      -1.185 -11.448   8.131  0.00  0.00    +0.012 C 
ENDBRANCH  34  35
ENDBRANCH  27  29
ENDBRANCH  24  25
ENDBRANCH  23  24
ENDBRANCH   4  23
TORSDOF 8
