REMARK  Name = ZINC39555811
REMARK  7 active torsions:
REMARK  status: ('A' for Active; 'I' for Inactive)
REMARK    1  A    between atoms: C_1  and  C_2
REMARK    2  A    between atoms: C_2  and  N_3
REMARK    3  A    between atoms: N_3  and  C_4
REMARK    4  A    between atoms: C_4  and  C_5
REMARK    5  A    between atoms: N_7  and  C_8
REMARK    6  A    between atoms: C_16  and  C_18
REMARK    7  A    between atoms: C_20  and  C_32
REMARK                            x       y       z     vdW  Elec       q    Type
REMARK                         _______ _______ _______ _____ _____    ______ ____
ROOT
ATOM      1  N   UNL     1       0.515   1.015   2.632  0.00  0.00    -0.289 N 
ATOM      2  C   UNL     1       1.104  -0.194   2.721  0.00  0.00    +0.249 C 
ATOM      3  O   UNL     1       0.700  -1.009   3.528  0.00  0.00    -0.270 OA
ENDROOT
BRANCH   2   4
ATOM      4  C   UNL     1       2.241  -0.530   1.839  0.00  0.00    +0.068 A 
ATOM      5  C   UNL     1       2.118  -0.464   0.449  0.00  0.00    +0.038 A 
ATOM      6  C   UNL     1       3.205  -0.785  -0.344  0.00  0.00    +0.041 A 
ATOM      7  N   UNL     1       4.356  -1.151   0.180  0.00  0.00    -0.233 NA
ATOM      8  C   UNL     1       4.537  -1.229   1.487  0.00  0.00    +0.161 A 
ATOM      9  C   UNL     1       3.486  -0.921   2.372  0.00  0.00    +0.120 A 
ATOM     10  N   UNL     1       3.954  -1.092   3.622  0.00  0.00    -0.230 NA
ATOM     11  C   UNL     1       5.203  -1.467   3.580  0.00  0.00    +0.112 A 
ATOM     12  N   UNL     1       5.609  -1.565   2.285  0.00  0.00    -0.312 N 
ATOM     13  C   UNL     1       6.949  -1.933   1.821  0.00  0.00    +0.125 C 
ATOM     14  C   UNL     1       7.613  -2.853   2.848  0.00  0.00    +0.022 C 
ATOM     15  C   UNL     1       8.373  -2.014   3.873  0.00  0.00    +0.002 C 
ATOM     16  C   UNL     1       7.415  -1.095   4.623  0.00  0.00    +0.008 C 
ATOM     17  C   UNL     1       6.066  -1.765   4.783  0.00  0.00    +0.074 C 
ATOM     18  C   UNL     1       3.067  -0.717  -1.843  0.00  0.00    +0.065 C 
ENDBRANCH   2   4
BRANCH   1  20
ATOM     19  C   UNL     1      -1.908   1.077   2.953  0.00  0.00    +0.024 C 
ATOM     20  C   UNL     1      -0.544   1.385   3.573  0.00  0.00    +0.105 C 
ENDBRANCH   1  20
BRANCH   1  21
ATOM     21  C   UNL     1       0.935   1.959   1.593  0.00  0.00    +0.204 C 
BRANCH  21  22
ATOM     22  C   UNL     1       2.052   2.822   2.120  0.00  0.00    +0.235 C 
ATOM     23  O   UNL     1       2.458   2.664   3.252  0.00  0.00    -0.274 OA
ATOM     24  N   UNL     1       2.600   3.769   1.333  0.00  0.00    -0.282 N 
ATOM     25  H   UNL     1       2.244   3.928   0.445  0.00  0.00    +0.155 HD
BRANCH  24  26
ATOM     26  C   UNL     1       3.684   4.524   1.798  0.00  0.00    +0.070 A 
ATOM     27  C   UNL     1       4.712   3.908   2.501  0.00  0.00    +0.064 A 
ATOM     28  C   UNL     1       5.780   4.656   2.958  0.00  0.00    +0.022 A 
ATOM     29  C   UNL     1       5.827   6.017   2.717  0.00  0.00    +0.003 A 
ATOM     30  C   UNL     1       4.806   6.634   2.018  0.00  0.00    +0.022 A 
ATOM     31  C   UNL     1       3.737   5.891   1.552  0.00  0.00    +0.064 A 
ATOM     32 CL   UNL     1       2.459   6.665   0.668  0.00  0.00    -0.082 Cl
ATOM     33 CL   UNL     1       4.654   2.200   2.804  0.00  0.00    -0.082 Cl
ENDBRANCH  24  26
ENDBRANCH  21  22
ENDBRANCH   1  21
TORSDOF 5
