REMARK  Name = ZINC41077698
REMARK  6 active torsions:
REMARK  status: ('A' for Active; 'I' for Inactive)
REMARK    1  A    between atoms: C_1  and  C_2
REMARK    2  A    between atoms: C_4  and  C_16
REMARK    3  A    between atoms: C_5  and  C_15
REMARK    4  A    between atoms: N_6  and  C_7
REMARK    5  A    between atoms: C_26  and  S_28
REMARK    6  A    between atoms: S_28  and  C_31
REMARK                            x       y       z     vdW  Elec       q    Type
REMARK                         _______ _______ _______ _____ _____    ______ ____
ROOT
ATOM      1  C   UNL     1       0.041  -3.340  -1.427  0.00  0.00    +0.026 C 
ATOM      2  C   UNL     1      -0.650  -3.368  -2.621  0.00  0.00    +0.081 C 
ATOM      3  C   UNL     1      -0.761  -4.610  -3.435  0.00  0.00    +0.153 C 
ATOM      4  N   UNL     1      -0.815  -5.807  -2.913  0.00  0.00    -0.283 NA
ATOM      5  N   UNL     1      -0.803  -4.368  -4.824  0.00  0.00    -0.150 N 
ATOM      6  C   UNL     1      -1.228  -3.124  -5.241  0.00  0.00    +0.182 C 
ATOM      7  N   UNL     1      -1.515  -2.088  -4.495  0.00  0.00    -0.152 NA
ATOM      8  C   UNL     1      -1.327  -2.164  -3.160  0.00  0.00    +0.273 C 
ATOM      9  O   UNL     1      -1.698  -1.267  -2.419  0.00  0.00    -0.268 OA
ATOM     10  S   UNL     1      -1.252  -3.312  -7.004  0.00  0.00    -0.015 S 
ATOM     11  C   UNL     1      -0.606  -4.977  -7.071  0.00  0.00    +0.235 C 
ATOM     12  N   UNL     1      -0.466  -5.270  -5.810  0.00  0.00    -0.145 NA
ATOM     13  H   UNL     1      -0.887  -6.585  -3.489  0.00  0.00    +0.188 HD
ENDROOT
BRANCH   1  17
ATOM     14  C   UNL     1       0.909   1.558  -0.546  0.00  0.00    +0.064 C 
ATOM     15  C   UNL     1       0.651   0.082  -0.384  0.00  0.00    +0.022 A 
ATOM     16  C   UNL     1       0.488  -0.794  -1.389  0.00  0.00    +0.031 A 
ATOM     17  C   UNL     1       0.264  -2.106  -0.765  0.00  0.00    -0.003 A 
ATOM     18  C   UNL     1       0.315  -1.889   0.602  0.00  0.00    +0.028 A 
ATOM     19  N   UNL     1       0.553  -0.578   0.809  0.00  0.00    -0.317 N 
ATOM     20  C   UNL     1       0.140  -2.936   1.671  0.00  0.00    +0.064 C 
BRANCH  19  21
ATOM     21  C   UNL     1       0.677   0.023   2.069  0.00  0.00    +0.048 A 
ATOM     22  C   UNL     1       1.739  -0.313   2.898  0.00  0.00    +0.027 A 
ATOM     23  C   UNL     1       1.860   0.281   4.139  0.00  0.00    +0.023 A 
ATOM     24  C   UNL     1       0.924   1.210   4.557  0.00  0.00    +0.059 A 
ATOM     25  C   UNL     1      -0.136   1.548   3.733  0.00  0.00    +0.061 A 
ATOM     26  C   UNL     1      -0.258   0.960   2.488  0.00  0.00    +0.047 A 
ATOM     27 CL   UNL     1      -1.308   2.714   4.260  0.00  0.00    -0.082 Cl
ATOM     28 CL   UNL     1       1.079   1.954   6.118  0.00  0.00    -0.082 Cl
ENDBRANCH  19  21
ENDBRANCH   1  17
BRANCH  11  29
ATOM     29  S   UNL     1      -0.251  -5.969  -8.484  0.00  0.00    +0.019 S 
ATOM     30  O   UNL     1       0.128  -5.042  -9.492  0.00  0.00    -0.168 OA
ATOM     31  O   UNL     1       0.668  -6.948  -8.017  0.00  0.00    -0.168 OA
ATOM     32  C   UNL     1      -1.830  -6.751  -8.914  0.00  0.00    +0.202 C 
ENDBRANCH  11  29
TORSDOF 3
