REMARK  Name = ZINC11753574
REMARK  6 active torsions:
REMARK  status: ('A' for Active; 'I' for Inactive)
REMARK    1  A    between atoms: C_1  and  O_2
REMARK    2  A    between atoms: O_2  and  C_3
REMARK    3  A    between atoms: C_11  and  C_13
REMARK    4  A    between atoms: C_13  and  N_53
REMARK    5  A    between atoms: C_14  and  N_53
REMARK    6  A    between atoms: N_23  and  C_24
REMARK                            x       y       z     vdW  Elec       q    Type
REMARK                         _______ _______ _______ _____ _____    ______ ____
ROOT
ATOM      1  C   UNL     1       4.890   7.598  -1.133  0.00  0.00    -0.037 C 
ATOM      2  C   UNL     1       4.691   8.703  -2.177  0.00  0.00    -0.011 C 
ATOM      3  C   UNL     1       6.024   9.411  -2.433  0.00  0.00    +0.005 C 
ATOM      4  C   UNL     1       6.968   8.468  -3.188  0.00  0.00    +0.056 C 
ATOM      5  C   UNL     1       6.995   7.144  -2.466  0.00  0.00    +0.047 A 
ATOM      6  C   UNL     1       6.071   6.757  -1.551  0.00  0.00    -0.020 A 
ATOM      7  C   UNL     1       6.419   5.486  -1.098  0.00  0.00    +0.137 A 
ATOM      8  N   UNL     1       7.513   5.117  -1.719  0.00  0.00    -0.174 NA
ATOM      9  N   UNL     1       7.894   6.150  -2.589  0.00  0.00    -0.236 N 
ENDROOT
BRANCH   9  10
ATOM     10  C   UNL     1       9.012   6.147  -3.435  0.00  0.00    +0.071 A 
ATOM     11  C   UNL     1       8.943   6.757  -4.680  0.00  0.00    +0.066 A 
ATOM     12  C   UNL     1      10.049   6.758  -5.511  0.00  0.00    +0.128 A 
ATOM     13  C   UNL     1      11.221   6.142  -5.106  0.00  0.00    +0.076 A 
ATOM     14  C   UNL     1      11.290   5.529  -3.867  0.00  0.00    +0.128 A 
ATOM     15  C   UNL     1      10.188   5.530  -3.031  0.00  0.00    +0.066 A 
ATOM     16  F   UNL     1      12.435   4.928  -3.474  0.00  0.00    -0.205 F 
ATOM     17  F   UNL     1       9.984   7.357  -6.721  0.00  0.00    -0.205 F 
ENDBRANCH   9  10
BRANCH   1  18
ATOM     18  N   UNL     1       3.679   6.759  -1.071  0.00  0.00    +0.386 N 
ATOM     19  H   UNL     1       2.851   7.346  -1.228  0.00  0.00    -0.085 HD
ATOM     20  H   UNL     1       3.729   6.037  -1.801  0.00  0.00    -0.085 HD
BRANCH  18  21
ATOM     21  C   UNL     1       3.572   6.109   0.248  0.00  0.00    -0.047 C 
BRANCH  21  30
ATOM     22  C   UNL     1      -1.256   3.135   0.023  0.00  0.00    +0.162 A 
ATOM     23  C   UNL     1      -1.222   1.748   0.017  0.00  0.00    +0.049 A 
ATOM     24  C   UNL     1      -0.013   1.076   0.008  0.00  0.00    +0.004 A 
ATOM     25  C   UNL     1       1.176   1.779   0.000  0.00  0.00    +0.012 A 
ATOM     26  C   UNL     1       1.155   3.170   0.007  0.00  0.00    +0.020 A 
ATOM     27  C   UNL     1      -0.069   3.852   0.008  0.00  0.00    +0.169 A 
ATOM     28  O   UNL     1      -0.066   5.210  -0.029  0.00  0.00    -0.484 OA
ATOM     29  C   UNL     1       1.003   5.883   0.637  0.00  0.00    +0.258 C 
ATOM     30  C   UNL     1       2.328   5.260   0.282  0.00  0.00    -0.049 C 
ATOM     31  C   UNL     1       2.402   3.963  -0.002  0.00  0.00    +0.012 C 
BRANCH  22  33
ATOM     32  C   UNL     1      -3.629   2.984   0.051  0.00  0.00    +0.277 C 
ATOM     33  O   UNL     1      -2.448   3.789   0.037  0.00  0.00    -0.491 OA
ENDBRANCH  22  33
ENDBRANCH  21  30
ENDBRANCH  18  21
ENDBRANCH   1  18
TORSDOF 5
