REMARK  Name = ZINC42381221
REMARK  1 active torsions:
REMARK  status: ('A' for Active; 'I' for Inactive)
REMARK    1  A    between atoms: C_4  and  N_8
REMARK                            x       y       z     vdW  Elec       q    Type
REMARK                         _______ _______ _______ _____ _____    ______ ____
ROOT
ATOM      1  N   UNL     1       3.627  -0.653  -0.037  0.00  0.00    -0.264 N 
ATOM      2  C   UNL     1       3.686  -1.941   0.354  0.00  0.00    +0.310 C 
ATOM      3  O   UNL     1       2.664  -2.538   0.635  0.00  0.00    -0.252 OA
ATOM      4  N   UNL     1       4.876  -2.567   0.435  0.00  0.00    -0.248 N 
ATOM      5  C   UNL     1       4.936  -3.891   0.838  0.00  0.00    +0.167 A 
ATOM      6  N   UNL     1       3.955  -4.695   1.172  0.00  0.00    -0.223 NA
ATOM      7  C   UNL     1       4.161  -5.976   1.549  0.00  0.00    +0.094 A 
ATOM      8  C   UNL     1       5.510  -6.401   1.560  0.00  0.00    +0.042 A 
ATOM      9  S   UNL     1       6.370  -4.941   1.026  0.00  0.00    -0.052 S 
ATOM     10  C   UNL     1       5.883  -7.672   1.919  0.00  0.00    +0.017 A 
ATOM     11  C   UNL     1       4.916  -8.590   2.286  0.00  0.00    +0.002 A 
ATOM     12  C   UNL     1       3.582  -8.208   2.287  0.00  0.00    +0.017 A 
ATOM     13  C   UNL     1       3.200  -6.940   1.931  0.00  0.00    +0.044 A 
ATOM     14 BR   UNL     1       1.367  -6.476   1.950  0.00  0.00    -0.048 Br
ATOM     15  H   UNL     1       4.432  -0.198  -0.332  0.00  0.00    +0.157 HD
ATOM     16  H   UNL     1       5.691  -2.091   0.211  0.00  0.00    +0.158 HD
ENDROOT
BRANCH   1  20
ATOM     17  C   UNL     1      -0.015   1.381   0.017  0.00  0.00    +0.006 A 
ATOM     18  C   UNL     1       0.783   1.367   1.145  0.00  0.00    +0.040 A 
ATOM     19  C   UNL     1       1.992   0.693   1.131  0.00  0.00    +0.147 A 
ATOM     20  C   UNL     1       2.403   0.031  -0.019  0.00  0.00    +0.106 A 
ATOM     21  C   UNL     1       1.597   0.048  -1.151  0.00  0.00    +0.147 A 
ATOM     22  C   UNL     1       0.391   0.724  -1.130  0.00  0.00    +0.040 A 
ATOM     23  F   UNL     1       1.993  -0.595  -2.272  0.00  0.00    -0.203 F 
ATOM     24  F   UNL     1       2.772   0.680   2.235  0.00  0.00    -0.203 F 
ENDBRANCH   1  20
TORSDOF 1
