REMARK  Name = ZINC39024340
REMARK  2 active torsions:
REMARK  status: ('A' for Active; 'I' for Inactive)
REMARK    1  A    between atoms: C_7  and  C_10
REMARK    2  A    between atoms: N_16  and  C_19
REMARK                            x       y       z     vdW  Elec       q    Type
REMARK                         _______ _______ _______ _____ _____    ______ ____
ROOT
ATOM      1  C   UNL     1       0.824  -3.347   0.926  0.00  0.00    +0.024 C 
ATOM      2  C   UNL     1       1.227  -4.536   0.329  0.00  0.00    +0.102 C 
ATOM      3  C   UNL     1       2.585  -4.698  -0.235  0.00  0.00    +0.276 C 
ATOM      4  N   UNL     1       2.906  -5.874  -0.797  0.00  0.00    -0.123 NA
ATOM      5  C   UNL     1       2.058  -6.870  -0.856  0.00  0.00    +0.340 C 
ATOM      6  O   UNL     1       2.464  -8.016  -1.437  0.00  0.00    -0.250 OA
ATOM      7  N   UNL     1       0.791  -6.813  -0.365  0.00  0.00    -0.188 N 
ATOM      8  C   UNL     1       0.323  -5.698   0.235  0.00  0.00    +0.264 C 
ATOM      9  O   UNL     1      -0.809  -5.651   0.679  0.00  0.00    -0.269 OA
ATOM     10  O   UNL     1       3.392  -3.785  -0.192  0.00  0.00    -0.268 OA
ENDROOT
BRANCH   1  17
ATOM     11  C   UNL     1      -0.950   0.817   1.184  0.00  0.00    +0.001 A 
ATOM     12  C   UNL     1      -0.230   1.802   0.492  0.00  0.00    +0.002 A 
ATOM     13  C   UNL     1       0.900   1.513  -0.191  0.00  0.00    +0.026 A 
ATOM     14  C   UNL     1       1.389   0.125  -0.209  0.00  0.00    +0.043 A 
ATOM     15  N   UNL     1       2.428  -0.424  -0.774  0.00  0.00    -0.380 N 
ATOM     16  C   UNL     1       2.447  -1.859  -0.472  0.00  0.00    +0.149 C 
ATOM     17  C   UNL     1       1.231  -2.123   0.389  0.00  0.00    -0.018 C 
ATOM     18  C   UNL     1       0.604  -0.890   0.533  0.00  0.00    +0.003 A 
ATOM     19  C   UNL     1      -0.563  -0.480   1.212  0.00  0.00    +0.010 A 
ATOM     20  H   UNL     1       3.086   0.044  -1.312  0.00  0.00    +0.160 HD
ENDBRANCH   1  17
BRANCH   7  21
ATOM     21  C   UNL     1      -0.042  -7.935  -0.478  0.00  0.00    +0.046 A 
ATOM     22  C   UNL     1      -0.849  -8.092  -1.597  0.00  0.00    +0.025 A 
ATOM     23  C   UNL     1      -1.668  -9.199  -1.706  0.00  0.00    +0.017 A 
ATOM     24  C   UNL     1      -1.685 -10.150  -0.702  0.00  0.00    +0.018 A 
ATOM     25  C   UNL     1      -0.882  -9.996   0.414  0.00  0.00    +0.017 A 
ATOM     26  C   UNL     1      -0.057  -8.894   0.526  0.00  0.00    +0.025 A 
ATOM     27 BR   UNL     1      -2.808 -11.664  -0.855  0.00  0.00    -0.050 Br
ENDBRANCH   7  21
TORSDOF 2
