REMARK  Name = ZINC28558353
REMARK  11 active torsions:
REMARK  status: ('A' for Active; 'I' for Inactive)
REMARK    1  A    between atoms: C_1  and  C_2
REMARK    2  A    between atoms: C_2  and  O_3
REMARK    3  A    between atoms: O_3  and  C_4
REMARK    4  A    between atoms: N_17  and  C_18
REMARK    5  A    between atoms: C_18  and  C_19
REMARK    6  A    between atoms: C_19  and  N_20
REMARK    7  A    between atoms: C_26  and  C_28
REMARK    8  A    between atoms: C_32  and  O_36
REMARK    9  A    between atoms: C_33  and  O_34
REMARK   10  A    between atoms: O_34  and  C_35
REMARK   11  A    between atoms: O_36  and  C_37
REMARK                            x       y       z     vdW  Elec       q    Type
REMARK                         _______ _______ _______ _____ _____    ______ ____
ROOT
ATOM      1  C   UNL     1      -0.368   2.047   0.082  0.00  0.00    -0.057 C 
ENDROOT
BRANCH   1   2
ATOM      2  N   UNL     1      -0.994   2.285  -1.226  0.00  0.00    +0.383 N 
ATOM      3  C   UNL     1      -2.318   1.654  -1.299  0.00  0.00    -0.059 C 
ATOM      4  C   UNL     1      -3.010   2.074  -2.600  0.00  0.00    +0.089 C 
ATOM      5  N   UNL     1      -2.113   1.768  -3.725  0.00  0.00    -0.301 N 
ATOM      6  C   UNL     1      -0.725   2.251  -3.660  0.00  0.00    +0.089 C 
ATOM      7  C   UNL     1      -0.124   1.824  -2.317  0.00  0.00    -0.059 C 
ATOM      8  C   UNL     1      -2.551   1.063  -4.788  0.00  0.00    +0.250 C 
ATOM      9  O   UNL     1      -1.818   0.881  -5.741  0.00  0.00    -0.270 OA
ATOM     10  H   UNL     1      -1.133   3.369  -1.345  0.00  0.00    -0.082 HD
BRANCH   8  11
ATOM     11  C   UNL     1      -3.920   0.512  -4.794  0.00  0.00    +0.082 A 
ATOM     12  C   UNL     1      -5.013   1.345  -4.537  0.00  0.00    +0.017 A 
ATOM     13  C   UNL     1      -6.290   0.827  -4.543  0.00  0.00    +0.005 A 
ATOM     14  C   UNL     1      -6.498  -0.517  -4.803  0.00  0.00    +0.049 A 
ATOM     15  C   UNL     1      -5.426  -1.355  -5.060  0.00  0.00    +0.162 A 
ATOM     16  C   UNL     1      -4.130  -0.845  -5.062  0.00  0.00    +0.174 A 
BRANCH  16  17
ATOM     17  O   UNL     1      -3.077  -1.661  -5.319  0.00  0.00    -0.491 OA
ATOM     18  C   UNL     1      -2.473  -2.313  -4.199  0.00  0.00    +0.277 C 
ENDBRANCH  16  17
BRANCH  15  19
ATOM     19  O   UNL     1      -5.638  -2.674  -5.314  0.00  0.00    -0.491 OA
ATOM     20  C   UNL     1      -6.993  -3.127  -5.300  0.00  0.00    +0.277 C 
ENDBRANCH  15  19
ENDBRANCH   8  11
ENDBRANCH   1   2
BRANCH   1  21
ATOM     21  C   UNL     1      -1.177   2.756   1.170  0.00  0.00    +0.111 C 
BRANCH  21  35
ATOM     22  C   UNL     1      -0.938   1.441   3.212  0.00  0.00    +0.302 A 
ATOM     23  N   UNL     1      -0.397   1.196   4.384  0.00  0.00    -0.189 NA
ATOM     24  C   UNL     1       0.535   2.000   4.886  0.00  0.00    +0.119 A 
ATOM     25  C   UNL     1       0.988   3.138   4.198  0.00  0.00    +0.076 A 
ATOM     26  C   UNL     1       2.016   3.928   4.877  0.00  0.00    -0.023 A 
ATOM     27  C   UNL     1       2.425   3.492   6.085  0.00  0.00    -0.004 A 
ATOM     28  S   UNL     1       1.479   2.023   6.388  0.00  0.00    -0.073 S 
ATOM     29  C   UNL     1       3.456   4.117   6.975  0.00  0.00    +0.043 C 
ATOM     30  C   UNL     1       4.256   5.134   6.148  0.00  0.00    +0.005 C 
ATOM     31  C   UNL     1       3.276   6.013   5.367  0.00  0.00    +0.005 C 
ATOM     32  C   UNL     1       2.610   5.192   4.261  0.00  0.00    +0.037 C 
ATOM     33  C   UNL     1       0.383   3.375   2.922  0.00  0.00    +0.265 A 
ATOM     34  O   UNL     1       0.712   4.339   2.252  0.00  0.00    -0.267 OA
ATOM     35  N   UNL     1      -0.554   2.519   2.474  0.00  0.00    -0.264 N 
BRANCH  22  36
ATOM     36  O   UNL     1      -1.885   0.609   2.729  0.00  0.00    -0.464 OA
BRANCH  36  38
ATOM     37  C   UNL     1      -3.326  -1.328   2.840  0.00  0.00    +0.048 C 
ATOM     38  C   UNL     1      -2.247  -0.506   3.547  0.00  0.00    +0.229 C 
ENDBRANCH  36  38
ENDBRANCH  22  36
ENDBRANCH  21  35
ENDBRANCH   1  21
TORSDOF 8
