REMARK  Name = ZINC12660968
REMARK  8 active torsions:
REMARK  status: ('A' for Active; 'I' for Inactive)
REMARK    1  A    between atoms: C_1  and  C_2
REMARK    2  A    between atoms: C_12  and  C_14
REMARK    3  A    between atoms: C_12  and  O_32
REMARK    4  A    between atoms: C_15  and  C_16
REMARK    5  A    between atoms: C_23  and  O_24
REMARK    6  A    between atoms: O_24  and  C_25
REMARK    7  A    between atoms: C_31  and  N_80
REMARK    8  A    between atoms: C_41  and  C_42
REMARK                            x       y       z     vdW  Elec       q    Type
REMARK                         _______ _______ _______ _____ _____    ______ ____
ROOT
ATOM      1  C   UNL     1      -5.957  -0.658   1.631  0.00  0.00    +0.011 C 
ATOM      2  C   UNL     1      -4.556  -0.370   2.202  0.00  0.00    -0.025 C 
ATOM      3  C   UNL     1      -4.406   1.131   2.256  0.00  0.00    +0.007 C 
ATOM      4  C   UNL     1      -2.954   1.568   2.440  0.00  0.00    +0.005 C 
ATOM      5  C   UNL     1      -2.145   0.998   1.271  0.00  0.00    +0.002 C 
ATOM      6  C   UNL     1      -2.120  -0.522   1.417  0.00  0.00    -0.003 C 
ATOM      7  C   UNL     1      -3.533  -1.095   1.327  0.00  0.00    +0.002 C 
ATOM      8  C   UNL     1      -3.512  -2.543   1.881  0.00  0.00    +0.052 C 
ATOM      9  C   UNL     1      -4.001  -2.468   3.339  0.00  0.00    +0.127 C 
ATOM     10  C   UNL     1      -4.470  -1.023   3.587  0.00  0.00    +0.055 C 
ATOM     11  C   UNL     1      -1.440  -0.923   2.722  0.00  0.00    +0.008 C 
ATOM     12  C   UNL     1       0.011  -0.428   2.727  0.00  0.00    +0.032 C 
ATOM     13  C   UNL     1       0.023   1.065   2.459  0.00  0.00    -0.060 C 
ATOM     14  C   UNL     1       0.704   1.841   3.300  0.00  0.00    +0.046 C 
ATOM     15  C   UNL     1       0.745   3.291   3.079  0.00  0.00    +0.156 C 
ATOM     16  O   UNL     1       0.959   4.071   3.982  0.00  0.00    -0.293 OA
ATOM     17  C   UNL     1       0.501   3.756   1.657  0.00  0.00    +0.080 C 
ATOM     18  C   UNL     1      -0.791   3.095   1.176  0.00  0.00    +0.019 C 
ATOM     19  C   UNL     1      -0.731   1.581   1.270  0.00  0.00    -0.007 C 
ATOM     20  C   UNL     1      -0.013   1.086   0.008  0.00  0.00    +0.016 C 
ENDROOT
BRANCH   9  21
ATOM     21  C   UNL     1      -5.122  -3.407   3.545  0.00  0.00    -0.069 C 
ATOM     22  C   UNL     1      -6.013  -4.153   3.709  0.00  0.00    -0.110 C 
BRANCH  22  23
ATOM     23  C   UNL     1      -7.130  -5.089   3.915  0.00  0.00    +0.043 C 
ATOM     24  C   UNL     1      -6.652  -6.496   3.667  0.00  0.00    -0.001 A 
ATOM     25  C   UNL     1      -7.411  -7.410   2.966  0.00  0.00    -0.039 A 
ATOM     26  C   UNL     1      -6.936  -8.697   2.766  0.00  0.00    +0.053 A 
ATOM     27  C   UNL     1      -5.699  -9.075   3.263  0.00  0.00    +0.170 A 
ATOM     28  C   UNL     1      -4.930  -8.156   3.968  0.00  0.00    +0.208 A 
ATOM     29  C   UNL     1      -5.409  -6.869   4.168  0.00  0.00    +0.168 A 
ATOM     30  O   UNL     1      -3.766  -8.762   4.350  0.00  0.00    -0.449 OA
ATOM     31  C   UNL     1      -4.011 -10.175   4.225  0.00  0.00    +0.467 C 
ATOM     32  O   UNL     1      -5.021 -10.258   3.202  0.00  0.00    -0.452 OA
ATOM     33  C   UNL     1      -8.759  -7.047   2.397  0.00  0.00    +0.017 C 
ATOM     34  C   UNL     1      -9.279  -5.771   3.060  0.00  0.00    -0.072 C 
ATOM     35  C   UNL     1      -8.761  -3.415   3.292  0.00  0.00    -0.094 C 
ATOM     36  N   UNL     1      -8.213  -4.752   2.975  0.00  0.00    +0.390 N 
ATOM     37  H   UNL     1      -7.836  -4.741   2.020  0.00  0.00    -0.080 HD
BRANCH  29  38
ATOM     38  O   UNL     1      -4.659  -5.967   4.857  0.00  0.00    -0.491 OA
ATOM     39  C   UNL     1      -4.850  -5.910   6.271  0.00  0.00    +0.277 C 
ENDBRANCH  29  38
ENDBRANCH  22  23
ENDBRANCH   9  21
BRANCH   9  40
ATOM     40  O   UNL     1      -2.946  -2.804   4.244  0.00  0.00    -0.377 OA
ATOM     41  H   UNL     1      -2.607  -3.704   4.137  0.00  0.00    +0.211 HD
ENDBRANCH   9  40
TORSDOF 4
