REMARK  Name = ZINC63329016
REMARK  4 active torsions:
REMARK  status: ('A' for Active; 'I' for Inactive)
REMARK    1  A    between atoms: C_5  and  N_7
REMARK    2  A    between atoms: C_13  and  C_15
REMARK    3  A    between atoms: C_15  and  C_16
REMARK    4  A    between atoms: C_16  and  N_17
REMARK                            x       y       z     vdW  Elec       q    Type
REMARK                         _______ _______ _______ _____ _____    ______ ____
ROOT
ATOM      1  N   UNL     1       0.132  -8.880  -2.349  0.00  0.00    -0.299 N 
ATOM      2  C   UNL     1       0.159 -10.228  -2.357  0.00  0.00    +0.302 C 
ATOM      3  O   UNL     1       0.270 -10.840  -1.312  0.00  0.00    -0.253 OA
ATOM      4  N   UNL     1       0.062 -10.896  -3.523  0.00  0.00    -0.283 N 
ATOM      5  C   UNL     1       0.050 -10.153  -4.787  0.00  0.00    +0.114 C 
ATOM      6  C   UNL     1       1.208 -10.639  -5.678  0.00  0.00    +0.052 C 
ATOM      7  C   UNL     1       1.191 -12.146  -5.625  0.00  0.00    -0.035 C 
ATOM      8  C   UNL     1       1.183 -13.059  -6.589  0.00  0.00    +0.001 A 
ATOM      9  C   UNL     1       1.296 -12.940  -8.051  0.00  0.00    +0.030 A 
ATOM     10  C   UNL     1       1.228 -14.102  -8.755  0.00  0.00    +0.042 A 
ATOM     11  C   UNL     1       1.059 -15.355  -8.155  0.00  0.00    +0.022 A 
ATOM     12  C   UNL     1       0.954 -15.558  -6.818  0.00  0.00    +0.027 A 
ATOM     13  C   UNL     1       1.021 -14.412  -5.973  0.00  0.00    +0.043 A 
ATOM     14  N   UNL     1       0.972 -14.318  -4.677  0.00  0.00    -0.376 N 
ATOM     15  C   UNL     1       1.158 -12.914  -4.309  0.00  0.00    +0.124 C 
ATOM     16  C   UNL     1      -0.025 -12.365  -3.515  0.00  0.00    +0.138 C 
ATOM     17 CL   UNL     1       1.355 -14.026 -10.484  0.00  0.00    -0.084 Cl
ATOM     18  H   UNL     1       0.116  -8.390  -3.186  0.00  0.00    +0.150 HD
ATOM     19  H   UNL     1       0.836 -15.054  -4.060  0.00  0.00    +0.160 HD
ENDROOT
BRANCH   1  20
ATOM     20  C   UNL     1       0.127  -8.156  -1.075  0.00  0.00    +0.115 C 
BRANCH  20  21
ATOM     21  C   UNL     1       0.096  -6.650  -1.346  0.00  0.00    +0.114 C 
BRANCH  21  28
ATOM     22  N   UNL     1       1.210  -2.075  -0.021  0.00  0.00    -0.325 N 
ATOM     23  C   UNL     1       1.234  -2.831   1.239  0.00  0.00    +0.124 C 
ATOM     24  C   UNL     1       0.059  -3.817   1.242  0.00  0.00    +0.126 C 
ATOM     25  N   UNL     1       0.064  -4.557  -0.028  0.00  0.00    -0.298 N 
ATOM     26  C   UNL     1       0.040  -3.802  -1.288  0.00  0.00    +0.126 C 
ATOM     27  C   UNL     1       1.209  -2.816  -1.291  0.00  0.00    +0.124 C 
ATOM     28  C   UNL     1       0.090  -5.905  -0.036  0.00  0.00    +0.217 C 
ATOM     29  O   UNL     1       0.111  -6.517   1.011  0.00  0.00    -0.276 OA
BRANCH  22  34
ATOM     30  C   UNL     1      -0.057   1.376   0.014  0.00  0.00    +0.002 A 
ATOM     31  C   UNL     1       1.127   2.090   0.004  0.00  0.00    +0.003 A 
ATOM     32  C   UNL     1       2.339   1.426  -0.014  0.00  0.00    +0.040 A 
ATOM     33  C   UNL     1       2.371   0.043  -0.022  0.00  0.00    +0.144 A 
ATOM     34  C   UNL     1       1.182  -0.677  -0.012  0.00  0.00    +0.065 A 
ATOM     35  C   UNL     1      -0.033  -0.005   0.006  0.00  0.00    +0.026 A 
ATOM     36  F   UNL     1       3.556  -0.606  -0.041  0.00  0.00    -0.204 F 
ENDBRANCH  22  34
ENDBRANCH  21  28
ENDBRANCH  20  21
ENDBRANCH   1  20
TORSDOF 4
