REMARK  Name = ZINC63281816
REMARK  4 active torsions:
REMARK  status: ('A' for Active; 'I' for Inactive)
REMARK    1  A    between atoms: C_6  and  C_11
REMARK    2  A    between atoms: C_18  and  C_20
REMARK    3  A    between atoms: C_20  and  O_21
REMARK    4  A    between atoms: O_21  and  C_22
REMARK                            x       y       z     vdW  Elec       q    Type
REMARK                         _______ _______ _______ _____ _____    ______ ____
ROOT
ATOM      1  C   UNL     1       3.664  -2.775   1.204  0.00  0.00    +0.226 C 
ATOM      2  N   UNL     1       3.011  -2.250   2.412  0.00  0.00    -0.242 N 
ATOM      3  N   UNL     1       2.327  -3.330   2.983  0.00  0.00    -0.161 NA
ATOM      4  C   UNL     1       2.486  -4.400   2.289  0.00  0.00    +0.201 C 
ATOM      5  N   UNL     1       3.286  -4.210   1.166  0.00  0.00    -0.175 N 
ATOM      6  N   UNL     1       3.502  -5.328   0.368  0.00  0.00    -0.170 NA
ATOM      7  C   UNL     1       2.986  -6.479   0.656  0.00  0.00    +0.137 C 
ATOM      8  S   UNL     1       2.082  -6.131   2.163  0.00  0.00    -0.031 S 
ATOM      9  H   UNL     1       3.046  -1.340   2.746  0.00  0.00    +0.170 HD
ENDROOT
BRANCH   1  15
ATOM     10  C   UNL     1      -0.016   1.348   0.009  0.00  0.00    +0.001 A 
ATOM     11  C   UNL     1       1.166   2.101   0.002  0.00  0.00    +0.002 A 
ATOM     12  C   UNL     1       2.391   1.535  -0.013  0.00  0.00    +0.026 A 
ATOM     13  C   UNL     1       2.529   0.120  -0.022  0.00  0.00    +0.043 A 
ATOM     14  N   UNL     1       3.587  -0.654  -0.037  0.00  0.00    -0.374 N 
ATOM     15  C   UNL     1       3.143  -2.053  -0.041  0.00  0.00    +0.145 C 
ATOM     16  C   UNL     1       1.631  -2.008  -0.025  0.00  0.00    +0.011 C 
ATOM     17  C   UNL     1       1.295  -0.698  -0.014  0.00  0.00    -0.004 A 
ATOM     18  C   UNL     1       0.002  -0.004   0.002  0.00  0.00    +0.010 A 
ATOM     19  H   UNL     1       4.509  -0.353  -0.045  0.00  0.00    +0.160 HD
ENDBRANCH   1  15
BRANCH   7  20
ATOM     20  C   UNL     1       3.114  -7.783  -0.089  0.00  0.00    +0.293 C 
BRANCH  20  21
ATOM     21  O   UNL     1       3.934  -7.593  -1.244  0.00  0.00    -0.485 OA
BRANCH  21  22
ATOM     22  C   UNL     1       4.152  -8.679  -2.032  0.00  0.00    +0.121 A 
ATOM     23  C   UNL     1       3.583  -9.900  -1.703  0.00  0.00    +0.047 A 
ATOM     24  C   UNL     1       3.805 -11.003  -2.505  0.00  0.00    +0.019 A 
ATOM     25  C   UNL     1       4.595 -10.890  -3.635  0.00  0.00    +0.018 A 
ATOM     26  C   UNL     1       5.163  -9.672  -3.965  0.00  0.00    +0.019 A 
ATOM     27  C   UNL     1       4.939  -8.566  -3.169  0.00  0.00    +0.047 A 
ATOM     28 BR   UNL     1       4.897 -12.401  -4.731  0.00  0.00    -0.050 Br
ENDBRANCH  21  22
ENDBRANCH  20  21
ENDBRANCH   7  20
TORSDOF 4
