REMARK  Name = ZINC40570852
REMARK  8 active torsions:
REMARK  status: ('A' for Active; 'I' for Inactive)
REMARK    1  A    between atoms: C_1  and  C_2
REMARK    2  A    between atoms: C_4  and  C_34
REMARK    3  A    between atoms: N_8  and  S_9
REMARK    4  A    between atoms: S_9  and  C_12
REMARK    5  A    between atoms: C_15  and  N_18
REMARK    6  A    between atoms: N_18  and  C_19
REMARK    7  A    between atoms: C_21  and  C_33
REMARK    8  A    between atoms: C_27  and  C_29
REMARK                            x       y       z     vdW  Elec       q    Type
REMARK                         _______ _______ _______ _____ _____    ______ ____
ROOT
ATOM      1  C   UNL     1      -0.973  -0.801   4.005  0.00  0.00    +0.109 A 
ATOM      2  C   UNL     1      -0.951   0.373   3.273  0.00  0.00    +0.030 A 
ATOM      3  C   UNL     1      -1.915   1.338   3.484  0.00  0.00    +0.025 A 
ATOM      4  C   UNL     1      -2.909   1.129   4.432  0.00  0.00    +0.031 A 
ATOM      5  C   UNL     1      -2.929  -0.051   5.164  0.00  0.00    +0.025 A 
ATOM      6  C   UNL     1      -1.965  -1.014   4.945  0.00  0.00    +0.030 A 
ENDROOT
BRANCH   1   7
ATOM      7  S   UNL     1       0.260  -2.030   3.733  0.00  0.00    +0.075 S 
ATOM      8  O   UNL     1       0.332  -2.803   4.923  0.00  0.00    -0.150 OA
ATOM      9  O   UNL     1       1.389  -1.359   3.190  0.00  0.00    -0.150 OA
BRANCH   7  17
ATOM     10  C   UNL     1      -0.753   0.739  -0.367  0.00  0.00    +0.066 C 
ATOM     11  C   UNL     1      -0.724  -0.752  -0.147  0.00  0.00    +0.044 A 
ATOM     12  C   UNL     1      -0.895  -1.621  -1.213  0.00  0.00    +0.046 A 
ATOM     13  C   UNL     1      -0.861  -2.985  -0.967  0.00  0.00    +0.044 A 
ATOM     14  N   UNL     1      -0.667  -3.413   0.269  0.00  0.00    -0.219 NA
ATOM     15  C   UNL     1      -0.507  -2.555   1.266  0.00  0.00    +0.235 A 
ATOM     16  N   UNL     1      -0.529  -1.246   1.064  0.00  0.00    -0.219 NA
ATOM     17  N   UNL     1      -0.307  -3.038   2.547  0.00  0.00    -0.184 N 
ATOM     18  C   UNL     1      -1.043  -3.968  -2.095  0.00  0.00    +0.066 C 
ATOM     19  H   UNL     1      -0.498  -3.967   2.751  0.00  0.00    +0.177 HD
ENDBRANCH   7  17
ENDBRANCH   1   7
BRANCH   4  20
ATOM     20  N   UNL     1      -3.887   2.104   4.648  0.00  0.00    -0.314 N 
ATOM     21  H   UNL     1      -4.282   2.570   3.894  0.00  0.00    +0.152 HD
BRANCH  20  22
ATOM     22  C   UNL     1      -4.291   2.407   5.940  0.00  0.00    +0.042 A 
ATOM     23  C   UNL     1      -3.636   1.871   7.038  0.00  0.00    +0.044 A 
ATOM     24  C   UNL     1      -4.064   2.193   8.318  0.00  0.00    +0.015 A 
ATOM     25  N   UNL     1      -5.080   2.997   8.527  0.00  0.00    -0.358 N 
ATOM     26  C   UNL     1      -5.758   3.550   7.515  0.00  0.00    +0.049 A 
ATOM     27  C   UNL     1      -5.381   3.277   6.179  0.00  0.00    +0.019 A 
ATOM     28  C   UNL     1      -6.092   3.863   5.123  0.00  0.00    +0.012 A 
ATOM     29  C   UNL     1      -7.136   4.696   5.394  0.00  0.00    +0.013 A 
ATOM     30  C   UNL     1      -7.507   4.971   6.707  0.00  0.00    +0.057 A 
ATOM     31  C   UNL     1      -6.845   4.410   7.756  0.00  0.00    +0.038 A 
ATOM     32  C   UNL     1      -3.342   1.602   9.502  0.00  0.00    +0.063 C 
ATOM     33  H   UNL     1      -5.346   3.196   9.439  0.00  0.00    +0.166 HD
BRANCH  30  34
ATOM     34  C   UNL     1      -8.666   5.897   6.973  0.00  0.00    +0.417 C 
ATOM     35  F   UNL     1      -9.196   6.341   5.756  0.00  0.00    -0.166 F 
ATOM     36  F   UNL     1      -9.654   5.213   7.689  0.00  0.00    -0.166 F 
ATOM     37  F   UNL     1      -8.225   6.995   7.718  0.00  0.00    -0.166 F 
ENDBRANCH  30  34
ENDBRANCH  20  22
ENDBRANCH   4  20
TORSDOF 5
