REMARK  Name = ZINC05022611
REMARK  10 active torsions:
REMARK  status: ('A' for Active; 'I' for Inactive)
REMARK    1  A    between atoms: N_7  and  C1*_10
REMARK    2  A    between atoms: C2*_12  and  O2*_22
REMARK    3  A    between atoms: C3*_14  and  O3*_21
REMARK    4  A    between atoms: C4*_16  and  C5*_19
REMARK    5  A    between atoms: C5*_19  and  O5*_20
REMARK    6  A    between atoms: N_23  and  C_24
REMARK    7  A    between atoms: C_24  and  C_25
REMARK    8  A    between atoms: C_25  and  C_26
REMARK    9  A    between atoms: C_26  and  C_27
REMARK   10  A    between atoms: C_27  and  N_46
REMARK                            x       y       z     vdW  Elec       q    Type
REMARK                         _______ _______ _______ _____ _____    ______ ____
ROOT
ATOM      1  C   UNL     1      -3.495  -0.747   0.034  0.00  0.00    +0.225 A 
ATOM      2  N   UNL     1      -2.355  -0.079   0.030  0.00  0.00    -0.219 NA
ATOM      3  C   UNL     1      -1.187  -0.712   0.010  0.00  0.00    +0.150 A 
ATOM      4  C   UNL     1      -1.187  -2.118   0.002  0.00  0.00    +0.147 A 
ATOM      5  C   UNL     1      -2.425  -2.781   0.011  0.00  0.00    +0.167 A 
ATOM      6  N   UNL     1      -3.543  -2.062   0.026  0.00  0.00    -0.216 NA
ATOM      7  N   UNL     1      -2.136  -4.122   0.000  0.00  0.00    -0.286 N 
ATOM      8  C   UNL     1      -0.779  -4.247  -0.015  0.00  0.00    +0.203 A 
ATOM      9  N   UNL     1      -0.224  -3.070  -0.013  0.00  0.00    -0.231 NA
ATOM     10  N   UNL     1       0.002  -0.004   0.002  0.00  0.00    -0.327 N 
ATOM     11  H   UNL     1       0.537  -0.243   0.812  0.00  0.00    +0.148 HD
ENDROOT
BRANCH   7  12
ATOM     12  C1* UNL     1      -3.108  -5.218   0.004  0.00  0.00    +0.253 C 
ATOM     13  C2* UNL     1      -3.559  -5.524  -1.437  0.00  0.00    +0.195 C 
ATOM     14  C3* UNL     1      -3.088  -6.982  -1.678  0.00  0.00    +0.178 C 
ATOM     15  C4* UNL     1      -1.984  -7.150  -0.603  0.00  0.00    +0.177 C 
ATOM     16  O4* UNL     1      -2.497  -6.411   0.526  0.00  0.00    -0.346 OA
BRANCH  14  17
ATOM     17  O3* UNL     1      -4.157  -7.905  -1.458  0.00  0.00    -0.386 OA
ATOM     18  H3* UNL     1      -3.893  -8.833  -1.508  0.00  0.00    +0.210 HD
ENDBRANCH  14  17
BRANCH  13  19
ATOM     19  O2* UNL     1      -2.926  -4.634  -2.359  0.00  0.00    -0.385 OA
ATOM     20  H2* UNL     1      -3.174  -4.782  -3.282  0.00  0.00    +0.210 HD
ENDBRANCH  13  19
BRANCH  15  21
ATOM     21  C5* UNL     1      -1.798  -8.625  -0.242  0.00  0.00    +0.190 C 
BRANCH  21  22
ATOM     22  O5* UNL     1      -0.765  -8.749   0.738  0.00  0.00    -0.392 OA
ATOM     23  H5* UNL     1      -0.593  -9.659   1.015  0.00  0.00    +0.210 HD
ENDBRANCH  21  22
ENDBRANCH  15  21
ENDBRANCH   7  12
BRANCH  10  24
ATOM     24  C   UNL     1      -0.018   1.461   0.010  0.00  0.00    +0.103 C 
BRANCH  24  25
ATOM     25  C   UNL     1       1.418   1.990  -0.001  0.00  0.00    +0.017 C 
BRANCH  25  26
ATOM     26  C   UNL     1       1.397   3.520   0.008  0.00  0.00    -0.018 C 
BRANCH  26  27
ATOM     27  C   UNL     1       2.832   4.050  -0.003  0.00  0.00    -0.086 C 
BRANCH  27  30
ATOM     28  H   UNL     1       2.289   5.869   0.793  0.00  0.00    -0.090 HD
ATOM     29  H   UNL     1       3.749   5.893  -0.002  0.00  0.00    -0.090 HD
ATOM     30  N   UNL     1       2.800   5.523  -0.017  0.00  0.00    +0.378 N 
ATOM     31  H   UNL     1       2.330   5.842  -0.872  0.00  0.00    -0.090 HD
ENDBRANCH  27  30
ENDBRANCH  26  27
ENDBRANCH  25  26
ENDBRANCH  24  25
ENDBRANCH  10  24
TORSDOF 10
