REMARK  Name = ZINC58246444
REMARK  10 active torsions:
REMARK  status: ('A' for Active; 'I' for Inactive)
REMARK    1  A    between atoms: C_1  and  N_2
REMARK    2  A    between atoms: N_5  and  C_6
REMARK    3  A    between atoms: C_9  and  N_12
REMARK    4  A    between atoms: C_13  and  C_15
REMARK    5  A    between atoms: N_17  and  C_18
REMARK    6  A    between atoms: C_18  and  C_19
REMARK    7  A    between atoms: C_24  and  C_25
REMARK    8  A    between atoms: C_25  and  N_26
REMARK    9  A    between atoms: N_26  and  C_27
REMARK   10  A    between atoms: N_26  and  C_28
REMARK                            x       y       z     vdW  Elec       q    Type
REMARK                         _______ _______ _______ _____ _____    ______ ____
ROOT
ATOM      1  C   UNL     1       3.037  -7.194  -6.353  0.00  0.00    +0.300 C 
ATOM      2  O   UNL     1       3.589  -6.643  -7.283  0.00  0.00    -0.265 OA
ATOM      3  N   UNL     1       2.855  -8.529  -6.372  0.00  0.00    -0.303 N 
ATOM      4  H   UNL     1       2.414  -8.969  -5.628  0.00  0.00    +0.149 HD
ENDROOT
BRANCH   1   6
ATOM      5  N   UNL     1       2.744  -5.056  -5.168  0.00  0.00    -0.278 N 
ATOM      6  C   UNL     1       2.561  -6.391  -5.187  0.00  0.00    +0.303 C 
ATOM      7  O   UNL     1       2.010  -6.942  -4.256  0.00  0.00    -0.265 OA
ATOM      8  H   UNL     1       3.243  -4.625  -5.879  0.00  0.00    +0.155 HD
BRANCH   5  12
ATOM      9  C   UNL     1       1.164  -2.780  -2.054  0.00  0.00    +0.035 A 
ATOM     10  C   UNL     1       1.642  -4.060  -1.805  0.00  0.00    +0.025 A 
ATOM     11  C   UNL     1       2.165  -4.814  -2.836  0.00  0.00    +0.025 A 
ATOM     12  C   UNL     1       2.213  -4.293  -4.123  0.00  0.00    +0.034 A 
ATOM     13  C   UNL     1       1.734  -3.012  -4.372  0.00  0.00    +0.025 A 
ATOM     14  C   UNL     1       1.206  -2.261  -3.341  0.00  0.00    +0.025 A 
BRANCH   9  19
ATOM     15  C   UNL     1      -2.108   0.375  -0.464  0.00  0.00    +0.129 C 
ATOM     16  N   UNL     1      -0.978  -0.524  -0.214  0.00  0.00    -0.302 N 
ATOM     17  C   UNL     1      -0.407  -1.189  -1.238  0.00  0.00    +0.304 C 
ATOM     18  O   UNL     1      -0.829  -1.043  -2.369  0.00  0.00    -0.253 OA
ATOM     19  N   UNL     1       0.632  -2.016  -1.008  0.00  0.00    -0.269 N 
ATOM     20  H   UNL     1      -0.641  -0.640   0.688  0.00  0.00    +0.150 HD
ATOM     21  H   UNL     1       1.012  -2.081  -0.118  0.00  0.00    +0.156 HD
ENDBRANCH   9  19
ENDBRANCH   5  12
ENDBRANCH   1   6
BRANCH   3  22
ATOM     22  C   UNL     1       3.322  -9.316  -7.516  0.00  0.00    +0.140 C 
BRANCH  22  23
ATOM     23  C   UNL     1       2.998 -10.770  -7.291  0.00  0.00    -0.029 A 
ATOM     24  C   UNL     1       3.978 -11.634  -6.836  0.00  0.00    +0.005 A 
ATOM     25  C   UNL     1       3.681 -12.968  -6.629  0.00  0.00    +0.000 A 
ATOM     26  C   UNL     1       2.405 -13.438  -6.877  0.00  0.00    +0.000 A 
ATOM     27  C   UNL     1       1.426 -12.575  -7.331  0.00  0.00    +0.002 A 
ATOM     28  C   UNL     1       1.721 -11.240  -7.533  0.00  0.00    -0.059 A 
BRANCH  28  29
ATOM     29  C   UNL     1       0.652 -10.297  -8.023  0.00  0.00    -0.043 C 
BRANCH  29  30
ATOM     30  N   UNL     1       0.810 -10.086  -9.468  0.00  0.00    +0.382 N 
ATOM     31  C   UNL     1       0.568 -11.350 -10.177  0.00  0.00    -0.095 C 
ATOM     32  H   UNL     1       1.748  -9.767  -9.661  0.00  0.00    -0.081 HD
BRANCH  30  33
ATOM     33  C   UNL     1      -0.155  -9.077  -9.924  0.00  0.00    -0.069 C 
ATOM     34  C   UNL     1       0.009  -8.857 -11.429  0.00  0.00    -0.015 C 
ATOM     35  C   UNL     1      -0.996  -7.806 -11.904  0.00  0.00    -0.002 C 
ATOM     36  C   UNL     1      -0.743  -6.489 -11.166  0.00  0.00    -0.000 C 
ATOM     37  C   UNL     1      -0.908  -6.709  -9.661  0.00  0.00    -0.002 C 
ATOM     38  C   UNL     1       0.097  -7.760  -9.186  0.00  0.00    -0.015 C 
ENDBRANCH  30  33
ENDBRANCH  29  30
ENDBRANCH  28  29
ENDBRANCH  22  23
ENDBRANCH   3  22
TORSDOF 8
