REMARK  Name = ZINC11905348
REMARK  10 active torsions:
REMARK  status: ('A' for Active; 'I' for Inactive)
REMARK    1  A    between atoms: C_1  and  O_2
REMARK    2  A    between atoms: O_2  and  C_3
REMARK    3  A    between atoms: C_6  and  C_11
REMARK    4  A    between atoms: C_8  and  O_9
REMARK    5  A    between atoms: O_9  and  C_10
REMARK    6  A    between atoms: C_11  and  C_13
REMARK    7  A    between atoms: C_11  and  N_58
REMARK    8  A    between atoms: C_13  and  N_14
REMARK    9  A    between atoms: C_15  and  C_17
REMARK   10  A    between atoms: C_19  and  C_22
REMARK                            x       y       z     vdW  Elec       q    Type
REMARK                         _______ _______ _______ _____ _____    ______ ____
ROOT
ATOM      1  C   UNL     1      -0.801   1.185  -1.188  0.00  0.00    -0.020 C 
ENDROOT
BRANCH   1   5
ATOM      2  C   UNL     1       1.728  -1.426  -3.440  0.00  0.00    +0.161 A 
ATOM      3  C   UNL     1       0.846  -1.946  -2.506  0.00  0.00    +0.049 A 
ATOM      4  C   UNL     1       0.034  -1.099  -1.776  0.00  0.00    +0.006 A 
ATOM      5  C   UNL     1       0.091   0.267  -1.983  0.00  0.00    -0.056 A 
ATOM      6  C   UNL     1       0.968   0.792  -2.913  0.00  0.00    +0.051 A 
ATOM      7  C   UNL     1       1.789  -0.051  -3.645  0.00  0.00    +0.162 A 
BRANCH   2   9
ATOM      8  C   UNL     1       2.415  -3.658  -3.893  0.00  0.00    +0.277 C 
ATOM      9  O   UNL     1       2.532  -2.258  -4.155  0.00  0.00    -0.491 OA
ENDBRANCH   2   9
BRANCH   7  10
ATOM     10  O   UNL     1       2.652   0.464  -4.560  0.00  0.00    -0.491 OA
ATOM     11  C   UNL     1       2.661   1.884  -4.717  0.00  0.00    +0.277 C 
ENDBRANCH   7  10
ENDBRANCH   1   5
BRANCH   1  16
ATOM     12  C   UNL     1      -3.112   1.613  -0.550  0.00  0.00    -0.078 C 
ATOM     13  C   UNL     1      -4.493   1.161  -1.089  0.00  0.00    -0.020 C 
ATOM     14  C   UNL     1      -4.177   0.747  -2.544  0.00  0.00    -0.020 C 
ATOM     15  C   UNL     1      -2.667   0.448  -2.559  0.00  0.00    -0.078 C 
ATOM     16  N   UNL     1      -2.197   0.653  -1.188  0.00  0.00    +0.385 N 
ATOM     17  H   UNL     1      -2.218  -0.238  -0.678  0.00  0.00    -0.081 HD
ENDBRANCH   1  16
BRANCH   1  18
ATOM     18  C   UNL     1      -0.284   1.282   0.248  0.00  0.00    +0.094 C 
BRANCH  18  19
ATOM     19  N   UNL     1      -1.083   2.260   0.991  0.00  0.00    -0.311 N 
ATOM     20  C   UNL     1      -0.897   2.415   2.316  0.00  0.00    +0.266 C 
ATOM     21  O   UNL     1      -0.066   1.744   2.896  0.00  0.00    -0.268 OA
ATOM     22  H   UNL     1      -1.747   2.795   0.528  0.00  0.00    +0.149 HD
BRANCH  20  23
ATOM     23  C   UNL     1      -1.707   3.405   3.068  0.00  0.00    +0.168 A 
ATOM     24  C   UNL     1      -1.636   3.683   4.458  0.00  0.00    +0.086 A 
ATOM     25  C   UNL     1      -2.572   4.662   4.643  0.00  0.00    +0.168 A 
ATOM     26  O   UNL     1      -3.121   4.894   3.438  0.00  0.00    -0.354 OA
ATOM     27  N   UNL     1      -2.634   4.194   2.582  0.00  0.00    -0.073 NA
BRANCH  25  28
ATOM     28  C   UNL     1      -2.917   5.328   5.917  0.00  0.00    +0.020 A 
ATOM     29  C   UNL     1      -2.259   4.971   7.095  0.00  0.00    +0.011 A 
ATOM     30  C   UNL     1      -2.582   5.600   8.280  0.00  0.00    +0.001 A 
ATOM     31  C   UNL     1      -3.564   6.575   8.304  0.00  0.00    +0.000 A 
ATOM     32  C   UNL     1      -4.224   6.929   7.141  0.00  0.00    +0.001 A 
ATOM     33  C   UNL     1      -3.907   6.311   5.948  0.00  0.00    +0.011 A 
ENDBRANCH  25  28
ENDBRANCH  20  23
ENDBRANCH  18  19
ENDBRANCH   1  18
TORSDOF 8
