REMARK  Name = ZINC03548833
REMARK  7 active torsions:
REMARK  status: ('A' for Active; 'I' for Inactive)
REMARK    1  A    between atoms: C_1  and  S_2
REMARK    2  A    between atoms: S_2  and  C_3
REMARK    3  A    between atoms: C_7  and  N_9
REMARK    4  A    between atoms: C_10  and  C_12
REMARK    5  A    between atoms: C_13  and  C_14
REMARK    6  A    between atoms: C_17  and  S_20
REMARK    7  A    between atoms: S_20  and  N_23
REMARK                            x       y       z     vdW  Elec       q    Type
REMARK                         _______ _______ _______ _____ _____    ______ ____
ROOT
ATOM      1  C   UNL     1      -2.630  10.757   5.311  0.00  0.00    -0.025 A 
ATOM      2  C   UNL     1      -3.254  10.166   6.415  0.00  0.00    +0.010 A 
ATOM      3  C   UNL     1      -3.719  10.958   7.444  0.00  0.00    +0.029 A 
ATOM      4  C   UNL     1      -3.580  12.333   7.382  0.00  0.00    +0.106 A 
ATOM      5  C   UNL     1      -2.968  12.925   6.290  0.00  0.00    +0.029 A 
ATOM      6  C   UNL     1      -2.493  12.147   5.255  0.00  0.00    +0.010 A 
ENDROOT
BRANCH   4   7
ATOM      7  S   UNL     1      -4.185  13.336   8.698  0.00  0.00    +0.061 S 
ATOM      8  O   UNL     1      -4.225  12.510   9.853  0.00  0.00    -0.153 OA
ATOM      9  O   UNL     1      -3.447  14.550   8.655  0.00  0.00    -0.153 OA
BRANCH   7  10
ATOM     10  N   UNL     1      -5.754  13.723   8.338  0.00  0.00    -0.172 NA
ATOM     11  C   UNL     1      -6.078  14.937   7.571  0.00  0.00    +0.137 C 
ATOM     12  C   UNL     1      -7.010  14.540   6.415  0.00  0.00    +0.177 C 
ATOM     13  O   UNL     1      -8.119  13.805   6.939  0.00  0.00    -0.377 OA
ATOM     14  C   UNL     1      -7.760  12.573   7.569  0.00  0.00    +0.177 C 
ATOM     15  C   UNL     1      -6.866  12.867   8.779  0.00  0.00    +0.137 C 
ENDBRANCH   7  10
ENDBRANCH   4   7
BRANCH   1  17
ATOM     16  C   UNL     1      -2.260   8.578   4.269  0.00  0.00    +0.068 C 
ATOM     17  C   UNL     1      -2.126   9.919   4.211  0.00  0.00    +0.013 C 
BRANCH  16  19
ATOM     18  N   UNL     1      -1.892   6.405   3.232  0.00  0.00    -0.282 N 
ATOM     19  C   UNL     1      -1.758   7.745   3.175  0.00  0.00    +0.241 C 
ATOM     20  O   UNL     1      -1.220   8.262   2.213  0.00  0.00    -0.270 OA
ATOM     21  H   UNL     1      -2.388   5.998   3.960  0.00  0.00    +0.155 HD
BRANCH  18  26
ATOM     22  C   UNL     1       0.446   5.182   0.666  0.00  0.00    +0.009 A 
ATOM     23  C   UNL     1      -0.183   4.002   0.284  0.00  0.00    +0.015 A 
ATOM     24  C   UNL     1      -1.371   3.626   0.879  0.00  0.00    +0.003 A 
ATOM     25  C   UNL     1      -1.939   4.421   1.857  0.00  0.00    +0.023 A 
ATOM     26  C   UNL     1      -1.317   5.602   2.243  0.00  0.00    +0.035 A 
ATOM     27  C   UNL     1      -0.120   5.980   1.651  0.00  0.00    +0.038 A 
BRANCH  22  29
ATOM     28  C   UNL     1       2.296   4.329  -1.281  0.00  0.00    +0.090 C 
ATOM     29  S   UNL     1       1.962   5.660  -0.094  0.00  0.00    -0.129 S 
ENDBRANCH  22  29
ENDBRANCH  18  26
ENDBRANCH  16  19
ENDBRANCH   1  17
TORSDOF 6
