REMARK  Name = ZINC27533866
REMARK  2 active torsions:
REMARK  status: ('A' for Active; 'I' for Inactive)
REMARK    1  A    between atoms: C_9  and  C_11
REMARK    2  A    between atoms: N_15  and  C_19
REMARK                            x       y       z     vdW  Elec       q    Type
REMARK                         _______ _______ _______ _____ _____    ______ ____
ROOT
ATOM      1  C   UNL     1      -0.139   0.142  -0.874  0.00  0.00    +0.066 C 
ATOM      2  C   UNL     1      -0.089   1.430  -0.445  0.00  0.00    +0.080 C 
ATOM      3  C   UNL     1       1.034   2.395  -0.481  0.00  0.00    +0.263 C 
ATOM      4  O   UNL     1       2.121   2.096  -0.939  0.00  0.00    -0.269 OA
ATOM      5  N   UNL     1       0.794   3.598   0.013  0.00  0.00    -0.224 N 
ATOM      6  C   UNL     1      -0.411   3.924   0.521  0.00  0.00    +0.125 C 
ATOM      7  S   UNL     1      -0.911   5.415   1.198  0.00  0.00    -0.027 S 
ATOM      8  S   UNL     1      -1.365   2.429   0.310  0.00  0.00    -0.061 S 
ENDROOT
BRANCH   1  17
ATOM      9  C   UNL     1       4.370  -2.883  -3.401  0.00  0.00    +0.002 A 
ATOM     10  C   UNL     1       5.039  -1.682  -3.207  0.00  0.00    +0.002 A 
ATOM     11  C   UNL     1       4.408  -0.617  -2.631  0.00  0.00    +0.030 A 
ATOM     12  C   UNL     1       3.071  -0.732  -2.231  0.00  0.00    +0.089 A 
ATOM     13  C   UNL     1       2.393  -1.950  -2.428  0.00  0.00    +0.066 A 
ATOM     14  C   UNL     1       3.054  -3.021  -3.015  0.00  0.00    +0.028 A 
ATOM     15  N   UNL     1       1.114  -1.764  -1.944  0.00  0.00    -0.338 N 
ATOM     16  H   UNL     1       0.385  -2.587  -1.987  0.00  0.00    +0.167 HD
ATOM     17  C   UNL     1       1.045  -0.475  -1.476  0.00  0.00    +0.133 A 
ATOM     18  N   UNL     1       2.203   0.122  -1.656  0.00  0.00    -0.228 NA
ENDBRANCH   1  17
BRANCH   5  19
ATOM     19  C   UNL     1       1.817   4.556   0.009  0.00  0.00    +0.043 A 
ATOM     20  C   UNL     1       2.678   4.660   1.093  0.00  0.00    +0.025 A 
ATOM     21  C   UNL     1       3.688   5.601   1.083  0.00  0.00    +0.017 A 
ATOM     22  C   UNL     1       3.836   6.449  -0.001  0.00  0.00    +0.018 A 
ATOM     23  C   UNL     1       2.975   6.352  -1.080  0.00  0.00    +0.017 A 
ATOM     24  C   UNL     1       1.967   5.408  -1.078  0.00  0.00    +0.025 A 
ATOM     25 BR   UNL     1       5.216   7.741  -0.007  0.00  0.00    -0.050 Br
ENDBRANCH   5  19
TORSDOF 2
