REMARK  Name = ZINC39676929
REMARK  8 active torsions:
REMARK  status: ('A' for Active; 'I' for Inactive)
REMARK    1  A    between atoms: C_1  and  C_2
REMARK    2  A    between atoms: C_5  and  C_37
REMARK    3  A    between atoms: C_6  and  C_8
REMARK    4  A    between atoms: C_8  and  C_9
REMARK    5  A    between atoms: C_9  and  N_10
REMARK    6  A    between atoms: C_11  and  C_13
REMARK    7  A    between atoms: C_24  and  C_26
REMARK    8  A    between atoms: C_30  and  C_32
REMARK                            x       y       z     vdW  Elec       q    Type
REMARK                         _______ _______ _______ _____ _____    ______ ____
ROOT
ATOM      1  C   UNL     1       2.450  -5.396   6.521  0.00  0.00    +0.100 C 
ATOM      2  C   UNL     1       1.640  -6.625   6.053  0.00  0.00    +0.121 C 
ATOM      3  N   UNL     1       2.665  -7.625   5.669  0.00  0.00    -0.296 N 
ATOM      4  C   UNL     1       3.724  -7.480   6.696  0.00  0.00    +0.115 C 
ATOM      5  C   UNL     1       3.816  -5.961   6.946  0.00  0.00    -0.004 C 
ATOM      6  C   UNL     1       4.066  -5.684   8.425  0.00  0.00    -0.010 C 
ATOM      7  C   UNL     1       5.454  -6.203   8.810  0.00  0.00    -0.082 C 
ATOM      8  N   UNL     1       6.473  -5.539   7.987  0.00  0.00    +0.379 N 
ATOM      9  C   UNL     1       6.280  -5.886   6.574  0.00  0.00    -0.082 C 
ATOM     10  C   UNL     1       4.927  -5.354   6.095  0.00  0.00    -0.010 C 
ATOM     11  C   UNL     1       2.639  -8.474   4.623  0.00  0.00    +0.247 C 
ATOM     12  O   UNL     1       1.756  -8.389   3.792  0.00  0.00    -0.270 OA
ATOM     13  H   UNL     1       6.394  -4.539   8.100  0.00  0.00    -0.086 HD
ATOM     14  H   UNL     1       7.390  -5.837   8.284  0.00  0.00    -0.086 HD
ENDROOT
BRANCH  11  15
ATOM     15  C   UNL     1       3.684  -9.509   4.486  0.00  0.00    +0.038 A 
ATOM     16  C   UNL     1       4.423  -9.910   5.601  0.00  0.00    +0.016 A 
ATOM     17  C   UNL     1       5.397 -10.877   5.468  0.00  0.00    +0.039 A 
ATOM     18  C   UNL     1       5.643 -11.451   4.230  0.00  0.00    +0.135 A 
ATOM     19  C   UNL     1       4.912 -11.056   3.120  0.00  0.00    +0.091 A 
ATOM     20  C   UNL     1       3.932 -10.095   3.243  0.00  0.00    +0.028 A 
ATOM     21  F   UNL     1       6.599 -12.397   4.105  0.00  0.00    -0.205 F 
BRANCH  19  22
ATOM     22  C   UNL     1       5.185 -11.684   1.778  0.00  0.00    +0.420 C 
ATOM     23  F   UNL     1       4.329 -11.129   0.820  0.00  0.00    -0.166 F 
ATOM     24  F   UNL     1       6.514 -11.443   1.411  0.00  0.00    -0.166 F 
ATOM     25  F   UNL     1       4.966 -13.064   1.855  0.00  0.00    -0.166 F 
ENDBRANCH  19  22
ENDBRANCH  11  15
BRANCH   1  27
ATOM     26  N   UNL     1       2.849  -3.114   5.653  0.00  0.00    -0.315 N 
ATOM     27  C   UNL     1       2.618  -4.415   5.389  0.00  0.00    +0.218 C 
ATOM     28  O   UNL     1       2.544  -4.797   4.240  0.00  0.00    -0.275 OA
ATOM     29  H   UNL     1       2.908  -2.809   6.572  0.00  0.00    +0.149 HD
BRANCH  26  30
ATOM     30  C   UNL     1       3.012  -2.161   4.552  0.00  0.00    +0.109 C 
BRANCH  30  31
ATOM     31  C   UNL     1       3.262  -0.763   5.121  0.00  0.00    +0.054 C 
BRANCH  31  37
ATOM     32  C   UNL     1       6.227   1.787   1.998  0.00  0.00    +0.044 C 
ATOM     33  C   UNL     1       4.848   1.438   2.495  0.00  0.00    -0.050 A 
ATOM     34  C   UNL     1       3.736   2.017   1.913  0.00  0.00    +0.003 A 
ATOM     35  C   UNL     1       2.471   1.698   2.369  0.00  0.00    +0.004 A 
ATOM     36  C   UNL     1       2.317   0.798   3.407  0.00  0.00    -0.047 A 
ATOM     37  C   UNL     1       3.429   0.218   3.989  0.00  0.00    -0.043 A 
ATOM     38  C   UNL     1       4.694   0.534   3.530  0.00  0.00    +0.007 A 
ATOM     39  C   UNL     1       0.938   0.450   3.905  0.00  0.00    +0.044 C 
ENDBRANCH  31  37
ENDBRANCH  30  31
ENDBRANCH  26  30
ENDBRANCH   1  27
TORSDOF 6
