REMARK  Name = ZINC09879104
REMARK  18 active torsions:
REMARK  status: ('A' for Active; 'I' for Inactive)
REMARK    1  A    between atoms: C_1  and  C_2
REMARK    2  A    between atoms: C_2  and  O_3
REMARK    3  A    between atoms: O_3  and  C_4
REMARK    4  A    between atoms: C_4  and  C_5
REMARK    5  A    between atoms: C_5  and  O_6
REMARK    6  A    between atoms: O_6  and  C_7
REMARK    7  A    between atoms: C_10  and  N_13
REMARK    8  A    between atoms: C_14  and  C_16
REMARK    9  A    between atoms: C_16  and  O_17
REMARK   10  A    between atoms: O_17  and  C_18
REMARK   11  A    between atoms: C_21  and  C_28
REMARK   12  A    between atoms: C_23  and  C_24
REMARK   13  A    between atoms: C_24  and  C_25
REMARK   14  A    between atoms: C_24  and  C_26
REMARK   15  A    between atoms: C_24  and  C_27
REMARK   16  A    between atoms: C_28  and  C_29
REMARK   17  A    between atoms: C_28  and  C_30
REMARK   18  A    between atoms: C_28  and  C_31
REMARK                            x       y       z     vdW  Elec       q    Type
REMARK                         _______ _______ _______ _____ _____    ______ ____
ROOT
ATOM      1  N   UNL     1      -0.242   1.246   2.466  0.00  0.00    -0.283 N 
ATOM      2  C   UNL     1      -0.717   1.573   1.248  0.00  0.00    +0.255 C 
ATOM      3  O   UNL     1      -1.709   2.265   1.150  0.00  0.00    -0.272 OA
ATOM      4  H   UNL     1       0.511   0.639   2.546  0.00  0.00    +0.155 HD
ENDROOT
BRANCH   1   8
ATOM      5  C   UNL     1      -2.005   2.842   5.891  0.00  0.00    +0.121 A 
ATOM      6  C   UNL     1      -2.787   2.534   4.787  0.00  0.00    +0.047 A 
ATOM      7  C   UNL     1      -2.204   2.006   3.653  0.00  0.00    +0.027 A 
ATOM      8  C   UNL     1      -0.834   1.783   3.616  0.00  0.00    +0.034 A 
ATOM      9  C   UNL     1      -0.052   2.086   4.723  0.00  0.00    +0.027 A 
ATOM     10  C   UNL     1      -0.636   2.619   5.855  0.00  0.00    +0.047 A 
BRANCH   5  11
ATOM     11  O   UNL     1      -2.580   3.362   7.008  0.00  0.00    -0.490 OA
BRANCH  11  12
ATOM     12  C   UNL     1      -1.715   3.655   8.107  0.00  0.00    +0.257 C 
BRANCH  12  13
ATOM     13  C   UNL     1      -2.536   4.228   9.264  0.00  0.00    +0.200 C 
BRANCH  13  14
ATOM     14  O   UNL     1      -3.438   3.230   9.748  0.00  0.00    -0.377 OA
BRANCH  14  16
ATOM     15  C   UNL     1      -5.176   2.523  11.270  0.00  0.00    +0.034 C 
ATOM     16  C   UNL     1      -4.256   3.665  10.835  0.00  0.00    +0.156 C 
ENDBRANCH  14  16
ENDBRANCH  13  14
ENDBRANCH  12  13
ENDBRANCH  11  12
ENDBRANCH   5  11
ENDBRANCH   1   8
BRANCH   2  17
ATOM     17  C   UNL     1      -0.016   1.080   0.008  0.00  0.00    +0.324 C 
BRANCH  17  18
ATOM     18  O   UNL     1      -0.705   1.556  -1.150  0.00  0.00    -0.482 OA
BRANCH  18  19
ATOM     19  C   UNL     1      -0.199   1.199  -2.359  0.00  0.00    +0.125 A 
ATOM     20  C   UNL     1       0.937   0.406  -2.430  0.00  0.00    +0.046 A 
ATOM     21  C   UNL     1       1.450   0.044  -3.661  0.00  0.00    +0.008 A 
ATOM     22  C   UNL     1       0.831   0.471  -4.822  0.00  0.00    -0.041 A 
ATOM     23  C   UNL     1      -0.302   1.261  -4.753  0.00  0.00    +0.012 A 
ATOM     24  C   UNL     1      -0.821   1.622  -3.525  0.00  0.00    -0.000 A 
BRANCH  24  25
ATOM     25  C   UNL     1      -2.059   2.478  -3.451  0.00  0.00    -0.009 C 
ATOM     26  C   UNL     1      -2.540   2.802  -4.867  0.00  0.00    +0.015 C 
ATOM     27  C   UNL     1      -3.157   1.723  -2.700  0.00  0.00    +0.015 C 
ATOM     28  C   UNL     1      -1.736   3.779  -2.712  0.00  0.00    +0.015 C 
ENDBRANCH  24  25
BRANCH  22  29
ATOM     29  C   UNL     1       1.391   0.075  -6.163  0.00  0.00    -0.013 C 
ATOM     30  C   UNL     1       2.636  -0.792  -5.959  0.00  0.00    +0.015 C 
ATOM     31  C   UNL     1       0.340  -0.718  -6.942  0.00  0.00    +0.015 C 
ATOM     32  C   UNL     1       1.769   1.332  -6.950  0.00  0.00    +0.015 C 
ENDBRANCH  22  29
ENDBRANCH  18  19
ENDBRANCH  17  18
ENDBRANCH   2  17
TORSDOF 11
