REMARK  Name = ZINC20474960
REMARK  3 active torsions:
REMARK  status: ('A' for Active; 'I' for Inactive)
REMARK    1  A    between atoms: C_3  and  O_9
REMARK    2  A    between atoms: C_6  and  N_7
REMARK    3  A    between atoms: O_9  and  C_10
REMARK                            x       y       z     vdW  Elec       q    Type
REMARK                         _______ _______ _______ _____ _____    ______ ____
ROOT
ATOM      1  C   UNL     1      -1.257   3.005   0.048  0.00  0.00    +0.026 A 
ATOM      2  C   UNL     1      -2.457   3.691   0.053  0.00  0.00    +0.051 A 
ATOM      3  C   UNL     1      -3.655   2.993   0.033  0.00  0.00    +0.164 A 
ATOM      4  C   UNL     1      -3.650   1.604   0.002  0.00  0.00    +0.167 A 
ATOM      5  C   UNL     1      -2.450   0.917  -0.010  0.00  0.00    +0.064 A 
ATOM      6  C   UNL     1      -1.250   1.617   0.010  0.00  0.00    +0.028 A 
ATOM      7  F   UNL     1      -4.817   0.924  -0.019  0.00  0.00    -0.202 F 
ENDROOT
BRANCH   6   8
ATOM      8  N   UNL     1      -0.035   0.923  -0.002  0.00  0.00    -0.358 N 
ATOM      9  H   UNL     1      -0.030  -0.176  -0.031  0.00  0.00    +0.142 HD
ATOM     10  H   UNL     1       0.915   1.477   0.019  0.00  0.00    +0.142 HD
ENDBRANCH   6   8
BRANCH   3  11
ATOM     11  O   UNL     1      -4.835   3.669   0.045  0.00  0.00    -0.450 OA
BRANCH  11  12
ATOM     12  C   UNL     1      -5.488   3.793   1.231  0.00  0.00    +0.164 A 
ATOM     13  C   UNL     1      -4.895   3.342   2.401  0.00  0.00    +0.050 A 
ATOM     14  C   UNL     1      -5.560   3.470   3.605  0.00  0.00    +0.019 A 
ATOM     15  C   UNL     1      -6.816   4.048   3.646  0.00  0.00    +0.021 A 
ATOM     16  C   UNL     1      -7.411   4.499   2.481  0.00  0.00    +0.057 A 
ATOM     17  C   UNL     1      -6.747   4.378   1.274  0.00  0.00    +0.166 A 
ATOM     18  F   UNL     1      -7.326   4.823   0.137  0.00  0.00    -0.202 F 
ATOM     19 BR   UNL     1      -7.722   4.220   5.297  0.00  0.00    -0.050 Br
ENDBRANCH  11  12
ENDBRANCH   3  11
TORSDOF 3
