REMARK  Name = ZINC39355839
REMARK  10 active torsions:
REMARK  status: ('A' for Active; 'I' for Inactive)
REMARK    1  A    between atoms: C_1  and  C_2
REMARK    2  A    between atoms: C_5  and  C_8
REMARK    3  A    between atoms: C_8  and  O_9
REMARK    4  A    between atoms: O_9  and  C_10
REMARK    5  A    between atoms: C_14  and  C_16
REMARK    6  A    between atoms: C_16  and  C_18
REMARK    7  A    between atoms: C_16  and  C_25
REMARK    8  A    between atoms: C_19  and  C_24
REMARK    9  A    between atoms: C_26  and  C_32
REMARK   10  A    between atoms: C_29  and  O_31
REMARK                            x       y       z     vdW  Elec       q    Type
REMARK                         _______ _______ _______ _____ _____    ______ ____
ROOT
ATOM      1  C   UNL     1       4.491  -8.522  -0.058  0.00  0.00    +0.088 C 
ENDROOT
BRANCH   1   2
ATOM      2  C   UNL     1       4.735  -9.274   1.225  0.00  0.00    +0.052 A 
ATOM      3  C   UNL     1       4.075  -9.066   2.440  0.00  0.00    +0.068 A 
ATOM      4  N   UNL     1       4.557  -9.908   3.318  0.00  0.00    -0.176 NA
ATOM      5  N   UNL     1       5.542 -10.682   2.692  0.00  0.00    -0.243 N 
ATOM      6  C   UNL     1       5.632 -10.280   1.405  0.00  0.00    +0.271 A 
ATOM      7  O   UNL     1       6.468 -10.787   0.463  0.00  0.00    -0.266 OA
ATOM      8  C   UNL     1       2.995  -8.046   2.695  0.00  0.00    +0.068 C 
ATOM      9  H   UNL     1       6.065 -11.386   3.108  0.00  0.00    +0.192 HD
ENDBRANCH   1   2
BRANCH   1  14
ATOM     10  C   UNL     1       1.267  -6.622  -0.582  0.00  0.00    +0.121 A 
ATOM     11  C   UNL     1       0.326  -7.626  -0.409  0.00  0.00    +0.045 A 
ATOM     12  C   UNL     1       0.736  -8.914  -0.123  0.00  0.00    +0.004 A 
ATOM     13  C   UNL     1       2.083  -9.203  -0.010  0.00  0.00    +0.005 A 
ATOM     14  C   UNL     1       3.023  -8.204  -0.182  0.00  0.00    -0.032 A 
ATOM     15  C   UNL     1       2.619  -6.915  -0.474  0.00  0.00    +0.050 A 
BRANCH  10  16
ATOM     16  O   UNL     1       0.866  -5.354  -0.864  0.00  0.00    -0.487 OA
BRANCH  16  17
ATOM     17  C   UNL     1      -0.541  -5.125  -0.961  0.00  0.00    +0.264 C 
BRANCH  17  22
ATOM     18  C   UNL     1      -1.511   0.441  -2.171  0.00  0.00    +0.044 C 
ATOM     19  C   UNL     1      -1.258  -1.010  -1.856  0.00  0.00    -0.050 A 
ATOM     20  C   UNL     1      -1.101  -1.924  -2.881  0.00  0.00    +0.004 A 
ATOM     21  C   UNL     1      -0.868  -3.255  -2.592  0.00  0.00    +0.007 A 
ATOM     22  C   UNL     1      -0.793  -3.674  -1.277  0.00  0.00    -0.010 A 
ATOM     23  C   UNL     1      -0.950  -2.760  -0.251  0.00  0.00    +0.007 A 
ATOM     24  C   UNL     1      -1.178  -1.428  -0.540  0.00  0.00    +0.004 A 
ENDBRANCH  17  22
ENDBRANCH  16  17
ENDBRANCH  10  16
ENDBRANCH   1  14
BRANCH   1  25
ATOM     25  C   UNL     1       4.923  -9.369  -1.227  0.00  0.00    +0.017 C 
ATOM     26  C   UNL     1       5.855  -9.094  -2.142  0.00  0.00    +0.065 C 
ATOM     27  N   UNL     1       5.959 -10.101  -3.038  0.00  0.00    -0.156 NA
ATOM     28  N   UNL     1       5.193 -11.046  -2.837  0.00  0.00    -0.151 NA
ATOM     29  C   UNL     1       4.402 -10.736  -1.634  0.00  0.00    +0.284 C 
ATOM     30  C   UNL     1       6.679  -7.833  -2.172  0.00  0.00    +0.067 C 
BRANCH  29  31
ATOM     31  O   UNL     1       3.010 -10.674  -1.949  0.00  0.00    -0.366 OA
ATOM     32  H   UNL     1       2.628 -11.521  -2.216  0.00  0.00    +0.212 HD
ENDBRANCH  29  31
ENDBRANCH   1  25
TORSDOF 7
