REMARK  Name = ZINC36024671
REMARK  5 active torsions:
REMARK  status: ('A' for Active; 'I' for Inactive)
REMARK    1  A    between atoms: C_1  and  C_2
REMARK    2  A    between atoms: N_6  and  C_25
REMARK    3  A    between atoms: N_11  and  S_14
REMARK    4  A    between atoms: S_14  and  C_17
REMARK    5  A    between atoms: C_25  and  C_26
REMARK                            x       y       z     vdW  Elec       q    Type
REMARK                         _______ _______ _______ _____ _____    ______ ____
ROOT
ATOM      1  C   UNL     1      -3.986   1.132  -1.375  0.00  0.00    -0.004 C 
ATOM      2  C   UNL     1      -2.885   0.121  -1.050  0.00  0.00    +0.016 C 
ATOM      3  C   UNL     1      -3.450  -1.036  -0.255  0.00  0.00    +0.200 C 
ATOM      4  O   UNL     1      -4.488  -1.618  -0.490  0.00  0.00    -0.277 OA
ATOM      5  N   UNL     1      -2.605  -1.311   0.761  0.00  0.00    -0.309 N 
ATOM      6  C   UNL     1      -1.463  -0.395   0.707  0.00  0.00    +0.006 C 
ATOM      7  N   UNL     1      -1.868   0.733  -0.162  0.00  0.00    +0.401 N 
ATOM      8  C   UNL     1      -0.249  -1.099   0.103  0.00  0.00    +0.023 C 
ATOM      9  C   UNL     1       0.139  -2.289   0.986  0.00  0.00    +0.109 C 
ATOM     10  N   UNL     1       0.331  -1.813   2.363  0.00  0.00    -0.177 NA
ATOM     11  C   UNL     1      -0.753  -1.057   3.007  0.00  0.00    +0.109 C 
ATOM     12  C   UNL     1      -1.134   0.122   2.106  0.00  0.00    +0.023 C 
ATOM     13  H   UNL     1      -1.083   1.071  -0.698  0.00  0.00    -0.082 HD
ATOM     14  H   UNL     1      -2.274   1.476   0.386  0.00  0.00    -0.082 HD
ENDROOT
BRANCH  10  15
ATOM     15  S   UNL     1       1.741  -2.122   3.174  0.00  0.00    +0.062 S 
ATOM     16  O   UNL     1       1.448  -2.000   4.559  0.00  0.00    -0.153 OA
ATOM     17  O   UNL     1       2.281  -3.309   2.611  0.00  0.00    -0.153 OA
BRANCH  15  18
ATOM     18  C   UNL     1       2.864  -0.822   2.781  0.00  0.00    +0.125 A 
ATOM     19  C   UNL     1       3.238   0.086   3.754  0.00  0.00    +0.030 A 
ATOM     20  C   UNL     1       4.119   1.106   3.446  0.00  0.00    +0.003 A 
ATOM     21  C   UNL     1       4.626   1.219   2.165  0.00  0.00    +0.021 A 
ATOM     22  C   UNL     1       4.253   0.312   1.190  0.00  0.00    +0.061 A 
ATOM     23  C   UNL     1       3.375  -0.714   1.500  0.00  0.00    +0.086 A 
ATOM     24 CL   UNL     1       2.911  -1.858   0.280  0.00  0.00    -0.080 Cl
ATOM     25 CL   UNL     1       4.889   0.454  -0.418  0.00  0.00    -0.082 Cl
ENDBRANCH  15  18
ENDBRANCH  10  15
BRANCH   5  26
ATOM     26  C   UNL     1      -2.800  -2.362   1.762  0.00  0.00    +0.141 C 
BRANCH  26  27
ATOM     27  C   UNL     1      -3.753  -1.875   2.823  0.00  0.00    -0.026 A 
ATOM     28  C   UNL     1      -3.559  -2.238   4.143  0.00  0.00    +0.009 A 
ATOM     29  C   UNL     1      -4.430  -1.793   5.120  0.00  0.00    +0.050 A 
ATOM     30  C   UNL     1      -5.500  -0.982   4.778  0.00  0.00    +0.166 A 
ATOM     31  C   UNL     1      -5.696  -0.617   3.448  0.00  0.00    +0.167 A 
ATOM     32  C   UNL     1      -4.815  -1.061   2.475  0.00  0.00    +0.054 A 
ATOM     33  O   UNL     1      -6.804   0.176   3.372  0.00  0.00    -0.453 OA
ATOM     34  C   UNL     1      -7.519  -0.043   4.603  0.00  0.00    +0.466 C 
ATOM     35  O   UNL     1      -6.487  -0.418   5.535  0.00  0.00    -0.453 OA
ENDBRANCH  26  27
ENDBRANCH   5  26
TORSDOF 4
