REMARK  Name = ZINC40544877
REMARK  5 active torsions:
REMARK  status: ('A' for Active; 'I' for Inactive)
REMARK    1  A    between atoms: C_5  and  N_8
REMARK    2  A    between atoms: N_11  and  CA_12
REMARK    3  A    between atoms: CA_12  and  CB_14
REMARK    4  A    between atoms: CA_12  and  C_18
REMARK    5  A    between atoms: CB_14  and  CG_15
REMARK                            x       y       z     vdW  Elec       q    Type
REMARK                         _______ _______ _______ _____ _____    ______ ____
ROOT
ATOM      1  N   UNK A   0       1.237  -2.081  -0.022  0.00  0.00    -0.267 N 
ATOM      2  C   UNK A   0       0.155  -2.775   0.384  0.00  0.00    +0.305 C 
ATOM      3  O   UNK A   0      -0.870  -2.188   0.671  0.00  0.00    -0.252 OA
ATOM      4  N   ASN A   1       0.210  -4.119   0.471  0.00  0.00    -0.285 N 
ATOM      5  H   UNK A   0       2.031  -2.552  -0.320  0.00  0.00    +0.156 HD
ATOM      6  H   ASN A   1       1.029  -4.587   0.242  0.00  0.00    +0.151 HD
ENDROOT
BRANCH   1  11
ATOM      7  C   UNK A   0       0.782   1.397  -1.133  0.00  0.00    +0.032 A 
ATOM      8  C   UNK A   0       1.172   2.087   0.002  0.00  0.00    +0.020 A 
ATOM      9  C   UNK A   0       1.583   1.397   1.128  0.00  0.00    +0.032 A 
ATOM     10  C   UNK A   0       1.605   0.015   1.123  0.00  0.00    +0.041 A 
ATOM     11  C   UNK A   0       1.215  -0.681  -0.014  0.00  0.00    +0.063 A 
ATOM     12  C   UNK A   0       0.802   0.015  -1.143  0.00  0.00    +0.041 A 
ATOM     13 BR   UNK A   0       0.270  -0.927  -2.694  0.00  0.00    -0.048 Br
ATOM     14 BR   UNK A   0       2.168  -0.928   2.663  0.00  0.00    -0.048 Br
ATOM     15 BR   UNK A   0       1.143   3.978   0.012  0.00  0.00    -0.050 Br
ENDBRANCH   1  11
BRANCH   4  16
ATOM     16  CA  ASN A   1      -0.966  -4.873   0.912  0.00  0.00    +0.196 C 
BRANCH  16  17
ATOM     17  C   ASN A   1      -0.996  -4.920   2.418  0.00  0.00    +0.376 C 
ATOM     18  O   ASN A   1      -2.063  -4.982   3.005  0.00  0.00    -0.244 OA
ATOM     19  OXT ASN A   1       0.046  -4.896   3.050  0.00  0.00    -0.244 OA
ENDBRANCH  16  17
BRANCH  16  20
ATOM     20  CB  ASN A   1      -0.895  -6.297   0.359  0.00  0.00    +0.129 C 
BRANCH  20  21
ATOM     21  CG  ASN A   1      -0.989  -6.257  -1.145  0.00  0.00    +0.213 C 
ATOM     22  OD1 ASN A   1      -1.100  -5.194  -1.717  0.00  0.00    -0.276 OA
ATOM     23  ND2 ASN A   1      -0.948  -7.403  -1.853  0.00  0.00    -0.329 N 
ATOM     24 HD21 ASN A   1      -0.858  -8.253  -1.395  0.00  0.00    +0.145 HD
ATOM     25 HD22 ASN A   1      -1.008  -7.377  -2.821  0.00  0.00    +0.145 HD
ENDBRANCH  20  21
ENDBRANCH  16  20
ENDBRANCH   4  16
TORSDOF 5
