REMARK  Name = ZINC16636024
REMARK  8 active torsions:
REMARK  status: ('A' for Active; 'I' for Inactive)
REMARK    1  A    between atoms: C_1  and  N_52
REMARK    2  A    between atoms: C_2  and  C_3
REMARK    3  A    between atoms: C_2  and  N_52
REMARK    4  A    between atoms: N_5  and  C_6
REMARK    5  A    between atoms: C_14  and  C_15
REMARK    6  A    between atoms: C_14  and  N_52
REMARK    7  A    between atoms: C_18  and  C_28
REMARK    8  A    between atoms: C_21  and  C_23
REMARK                            x       y       z     vdW  Elec       q    Type
REMARK                         _______ _______ _______ _____ _____    ______ ____
ROOT
ATOM      1  C   UNL     1      -2.582   9.344  -0.777  0.00  0.00    +0.021 C 
ENDROOT
BRANCH   1   2
ATOM      2  C   UNL     1      -4.011   9.770  -0.995  0.00  0.00    +0.219 C 
ATOM      3  O   UNL     1      -4.864   8.938  -1.225  0.00  0.00    -0.276 OA
ATOM      4  N   UNL     1      -4.343  11.075  -0.934  0.00  0.00    -0.184 N 
ATOM      5  C   UNL     1      -5.693  11.625  -1.133  0.00  0.00    +0.172 C 
ATOM      6  C   UNL     1      -5.496  13.143  -0.953  0.00  0.00    +0.090 C 
ATOM      7  C   UNL     1      -4.017  13.289  -0.673  0.00  0.00    +0.075 C 
ATOM      8  N   UNL     1      -3.461  12.123  -0.680  0.00  0.00    -0.180 NA
BRANCH   7   9
ATOM      9  C   UNL     1      -3.322  14.557  -0.431  0.00  0.00    +0.035 A 
ATOM     10  C   UNL     1      -1.983  14.781  -0.164  0.00  0.00    +0.017 A 
ATOM     11  C   UNL     1      -1.562  16.077   0.026  0.00  0.00    +0.008 A 
ATOM     12  C   UNL     1      -2.467  17.087  -0.043  0.00  0.00    +0.046 A 
ATOM     13  S   UNL     1      -3.984  16.215  -0.397  0.00  0.00    -0.095 S 
ENDBRANCH   7   9
BRANCH   5  14
ATOM     14  C   UNL     1      -6.194  11.314  -2.520  0.00  0.00    +0.128 A 
ATOM     15  C   UNL     1      -7.455  10.978  -2.844  0.00  0.00    +0.046 A 
ATOM     16  C   UNL     1      -7.479  10.775  -4.243  0.00  0.00    +0.041 A 
ATOM     17  C   UNL     1      -6.230  10.999  -4.690  0.00  0.00    +0.195 A 
ATOM     18  O   UNL     1      -5.457  11.331  -3.643  0.00  0.00    -0.466 OA
ENDBRANCH   5  14
ENDBRANCH   1   2
BRANCH   1  20
ATOM     19  C   UNL     1      -2.773   7.444  -2.265  0.00  0.00    -0.095 C 
ATOM     20  N   UNL     1      -2.503   7.872  -0.877  0.00  0.00    +0.389 N 
ATOM     21  H   UNL     1      -3.209   7.457  -0.257  0.00  0.00    -0.081 HD
BRANCH  20  22
ATOM     22  C   UNL     1      -1.164   7.408  -0.457  0.00  0.00    +0.019 C 
BRANCH  22  23
ATOM     23  C   UNL     1      -1.179   5.905  -0.356  0.00  0.00    +0.201 C 
ATOM     24  O   UNL     1      -2.189   5.289  -0.622  0.00  0.00    -0.278 OA
ATOM     25  N   UNL     1      -0.069   5.244   0.029  0.00  0.00    -0.285 N 
ATOM     26  H   UNL     1       0.716   5.738   0.312  0.00  0.00    +0.155 HD
BRANCH  25  27
ATOM     27  C   UNL     1      -0.050   3.844   0.022  0.00  0.00    +0.070 A 
ATOM     28  C   UNL     1       0.340   3.159  -1.123  0.00  0.00    +0.064 A 
ATOM     29  C   UNL     1       0.357   1.777  -1.126  0.00  0.00    +0.022 A 
ATOM     30  C   UNL     1      -0.013   1.076   0.006  0.00  0.00    +0.003 A 
ATOM     31  C   UNL     1      -0.406   1.754   1.145  0.00  0.00    +0.022 A 
ATOM     32  C   UNL     1      -0.421   3.136   1.158  0.00  0.00    +0.064 A 
ATOM     33 CL   UNL     1      -0.909   3.987   2.591  0.00  0.00    -0.082 Cl
ATOM     34 CL   UNL     1       0.805   4.038  -2.546  0.00  0.00    -0.082 Cl
ENDBRANCH  25  27
ENDBRANCH  22  23
ENDBRANCH  20  22
ENDBRANCH   1  20
TORSDOF 7
