REMARK  Name = ZINC14484709
REMARK  8 active torsions:
REMARK  status: ('A' for Active; 'I' for Inactive)
REMARK    1  A    between atoms: C_1  and  C_2
REMARK    2  A    between atoms: C_2  and  C_4
REMARK    3  A    between atoms: C_2  and  N_13
REMARK    4  A    between atoms: C_14  and  C_16
REMARK    5  A    between atoms: N_19  and  S_22
REMARK    6  A    between atoms: S_22  and  C_25
REMARK    7  A    between atoms: C_27  and  C_31
REMARK    8  A    between atoms: N_28  and  C_30
REMARK                            x       y       z     vdW  Elec       q    Type
REMARK                         _______ _______ _______ _____ _____    ______ ____
ROOT
ATOM      1  C   UNL     1      -6.932   0.156   4.368  0.00  0.00    +0.077 C 
ATOM      2  C   UNL     1      -6.443   1.435   3.684  0.00  0.00    +0.030 C 
ATOM      3  C   UNL     1      -7.162   1.597   2.341  0.00  0.00    +0.110 C 
ATOM      4  N   UNL     1      -6.965   0.375   1.549  0.00  0.00    -0.176 NA
ATOM      5  C   UNL     1      -7.324  -0.919   2.145  0.00  0.00    +0.110 C 
ATOM      6  C   UNL     1      -6.598  -1.054   3.493  0.00  0.00    +0.030 C 
ENDROOT
BRANCH   1   8
ATOM      7  N   UNL     1      -6.531  -1.048   6.491  0.00  0.00    -0.309 N 
ATOM      8  C   UNL     1      -6.253   0.011   5.705  0.00  0.00    +0.217 C 
ATOM      9  O   UNL     1      -5.456   0.847   6.075  0.00  0.00    -0.275 OA
ATOM     10  H   UNL     1      -7.168  -1.717   6.196  0.00  0.00    +0.149 HD
BRANCH   7  12
ATOM     11  C   UNL     1      -6.641  -0.392   8.845  0.00  0.00    +0.033 C 
ATOM     12  C   UNL     1      -5.870  -1.189   7.791  0.00  0.00    +0.100 C 
BRANCH  12  13
ATOM     13  C   UNL     1      -5.841  -2.644   8.184  0.00  0.00    -0.024 A 
ATOM     14  C   UNL     1      -6.939  -3.447   7.939  0.00  0.00    +0.009 A 
ATOM     15  C   UNL     1      -6.918  -4.782   8.299  0.00  0.00    +0.050 A 
ATOM     16  C   UNL     1      -5.793  -5.318   8.905  0.00  0.00    +0.166 A 
ATOM     17  C   UNL     1      -4.687  -4.509   9.152  0.00  0.00    +0.167 A 
ATOM     18  C   UNL     1      -4.714  -3.174   8.784  0.00  0.00    +0.055 A 
ATOM     19  O   UNL     1      -3.719  -5.264   9.749  0.00  0.00    -0.453 OA
ATOM     20  C   UNL     1      -4.088  -6.633   9.496  0.00  0.00    +0.466 C 
ATOM     21  O   UNL     1      -5.519  -6.580   9.348  0.00  0.00    -0.453 OA
ENDBRANCH  12  13
ENDBRANCH   7  12
ENDBRANCH   1   8
BRANCH   4  22
ATOM     22  S   UNL     1      -6.357   0.456   0.010  0.00  0.00    +0.062 S 
ATOM     23  O   UNL     1      -6.643   1.762  -0.471  0.00  0.00    -0.153 OA
ATOM     24  O   UNL     1      -6.797  -0.717  -0.662  0.00  0.00    -0.153 OA
BRANCH  22  25
ATOM     25  C   UNL     1      -4.604   0.337   0.136  0.00  0.00    +0.124 A 
ATOM     26  C   UNL     1      -3.715   1.406   0.287  0.00  0.00    +0.061 A 
ATOM     27  C   UNL     1      -2.445   0.872   0.340  0.00  0.00    +0.106 A 
ATOM     28  N   UNL     1      -2.565  -0.495   0.232  0.00  0.00    -0.344 N 
ATOM     29  C   UNL     1      -3.878  -0.806   0.109  0.00  0.00    +0.114 A 
ATOM     30  C   UNL     1      -1.457  -1.454   0.248  0.00  0.00    +0.149 C 
BRANCH  27  31
ATOM     31  C   UNL     1      -1.194   1.624   0.489  0.00  0.00    +0.258 C 
ATOM     32  O   UNL     1      -0.126   1.044   0.437  0.00  0.00    -0.269 OA
ATOM     33  N   UNL     1      -1.228   2.957   0.685  0.00  0.00    -0.324 N 
ATOM     34  H   UNL     1      -2.074   3.430   0.651  0.00  0.00    +0.145 HD
ATOM     35  H   UNL     1      -0.408   3.442   0.863  0.00  0.00    +0.145 HD
ENDBRANCH  27  31
ENDBRANCH  22  25
ENDBRANCH   4  22
TORSDOF 6
