REMARK  Name = ZINC37421637
REMARK  4 active torsions:
REMARK  status: ('A' for Active; 'I' for Inactive)
REMARK    1  A    between atoms: C_5  and  C_7
REMARK    2  A    between atoms: C_7  and  N_8
REMARK    3  A    between atoms: C_16  and  C_17
REMARK    4  A    between atoms: C_17  and  C_18
REMARK                            x       y       z     vdW  Elec       q    Type
REMARK                         _______ _______ _______ _____ _____    ______ ____
ROOT
ATOM      1  N   UNL     1       1.489  -2.679   1.333  0.00  0.00    -0.323 N 
ATOM      2  C   UNL     1       2.727  -2.841   1.921  0.00  0.00    +0.072 A 
ATOM      3  C   UNL     1       4.032  -2.625   1.498  0.00  0.00    +0.028 A 
ATOM      4  C   UNL     1       5.083  -2.894   2.349  0.00  0.00    +0.005 A 
ATOM      5  C   UNL     1       4.847  -3.381   3.627  0.00  0.00    +0.040 A 
ATOM      6  C   UNL     1       3.559  -3.602   4.064  0.00  0.00    +0.151 A 
ATOM      7  C   UNL     1       2.481  -3.333   3.213  0.00  0.00    +0.124 A 
ATOM      8  N   UNL     1       1.134  -3.443   3.345  0.00  0.00    -0.229 NA
ATOM      9  C   UNL     1       0.554  -3.055   2.248  0.00  0.00    +0.112 A 
ATOM     10  F   UNL     1       3.338  -4.077   5.309  0.00  0.00    -0.203 F 
ENDROOT
BRANCH   1  11
ATOM     11  C   UNL     1       1.229  -2.186  -0.022  0.00  0.00    +0.160 C 
BRANCH  11  16
ATOM     12  C   UNL     1      -0.654   1.078   0.207  0.00  0.00    +0.000 A 
ATOM     13  C   UNL     1       0.375   1.998   0.123  0.00  0.00    +0.001 A 
ATOM     14  C   UNL     1       1.680   1.564  -0.009  0.00  0.00    +0.020 A 
ATOM     15  C   UNL     1       1.958   0.209  -0.056  0.00  0.00    +0.046 A 
ATOM     16  C   UNL     1       0.928  -0.710   0.030  0.00  0.00    -0.009 A 
ATOM     17  C   UNL     1      -0.378  -0.275   0.161  0.00  0.00    +0.007 A 
ATOM     18 CL   UNL     1       3.597  -0.337  -0.222  0.00  0.00    -0.083 Cl
ENDBRANCH  11  16
ENDBRANCH   1  11
BRANCH   9  19
ATOM     19  C   UNL     1      -0.935  -3.031   2.020  0.00  0.00    +0.090 C 
BRANCH  19  20
ATOM     20  C   UNL     1      -1.385  -4.374   1.442  0.00  0.00    +0.116 C 
ATOM     21 CL   UNL     1      -3.167  -4.345   1.170  0.00  0.00    -0.125 Cl
ENDBRANCH  19  20
ENDBRANCH   9  19
TORSDOF 4
