REMARK  Name = ZINC10217209
REMARK  6 active torsions:
REMARK  status: ('A' for Active; 'I' for Inactive)
REMARK    1  A    between atoms: C_1  and  C_2
REMARK    2  A    between atoms: N_5  and  S_11
REMARK    3  A    between atoms: C_7  and  C_10
REMARK    4  A    between atoms: S_11  and  C_14
REMARK    5  A    between atoms: C_17  and  C_20
REMARK    6  A    between atoms: N_22  and  C_23
REMARK                            x       y       z     vdW  Elec       q    Type
REMARK                         _______ _______ _______ _____ _____    ______ ____
ROOT
ATOM      1  C   UNL     1      -6.069   3.514  -0.371  0.00  0.00    +0.106 A 
ATOM      2  C   UNL     1      -6.067   2.130  -0.380  0.00  0.00    +0.029 A 
ATOM      3  C   UNL     1      -4.877   1.438  -0.285  0.00  0.00    +0.015 A 
ATOM      4  C   UNL     1      -3.673   2.138  -0.182  0.00  0.00    +0.037 A 
ATOM      5  C   UNL     1      -3.683   3.533  -0.169  0.00  0.00    +0.015 A 
ATOM      6  C   UNL     1      -4.879   4.213  -0.268  0.00  0.00    +0.029 A 
ENDROOT
BRANCH   4   7
ATOM      7  C   UNL     1      -2.394   1.403  -0.081  0.00  0.00    +0.248 C 
ATOM      8  O   UNL     1      -2.390   0.187  -0.087  0.00  0.00    -0.270 OA
ATOM      9  N   UNL     1      -1.234   2.081   0.019  0.00  0.00    -0.281 N 
ATOM     10  H   UNL     1      -1.242   3.048   0.093  0.00  0.00    +0.155 HD
BRANCH   9  11
ATOM     11  C   UNL     1      -0.017   1.389   0.016  0.00  0.00    +0.035 A 
ATOM     12  C   UNL     1       1.109   1.947  -0.587  0.00  0.00    +0.025 A 
ATOM     13  C   UNL     1       2.304   1.300  -0.599  0.00  0.00    +0.031 A 
ATOM     14  C   UNL     1       2.445   0.030   0.005  0.00  0.00    +0.078 A 
ATOM     15  C   UNL     1       1.289  -0.514   0.609  0.00  0.00    +0.041 A 
ATOM     16  C   UNL     1       0.083   0.143   0.619  0.00  0.00    +0.040 A 
ATOM     17  S   UNL     1       1.888  -2.067   1.227  0.00  0.00    -0.075 S 
ATOM     18  C   UNL     1       3.529  -1.913   0.682  0.00  0.00    +0.157 A 
ATOM     19  N   UNL     1       3.542  -0.753   0.090  0.00  0.00    -0.247 NA
ENDBRANCH   9  11
ENDBRANCH   4   7
BRANCH   1  20
ATOM     20  S   UNL     1      -7.593   4.389  -0.491  0.00  0.00    +0.061 S 
ATOM     21  O   UNL     1      -7.283   5.675  -1.011  0.00  0.00    -0.153 OA
ATOM     22  O   UNL     1      -8.515   3.514  -1.126  0.00  0.00    -0.153 OA
BRANCH  20  26
ATOM     23  C   UNL     1      -5.926   4.642   3.016  0.00  0.00    +0.039 C 
ATOM     24  C   UNL     1      -7.254   5.383   3.188  0.00  0.00    +0.131 C 
ATOM     25  C   UNL     1      -7.775   5.824   1.816  0.00  0.00    +0.140 C 
ATOM     26  N   UNL     1      -8.146   4.623   1.052  0.00  0.00    -0.172 NA
ATOM     27  C   UNL     1      -9.029   3.638   1.697  0.00  0.00    +0.140 C 
ATOM     28  C   UNL     1      -8.442   3.300   3.077  0.00  0.00    +0.131 C 
ATOM     29  O   UNL     1      -8.210   4.513   3.798  0.00  0.00    -0.371 OA
ATOM     30  C   UNL     1      -9.431   2.426   3.851  0.00  0.00    +0.039 C 
ENDBRANCH  20  26
ENDBRANCH   1  20
TORSDOF 4
