REMARK  Name = ZINC31819918
REMARK  5 active torsions:
REMARK  status: ('A' for Active; 'I' for Inactive)
REMARK    1  A    between atoms: C_1  and  C_2
REMARK    2  A    between atoms: C_2  and  C_3
REMARK    3  A    between atoms: C_2  and  C_4
REMARK    4  A    between atoms: C_8  and  N_21
REMARK    5  A    between atoms: C_9  and  C_13
REMARK                            x       y       z     vdW  Elec       q    Type
REMARK                         _______ _______ _______ _____ _____    ______ ____
ROOT
ATOM      1  C   UNL     1      -2.835   0.750   2.369  0.00  0.00    +0.051 A 
ATOM      2  C   UNL     1      -2.168   1.076   1.192  0.00  0.00    -0.022 A 
ATOM      3  C   UNL     1      -2.853   1.023   0.001  0.00  0.00    -0.028 A 
ATOM      4  C   UNL     1      -4.200   0.645   0.032  0.00  0.00    +0.065 A 
ATOM      5  C   UNL     1      -5.238   0.477  -0.991  0.00  0.00    +0.085 A 
ATOM      6  C   UNL     1      -6.364   0.085  -0.318  0.00  0.00    +0.213 A 
ATOM      7  O   UNL     1      -6.094   0.005   1.005  0.00  0.00    -0.430 OA
ATOM      8  C   UNL     1      -4.811   0.331   1.258  0.00  0.00    +0.230 A 
ATOM      9  N   UNL     1      -4.101   0.396   2.376  0.00  0.00    -0.216 NA
ATOM     10  C   UNL     1      -2.216   1.350  -1.321  0.00  0.00    +0.036 C 
ATOM     11  C   UNL     1      -0.921   2.135  -1.113  0.00  0.00    +0.005 C 
ATOM     12  C   UNL     1      -0.056   1.381  -0.096  0.00  0.00    +0.005 C 
ATOM     13  C   UNL     1      -0.717   1.482   1.278  0.00  0.00    +0.037 C 
ENDROOT
BRANCH   6  14
ATOM     14  C   UNL     1      -7.618  -0.194  -0.914  0.00  0.00    +0.284 C 
ATOM     15  O   UNL     1      -7.716  -0.251  -2.127  0.00  0.00    -0.267 OA
ATOM     16  N   UNL     1      -8.703  -0.395  -0.140  0.00  0.00    -0.295 N 
ATOM     17  C   UNL     1      -8.644  -0.155   1.308  0.00  0.00    +0.108 C 
ATOM     18  C   UNL     1      -9.781   0.804   1.692  0.00  0.00    +0.019 C 
ATOM     19  C   UNL     1     -11.112   0.228   1.204  0.00  0.00    +0.003 C 
ATOM     20  C   UNL     1     -11.086   0.098  -0.321  0.00  0.00    +0.019 C 
ATOM     21  C   UNL     1      -9.965  -0.864  -0.728  0.00  0.00    +0.108 C 
ENDBRANCH   6  14
BRANCH   1  23
ATOM     22  C   UNL     1      -2.757   1.809   4.610  0.00  0.00    +0.014 C 
ATOM     23  C   UNL     1      -2.083   0.803   3.674  0.00  0.00    +0.032 C 
ATOM     24  C   UNL     1      -2.090  -0.582   4.324  0.00  0.00    +0.014 C 
ENDBRANCH   1  23
BRANCH   5  25
ATOM     25  N   UNL     1      -5.106   0.674  -2.356  0.00  0.00    -0.354 N 
ATOM     26  H   UNL     1      -5.967   0.512  -3.021  0.00  0.00    +0.142 HD
ATOM     27  H   UNL     1      -4.139   0.991  -2.775  0.00  0.00    +0.142 HD
ENDBRANCH   5  25
TORSDOF 3
