REMARK  Name = ZINC03340899
REMARK  3 active torsions:
REMARK  status: ('A' for Active; 'I' for Inactive)
REMARK    1  A    between atoms: C_3  and  N_9
REMARK    2  A    between atoms: C_10  and  C_12
REMARK    3  A    between atoms: C_12  and  N_13
REMARK                            x       y       z     vdW  Elec       q    Type
REMARK                         _______ _______ _______ _____ _____    ______ ____
ROOT
ATOM      1  C   UNL     1       3.744  -0.966   0.175  0.00  0.00    +0.214 C 
ENDROOT
BRANCH   1   2
ATOM      2  N   UNL     1       3.501  -2.408   0.266  0.00  0.00    -0.215 N 
ATOM      3  C   UNL     1       3.415  -3.231  -0.799  0.00  0.00    +0.247 C 
ATOM      4  O   UNL     1       3.519  -2.930  -1.969  0.00  0.00    -0.273 OA
ATOM      5  C   UNL     1       3.161  -4.607  -0.227  0.00  0.00    +0.113 C 
ATOM      6  C   UNL     1       4.295  -5.555  -0.601  0.00  0.00    +0.035 C 
ATOM      7  C   UNL     1       4.033  -6.934   0.011  0.00  0.00    +0.003 C 
ATOM      8  C   UNL     1       2.700  -7.476  -0.508  0.00  0.00    +0.000 C 
ATOM      9  C   UNL     1       1.570  -6.527  -0.104  0.00  0.00    +0.003 C 
ATOM     10  C   UNL     1       1.821  -5.146  -0.716  0.00  0.00    +0.035 C 
ATOM     11  N   UNL     1       3.129  -4.388   1.225  0.00  0.00    -0.285 N 
ATOM     12  C   UNL     1       3.343  -3.073   1.417  0.00  0.00    +0.310 C 
ATOM     13  O   UNL     1       3.386  -2.548   2.512  0.00  0.00    -0.252 OA
ATOM     14  H   UNL     1       2.986  -5.060   1.910  0.00  0.00    +0.151 HD
ENDBRANCH   1   2
BRANCH   1  16
ATOM     15  N   UNL     1       2.403   1.104  -0.015  0.00  0.00    -0.282 N 
ATOM     16  C   UNL     1       2.426  -0.240   0.078  0.00  0.00    +0.235 C 
ATOM     17  O   UNL     1       1.387  -0.866   0.085  0.00  0.00    -0.274 OA
ATOM     18  H   UNL     1       3.233   1.599  -0.102  0.00  0.00    +0.155 HD
BRANCH  15  21
ATOM     19  C   UNL     1      -1.130   1.885   0.647  0.00  0.00    +0.017 A 
ATOM     20  C   UNL     1       0.076   1.213   0.626  0.00  0.00    +0.027 A 
ATOM     21  C   UNL     1       1.180   1.787   0.012  0.00  0.00    +0.069 A 
ATOM     22  C   UNL     1       1.069   3.042  -0.578  0.00  0.00    +0.146 A 
ATOM     23  C   UNL     1      -0.140   3.712  -0.550  0.00  0.00    +0.055 A 
ATOM     24  C   UNL     1      -1.237   3.136   0.065  0.00  0.00    +0.021 A 
ATOM     25 BR   UNL     1      -2.889   4.056   0.102  0.00  0.00    -0.050 Br
ATOM     26  F   UNL     1       2.141   3.605  -1.177  0.00  0.00    -0.204 F 
ENDBRANCH  15  21
ENDBRANCH   1  16
TORSDOF 3
