REMARK  Name = ZINC36574025
REMARK  17 active torsions:
REMARK  status: ('A' for Active; 'I' for Inactive)
REMARK    1  A    between atoms: C_1  and  C_2
REMARK    2  A    between atoms: C_2  and  C_3
REMARK    3  A    between atoms: C_3  and  C_4
REMARK    4  A    between atoms: C_4  and  N_5
REMARK    5  A    between atoms: C_6  and  C_8
REMARK    6  A    between atoms: C_8  and  C_10
REMARK    7  A    between atoms: C_8  and  N_20
REMARK    8  A    between atoms: C_13  and  O_18
REMARK    9  A    between atoms: C_14  and  O_16
REMARK   10  A    between atoms: O_16  and  C_17
REMARK   11  A    between atoms: O_18  and  C_19
REMARK   12  A    between atoms: N_20  and  C_21
REMARK   13  A    between atoms: C_21  and  C_22
REMARK   14  A    between atoms: C_22  and  C_23
REMARK   15  A    between atoms: C_24  and  C_26
REMARK   16  A    between atoms: C_26  and  C_27
REMARK   17  A    between atoms: C_27  and  C_28
REMARK                            x       y       z     vdW  Elec       q    Type
REMARK                         _______ _______ _______ _____ _____    ______ ____
ROOT
ATOM      1  C   UNL     1      -4.511  -4.846  -0.546  0.00  0.00    +0.192 C 
ENDROOT
BRANCH   1   2
ATOM      2  C   UNL     1      -5.237  -4.554   0.742  0.00  0.00    -0.015 A 
ATOM      3  C   UNL     1      -4.886  -5.224   1.899  0.00  0.00    +0.010 A 
ATOM      4  C   UNL     1      -5.549  -4.959   3.083  0.00  0.00    +0.050 A 
ATOM      5  C   UNL     1      -6.568  -4.020   3.111  0.00  0.00    +0.162 A 
ATOM      6  C   UNL     1      -6.921  -3.346   1.946  0.00  0.00    +0.162 A 
ATOM      7  C   UNL     1      -6.249  -3.612   0.764  0.00  0.00    +0.055 A 
BRANCH   6   8
ATOM      8  O   UNL     1      -7.921  -2.424   1.968  0.00  0.00    -0.491 OA
ATOM      9  C   UNL     1      -8.229  -1.771   0.735  0.00  0.00    +0.277 C 
ENDBRANCH   6   8
BRANCH   5  10
ATOM     10  O   UNL     1      -7.222  -3.759   4.274  0.00  0.00    -0.491 OA
ATOM     11  C   UNL     1      -6.807  -4.489   5.430  0.00  0.00    +0.277 C 
ENDBRANCH   5  10
ENDBRANCH   1   2
BRANCH   1  13
ATOM     12  N   UNL     1      -3.138  -2.995  -1.445  0.00  0.00    -0.313 N 
ATOM     13  C   UNL     1      -3.238  -4.040  -0.599  0.00  0.00    +0.238 C 
ATOM     14  O   UNL     1      -2.305  -4.331   0.119  0.00  0.00    -0.273 OA
ATOM     15  H   UNL     1      -3.884  -2.763  -2.019  0.00  0.00    +0.149 HD
BRANCH  12  16
ATOM     16  C   UNL     1      -1.901  -2.212  -1.497  0.00  0.00    +0.104 C 
BRANCH  16  17
ATOM     17  C   UNL     1      -2.049  -1.093  -2.531  0.00  0.00    +0.018 C 
BRANCH  17  19
ATOM     18  C   UNL     1      -0.905   0.843  -3.619  0.00  0.00    +0.004 C 
ATOM     19  C   UNL     1      -0.757  -0.275  -2.585  0.00  0.00    -0.002 C 
ENDBRANCH  17  19
ENDBRANCH  16  17
ENDBRANCH  12  16
ENDBRANCH   1  13
BRANCH   1  20
ATOM     20  N   UNL     1      -4.187  -6.274  -0.611  0.00  0.00    -0.286 N 
ATOM     21  C   UNL     1      -5.177  -7.188  -0.654  0.00  0.00    +0.216 C 
ATOM     22  O   UNL     1      -4.911  -8.371  -0.620  0.00  0.00    -0.276 OA
BRANCH  20  23
ATOM     23  C   UNL     1      -2.788  -6.708  -0.628  0.00  0.00    +0.108 C 
BRANCH  23  24
ATOM     24  C   UNL     1      -2.341  -7.047   0.795  0.00  0.00    +0.016 C 
ATOM     25  C   UNL     1      -0.887  -7.521   0.773  0.00  0.00    +0.005 C 
ENDBRANCH  23  24
ENDBRANCH  20  23
BRANCH  21  26
ATOM     26  C   UNL     1      -6.613  -6.740  -0.745  0.00  0.00    +0.096 C 
BRANCH  26  27
ATOM     27  C   UNL     1      -7.527  -7.965  -0.788  0.00  0.00    +0.006 C 
ATOM     28  C   UNL     1      -8.985  -7.510  -0.880  0.00  0.00    +0.004 C 
ENDBRANCH  26  27
ENDBRANCH  21  26
ENDBRANCH   1  20
TORSDOF 12
