REMARK  Name = ZINC56748105
REMARK  10 active torsions:
REMARK  status: ('A' for Active; 'I' for Inactive)
REMARK    1  A    between atoms: C_1  and  N_2
REMARK    2  A    between atoms: N_2  and  C_3
REMARK    3  A    between atoms: N_2  and  C_4
REMARK    4  A    between atoms: C_4  and  C_6
REMARK    5  A    between atoms: C_4  and  C_25
REMARK    6  A    between atoms: C_6  and  N_7
REMARK    7  A    between atoms: N_10  and  C_11
REMARK    8  A    between atoms: C_16  and  C_17
REMARK    9  A    between atoms: C_17  and  O_18
REMARK   10  A    between atoms: O_18  and  C_19
REMARK                            x       y       z     vdW  Elec       q    Type
REMARK                         _______ _______ _______ _____ _____    ______ ____
ROOT
ATOM      1  N   UNL     1      -0.255  -2.724   0.620  0.00  0.00    -0.300 N 
ATOM      2  C   UNL     1      -0.020  -4.051   0.606  0.00  0.00    +0.304 C 
ATOM      3  O   UNL     1      -0.489  -4.742  -0.277  0.00  0.00    -0.253 OA
ATOM      4  N   UNL     1       0.735  -4.611   1.572  0.00  0.00    -0.269 N 
ATOM      5  H   UNL     1       0.119  -2.172   1.324  0.00  0.00    +0.150 HD
ATOM      6  H   UNL     1       1.067  -4.069   2.304  0.00  0.00    +0.156 HD
ENDROOT
BRANCH   4   7
ATOM      7  C   UNL     1       1.040  -5.976   1.518  0.00  0.00    +0.041 A 
ATOM      8  C   UNL     1       0.197  -6.852   0.846  0.00  0.00    +0.024 A 
ATOM      9  C   UNL     1       0.500  -8.198   0.794  0.00  0.00    +0.002 A 
ATOM     10  C   UNL     1       1.643  -8.674   1.411  0.00  0.00    +0.000 A 
ATOM     11  C   UNL     1       2.484  -7.805   2.081  0.00  0.00    +0.009 A 
ATOM     12  C   UNL     1       2.189  -6.457   2.131  0.00  0.00    +0.011 A 
BRANCH  12  13
ATOM     13  C   UNL     1       3.110  -5.510   2.856  0.00  0.00    +0.266 C 
BRANCH  13  14
ATOM     14  O   UNL     1       4.213  -6.239   3.398  0.00  0.00    -0.487 OA
BRANCH  14  15
ATOM     15  C   UNL     1       5.143  -5.528   4.088  0.00  0.00    +0.121 A 
ATOM     16  C   UNL     1       4.995  -4.157   4.245  0.00  0.00    +0.045 A 
ATOM     17  C   UNL     1       5.942  -3.437   4.947  0.00  0.00    +0.004 A 
ATOM     18  C   UNL     1       7.037  -4.081   5.492  0.00  0.00    +0.000 A 
ATOM     19  C   UNL     1       7.188  -5.446   5.336  0.00  0.00    +0.004 A 
ATOM     20  C   UNL     1       6.241  -6.172   4.641  0.00  0.00    +0.045 A 
ENDBRANCH  14  15
ENDBRANCH  13  14
ENDBRANCH  12  13
ENDBRANCH   4   7
BRANCH   1  21
ATOM     21  C   UNL     1      -1.075  -2.115  -0.430  0.00  0.00    +0.095 C 
BRANCH  21  22
ATOM     22  C   UNL     1      -1.290  -0.633  -0.114  0.00  0.00    -0.020 C 
BRANCH  22  23
ATOM     23  C   UNL     1      -2.014  -0.499   1.200  0.00  0.00    -0.052 A 
ATOM     24  C   UNL     1      -1.319  -0.197   2.357  0.00  0.00    +0.009 A 
ATOM     25  C   UNL     1      -2.000  -0.083   3.523  0.00  0.00    +0.045 A 
ATOM     26  S   UNL     1      -3.677  -0.408   3.003  0.00  0.00    -0.105 S 
ATOM     27  C   UNL     1      -3.357  -0.667   1.266  0.00  0.00    +0.047 A 
ENDBRANCH  22  23
BRANCH  22  29
ATOM     28  C   UNL     1      -2.207   1.427  -0.932  0.00  0.00    -0.096 C 
ATOM     29  N   UNL     1      -2.091  -0.016  -1.180  0.00  0.00    +0.382 N 
ATOM     30  C   UNL     1      -1.437  -0.239  -2.476  0.00  0.00    -0.096 C 
ATOM     31  H   UNL     1      -3.011  -0.430  -1.192  0.00  0.00    -0.082 HD
ENDBRANCH  22  29
ENDBRANCH  21  22
ENDBRANCH   1  21
TORSDOF 8
