REMARK  Name = ZINC13348898
REMARK  12 active torsions:
REMARK  status: ('A' for Active; 'I' for Inactive)
REMARK    1  A    between atoms: C_1  and  C_2
REMARK    2  A    between atoms: C_2  and  C_3
REMARK    3  A    between atoms: C_2  and  C_4
REMARK    4  A    between atoms: C_2  and  C_5
REMARK    5  A    between atoms: C_8  and  C_11
REMARK    6  A    between atoms: C_14  and  S_17
REMARK    7  A    between atoms: N_15  and  C_16
REMARK    8  A    between atoms: S_17  and  C_18
REMARK    9  A    between atoms: C_18  and  C_19
REMARK   10  A    between atoms: N_21  and  C_22
REMARK   11  A    between atoms: C_24  and  C_30
REMARK   12  A    between atoms: C_26  and  C_28
REMARK                            x       y       z     vdW  Elec       q    Type
REMARK                         _______ _______ _______ _____ _____    ______ ____
ROOT
ATOM      1  S   UNL     1       7.558   4.509   0.580  0.00  0.00    -0.077 S 
ENDROOT
BRANCH   1   5
ATOM      2  C   UNL     1      10.991   6.374   0.536  0.00  0.00    +0.165 A 
ATOM      3  N   UNL     1      10.132   7.347   0.339  0.00  0.00    -0.128 NA
ATOM      4  N   UNL     1       8.935   6.879   0.322  0.00  0.00    -0.122 NA
ATOM      5  C   UNL     1       8.957   5.579   0.517  0.00  0.00    +0.192 A 
ATOM      6  N   UNL     1      10.264   5.212   0.656  0.00  0.00    -0.305 N 
ATOM      7  C   UNL     1      10.785   3.862   0.886  0.00  0.00    +0.153 C 
BRANCH   2  11
ATOM      8  C   UNL     1      15.217   6.744   0.759  0.00  0.00    -0.042 A 
ATOM      9  C   UNL     1      14.645   5.505   0.526  0.00  0.00    +0.005 A 
ATOM     10  C   UNL     1      13.273   5.378   0.453  0.00  0.00    +0.012 A 
ATOM     11  C   UNL     1      12.462   6.503   0.614  0.00  0.00    +0.019 A 
ATOM     12  C   UNL     1      13.045   7.750   0.842  0.00  0.00    +0.012 A 
ATOM     13  C   UNL     1      14.418   7.862   0.919  0.00  0.00    +0.005 A 
BRANCH   8  15
ATOM     14  C   UNL     1      17.338   6.420  -0.484  0.00  0.00    +0.015 C 
ATOM     15  C   UNL     1      16.716   6.875   0.838  0.00  0.00    -0.013 C 
ATOM     16  C   UNL     1      17.087   8.335   1.101  0.00  0.00    +0.015 C 
ATOM     17  C   UNL     1      17.245   6.001   1.978  0.00  0.00    +0.015 C 
ENDBRANCH   8  15
ENDBRANCH   2  11
ENDBRANCH   1   5
BRANCH   1  18
ATOM     18  C   UNL     1       6.230   5.711   0.319  0.00  0.00    +0.173 C 
BRANCH  18  19
ATOM     19  C   UNL     1       4.901   5.002   0.333  0.00  0.00    +0.227 C 
ATOM     20  O   UNL     1       4.855   3.802   0.504  0.00  0.00    -0.275 OA
ATOM     21  N   UNL     1       3.762   5.702   0.157  0.00  0.00    -0.285 N 
ATOM     22  H   UNL     1       3.802   6.648  -0.054  0.00  0.00    +0.155 HD
BRANCH  21  23
ATOM     23  C   UNL     1       2.522   5.063   0.279  0.00  0.00    +0.035 A 
ATOM     24  C   UNL     1       1.420   5.555  -0.404  0.00  0.00    +0.038 A 
ATOM     25  C   UNL     1       0.182   4.921  -0.284  0.00  0.00    +0.066 A 
ATOM     26  C   UNL     1       0.054   3.792   0.523  0.00  0.00    +0.030 A 
ATOM     27  C   UNL     1       1.164   3.300   1.208  0.00  0.00    +0.066 A 
ATOM     28  C   UNL     1       2.398   3.943   1.088  0.00  0.00    +0.038 A 
BRANCH  27  29
ATOM     29  C   UNL     1       1.033   2.104   2.065  0.00  0.00    +0.387 C 
ATOM     30  O   UNL     1       2.001   1.676   2.662  0.00  0.00    -0.241 OA
ATOM     31  O   UNL     1      -0.159   1.488   2.185  0.00  0.00    -0.241 OA
ENDBRANCH  27  29
BRANCH  25  32
ATOM     32  C   UNL     1      -0.992   5.447  -1.012  0.00  0.00    +0.387 C 
ATOM     33  O   UNL     1      -0.879   6.431  -1.715  0.00  0.00    -0.241 OA
ATOM     34  O   UNL     1      -2.186   4.834  -0.896  0.00  0.00    -0.241 OA
ENDBRANCH  25  32
ENDBRANCH  21  23
ENDBRANCH  18  19
ENDBRANCH   1  18
TORSDOF 8
