REMARK  Name = ZINC36496620
REMARK  21 active torsions:
REMARK  status: ('A' for Active; 'I' for Inactive)
REMARK    1  A    between atoms: C_1  and  C_2
REMARK    2  A    between atoms: C_2  and  C_3
REMARK    3  A    between atoms: C_3  and  C_4
REMARK    4  A    between atoms: C_4  and  C_5
REMARK    5  A    between atoms: C_5  and  C_7
REMARK    6  A    between atoms: C_5  and  C_9
REMARK    7  A    between atoms: C_7  and  C_8
REMARK    8  A    between atoms: N_11  and  C_12
REMARK    9  A    between atoms: N_11  and  C_18
REMARK   10  A    between atoms: C_12  and  C_13
REMARK   11  A    between atoms: C_18  and  C_20
REMARK   12  A    between atoms: C_18  and  C_23
REMARK   13  A    between atoms: C_21  and  C_22
REMARK   14  A    between atoms: N_25  and  C_26
REMARK   15  A    between atoms: C_26  and  C_27
REMARK   16  A    between atoms: C_26  and  C_28
REMARK   17  A    between atoms: C_26  and  C_29
REMARK   18  A    between atoms: C_29  and  C_30
REMARK   19  A    between atoms: C_30  and  C_31
REMARK   20  A    between atoms: C_30  and  C_32
REMARK   21  A    between atoms: C_30  and  C_33
REMARK                            x       y       z     vdW  Elec       q    Type
REMARK                         _______ _______ _______ _____ _____    ______ ____
ROOT
ATOM      1  C   UNL     1       2.464  -4.465   2.200  0.00  0.00    +0.220 C 
ATOM      2  O   UNL     1       2.696  -5.216   1.276  0.00  0.00    -0.275 OA
ATOM      3  N   UNL     1       2.431  -4.940   3.461  0.00  0.00    -0.279 N 
ENDROOT
BRANCH   1   4
ATOM      4  C   UNL     1       2.213  -3.003   1.938  0.00  0.00    +0.075 C 
BRANCH   4   5
ATOM      5  C   UNL     1       0.910  -2.842   1.151  0.00  0.00    +0.009 C 
ATOM      6  C   UNL     1      -0.269  -3.284   2.021  0.00  0.00    +0.004 C 
ENDBRANCH   4   5
BRANCH   4   7
ATOM      7  C   UNL     1       3.373  -2.423   1.127  0.00  0.00    +0.013 C 
BRANCH   7   8
ATOM      8  C   UNL     1       3.180  -0.914   0.968  0.00  0.00    +0.000 C 
BRANCH   8  10
ATOM      9  C   UNL     1       4.148   1.176  -0.002  0.00  0.00    +0.004 C 
ATOM     10  C   UNL     1       4.341  -0.334   0.157  0.00  0.00    -0.003 C 
ENDBRANCH   8  10
ENDBRANCH   7   8
ENDBRANCH   4   7
ENDBRANCH   1   4
BRANCH   3  11
ATOM     11  C   UNL     1       2.266  -4.016   4.587  0.00  0.00    +0.183 C 
BRANCH  11  12
ATOM     12  C   UNL     1       3.612  -3.470   4.989  0.00  0.00    +0.122 A 
ATOM     13  C   UNL     1       4.141  -2.302   4.580  0.00  0.00    +0.046 A 
ATOM     14  C   UNL     1       5.408  -2.188   5.197  0.00  0.00    +0.041 A 
ATOM     15  C   UNL     1       5.577  -3.292   5.946  0.00  0.00    +0.195 A 
ATOM     16  O   UNL     1       4.484  -4.062   5.821  0.00  0.00    -0.466 OA
ENDBRANCH  11  12
ENDBRANCH   3  11
BRANCH   3  17
ATOM     17  C   UNL     1       2.559  -6.378   3.707  0.00  0.00    +0.185 C 
BRANCH  17  18
ATOM     18  C   UNL     1       1.272  -6.906   4.285  0.00  0.00    +0.238 C 
ATOM     19  O   UNL     1       0.350  -6.149   4.504  0.00  0.00    -0.273 OA
ATOM     20  N   UNL     1       1.145  -8.220   4.558  0.00  0.00    -0.308 N 
ATOM     21  H   UNL     1       1.900  -8.816   4.437  0.00  0.00    +0.149 HD
BRANCH  20  22
ATOM     22  C   UNL     1      -0.135  -8.747   5.040  0.00  0.00    +0.030 C 
ATOM     23  C   UNL     1      -0.447  -8.152   6.414  0.00  0.00    +0.031 C 
ATOM     24  C   UNL     1      -1.244  -8.370   4.056  0.00  0.00    +0.031 C 
BRANCH  22  25
ATOM     25  C   UNL     1      -0.049 -10.271   5.152  0.00  0.00    +0.031 C 
BRANCH  25  26
ATOM     26  C   UNL     1       0.056 -10.880   3.752  0.00  0.00    -0.036 C 
ATOM     27  C   UNL     1       1.042 -10.065   2.913  0.00  0.00    +0.010 C 
ATOM     28  C   UNL     1       0.549 -12.324   3.860  0.00  0.00    +0.010 C 
ATOM     29  C   UNL     1      -1.320 -10.860   3.083  0.00  0.00    +0.010 C 
ENDBRANCH  25  26
ENDBRANCH  22  25
ENDBRANCH  20  22
ENDBRANCH  17  18
BRANCH  17  30
ATOM     30  C   UNL     1       3.684  -6.624   4.679  0.00  0.00    +0.000 C 
ATOM     31  C   UNL     1       4.753  -7.277   4.293  0.00  0.00    -0.032 C 
ATOM     32  C   UNL     1       4.856  -7.782   2.878  0.00  0.00    +0.035 C 
ENDBRANCH  17  30
ENDBRANCH   3  17
TORSDOF 13
