REMARK  Name = ZINC11628363
REMARK  9 active torsions:
REMARK  status: ('A' for Active; 'I' for Inactive)
REMARK    1  A    between atoms: C_1  and  C_2
REMARK    2  A    between atoms: C_2  and  C_4
REMARK    3  A    between atoms: C_2  and  N_43
REMARK    4  A    between atoms: C_7  and  C_9
REMARK    5  A    between atoms: N_11  and  C_12
REMARK    6  A    between atoms: C_15  and  C_18
REMARK    7  A    between atoms: C_18  and  C_19
REMARK    8  A    between atoms: C_18  and  C_20
REMARK    9  A    between atoms: C_18  and  C_21
REMARK                            x       y       z     vdW  Elec       q    Type
REMARK                         _______ _______ _______ _____ _____    ______ ____
ROOT
ATOM      1  C   UNL     1       3.659   1.825  -2.886  0.00  0.00    +0.284 C 
ATOM      2  O   UNL     1       4.572   2.554  -2.547  0.00  0.00    -0.266 OA
ATOM      3  N   UNL     1       3.854   0.903  -3.849  0.00  0.00    -0.279 N 
ATOM      4  H   UNL     1       3.147   0.278  -4.072  0.00  0.00    +0.155 HD
ENDROOT
BRANCH   3   5
ATOM      5  C   UNL     1       5.077   0.847  -4.525  0.00  0.00    +0.034 A 
ATOM      6  C   UNL     1       5.113   0.501  -5.870  0.00  0.00    +0.023 A 
ATOM      7  C   UNL     1       6.322   0.451  -6.536  0.00  0.00    +0.006 A 
ATOM      8  C   UNL     1       7.496   0.735  -5.863  0.00  0.00    -0.042 A 
ATOM      9  C   UNL     1       7.464   1.075  -4.523  0.00  0.00    +0.006 A 
ATOM     10  C   UNL     1       6.258   1.131  -3.852  0.00  0.00    +0.023 A 
BRANCH   8  11
ATOM     11  C   UNL     1       8.814   0.675  -6.592  0.00  0.00    -0.013 C 
ATOM     12  C   UNL     1       9.719  -0.363  -5.925  0.00  0.00    +0.015 C 
ATOM     13  C   UNL     1       8.572   0.279  -8.050  0.00  0.00    +0.015 C 
ATOM     14  C   UNL     1       9.488   2.047  -6.542  0.00  0.00    +0.015 C 
ENDBRANCH   8  11
ENDBRANCH   3   5
BRANCH   1  18
ATOM     15  C   UNL     1       0.236   1.604  -1.749  0.00  0.00    +0.091 A 
ATOM     16  C   UNL     1       0.661   2.612  -0.956  0.00  0.00    +0.044 A 
ATOM     17  C   UNL     1       2.012   2.839  -1.264  0.00  0.00    +0.055 A 
ATOM     18  C   UNL     1       2.345   1.951  -2.247  0.00  0.00    +0.190 A 
ATOM     19  O   UNL     1       1.253   1.210  -2.528  0.00  0.00    -0.457 OA
BRANCH  15  21
ATOM     20  C   UNL     1      -1.168  -0.280  -0.959  0.00  0.00    -0.006 C 
ATOM     21  C   UNL     1      -1.154   1.023  -1.760  0.00  0.00    -0.011 C 
BRANCH  21  24
ATOM     22  H   UNL     1      -1.620   1.604  -3.680  0.00  0.00    -0.089 HD
ATOM     23  H   UNL     1      -0.931   0.094  -3.584  0.00  0.00    -0.089 HD
ATOM     24  N   UNL     1      -1.582   0.740  -3.142  0.00  0.00    +0.384 N 
ATOM     25  H   UNL     1      -2.517   0.315  -3.125  0.00  0.00    -0.089 HD
ENDBRANCH  21  24
ENDBRANCH  15  21
ENDBRANCH   1  18
TORSDOF 5
