REMARK  Name = ZINC09951668
REMARK  4 active torsions:
REMARK  status: ('A' for Active; 'I' for Inactive)
REMARK    1  A    between atoms: C_1  and  C_2
REMARK    2  A    between atoms: N_11  and  C_15
REMARK    3  A    between atoms: C_15  and  C_16
REMARK    4  A    between atoms: C_19  and  C_21
REMARK                            x       y       z     vdW  Elec       q    Type
REMARK                         _______ _______ _______ _____ _____    ______ ____
ROOT
ATOM      1  C   UNL     1      -4.014   2.533  -4.271  0.00  0.00    +0.010 C 
ATOM      2  C   UNL     1      -5.510   2.470  -4.586  0.00  0.00    +0.018 C 
ATOM      3  C   UNL     1      -5.725   1.696  -5.889  0.00  0.00    +0.006 C 
ATOM      4  C   UNL     1      -7.222   1.616  -6.192  0.00  0.00    +0.000 C 
ATOM      5  C   UNL     1      -7.937   0.887  -5.052  0.00  0.00    +0.003 C 
ATOM      6  C   UNL     1      -7.730   1.658  -3.746  0.00  0.00    +0.035 C 
ATOM      7  C   UNL     1      -6.239   1.764  -3.448  0.00  0.00    +0.115 C 
ATOM      8  C   UNL     1      -6.016   2.491  -2.142  0.00  0.00    +0.247 C 
ATOM      9  O   UNL     1      -6.335   3.629  -1.871  0.00  0.00    -0.273 OA
ATOM     10  N   UNL     1      -5.385   1.608  -1.341  0.00  0.00    -0.218 N 
ATOM     11  C   UNL     1      -5.189   0.436  -1.957  0.00  0.00    +0.310 C 
ATOM     12  O   UNL     1      -4.644  -0.518  -1.438  0.00  0.00    -0.252 OA
ATOM     13  N   UNL     1      -5.665   0.432  -3.217  0.00  0.00    -0.285 N 
ATOM     14  H   UNL     1      -5.633  -0.304  -3.848  0.00  0.00    +0.151 HD
ENDROOT
BRANCH  10  15
ATOM     15  C   UNL     1      -4.970   1.894   0.035  0.00  0.00    +0.173 C 
BRANCH  15  16
ATOM     16  C   UNL     1      -3.570   2.452   0.032  0.00  0.00    +0.067 A 
ATOM     17  C   UNL     1      -3.374   3.796   0.037  0.00  0.00    +0.072 A 
ATOM     18  S   UNL     1      -1.587   3.869   0.029  0.00  0.00    -0.075 S 
ATOM     19  C   UNL     1      -1.296   2.105   0.020  0.00  0.00    +0.109 A 
ATOM     20  N   UNL     1      -2.538   1.639   0.018  0.00  0.00    -0.242 NA
BRANCH  19  21
ATOM     21  C   UNL     1      -0.017   1.365   0.009  0.00  0.00    +0.014 A 
ATOM     22  C   UNL     1       1.200   2.044   0.002  0.00  0.00    +0.018 A 
ATOM     23  C   UNL     1       2.349   1.332  -0.013  0.00  0.00    +0.046 A 
ATOM     24  S   UNL     1       1.753  -0.350  -0.017  0.00  0.00    -0.104 S 
ATOM     25  C   UNL     1       0.002  -0.004   0.002  0.00  0.00    +0.055 A 
ENDBRANCH  19  21
ENDBRANCH  15  16
ENDBRANCH  10  15
TORSDOF 3
