REMARK  Name = ZINC38108024
REMARK  4 active torsions:
REMARK  status: ('A' for Active; 'I' for Inactive)
REMARK    1  A    between atoms: C_3  and  N_11
REMARK    2  A    between atoms: C_6  and  N_7
REMARK    3  A    between atoms: N_11  and  S_12
REMARK    4  A    between atoms: S_12  and  C_15
REMARK                            x       y       z     vdW  Elec       q    Type
REMARK                         _______ _______ _______ _____ _____    ______ ____
ROOT
ATOM      1  C   UNL     1      -0.013   1.374   0.194  0.00  0.00    +0.025 A 
ATOM      2  C   UNL     1       1.172   2.083   0.193  0.00  0.00    +0.028 A 
ATOM      3  C   UNL     1       2.377   1.420   0.005  0.00  0.00    +0.074 A 
ATOM      4  C   UNL     1       2.391   0.044  -0.181  0.00  0.00    +0.028 A 
ATOM      5  C   UNL     1       1.206  -0.665  -0.180  0.00  0.00    +0.025 A 
ATOM      6  C   UNL     1       0.001  -0.002   0.008  0.00  0.00    +0.035 A 
ENDROOT
BRANCH   6   7
ATOM      7  N   UNL     1      -1.202  -0.721   0.010  0.00  0.00    -0.270 N 
ATOM      8  C   UNL     1      -2.328  -0.155  -0.469  0.00  0.00    +0.301 C 
ATOM      9  O   UNL     1      -2.281   0.943  -0.991  0.00  0.00    -0.253 OA
ATOM     10  N   UNL     1      -3.504  -0.804  -0.369  0.00  0.00    -0.313 N 
ATOM     11  H   UNL     1      -1.225  -1.627   0.356  0.00  0.00    +0.156 HD
ATOM     12  H   UNL     1      -3.542  -1.679   0.047  0.00  0.00    +0.146 HD
ATOM     13  H   UNL     1      -4.314  -0.396  -0.714  0.00  0.00    +0.146 HD
ENDBRANCH   6   7
BRANCH   3  14
ATOM     14  N   UNL     1       3.578   2.138   0.003  0.00  0.00    -0.098 NA
BRANCH  14  15
ATOM     15  S   UNL     1       5.016   1.347  -0.221  0.00  0.00    +0.094 S 
ATOM     16  O   UNL     1       5.199   0.510   0.912  0.00  0.00    -0.148 OA
ATOM     17  O   UNL     1       4.998   0.840  -1.548  0.00  0.00    -0.148 OA
BRANCH  15  18
ATOM     18  C   UNL     1       6.292   2.560  -0.163  0.00  0.00    +0.146 A 
ATOM     19  C   UNL     1       6.706   3.211  -1.315  0.00  0.00    +0.144 A 
ATOM     20  N   UNL     1       7.667   4.116  -1.233  0.00  0.00    -0.224 NA
ATOM     21  C   UNL     1       8.230   4.402  -0.075  0.00  0.00    +0.223 A 
ATOM     22  N   UNL     1       7.862   3.803   1.042  0.00  0.00    -0.224 NA
ATOM     23  C   UNL     1       6.903   2.891   1.037  0.00  0.00    +0.144 A 
ATOM     24 CL   UNL     1       9.488   5.596  -0.018  0.00  0.00    -0.041 Cl
ENDBRANCH  15  18
ENDBRANCH  14  15
ENDBRANCH   3  14
TORSDOF 4
