REMARK  Name = ZINC15619198
REMARK  11 active torsions:
REMARK  status: ('A' for Active; 'I' for Inactive)
REMARK    1  A    between atoms: C_1  and  C_2
REMARK    2  A    between atoms: C_2  and  N_3
REMARK    3  A    between atoms: N_3  and  C_4
REMARK    4  A    between atoms: C_4  and  C_5
REMARK    5  A    between atoms: C_6  and  C_8
REMARK    6  A    between atoms: C_12  and  N_14
REMARK    7  A    between atoms: C_15  and  C_17
REMARK    8  A    between atoms: C_17  and  S_18
REMARK    9  A    between atoms: S_18  and  C_19
REMARK   10  A    between atoms: C_21  and  C_29
REMARK   11  A    between atoms: C_22  and  C_28
REMARK                            x       y       z     vdW  Elec       q    Type
REMARK                         _______ _______ _______ _____ _____    ______ ____
ROOT
ATOM      1  N   UNL     1       0.909  -4.217  -4.244  0.00  0.00    -0.285 N 
ATOM      2  C   UNL     1       1.571  -3.447  -5.130  0.00  0.00    +0.227 C 
ATOM      3  O   UNL     1       1.988  -2.358  -4.795  0.00  0.00    -0.275 OA
ATOM      4  H   UNL     1       0.643  -5.117  -4.487  0.00  0.00    +0.155 HD
ENDROOT
BRANCH   1   9
ATOM      5  C   UNL     1       0.153  -1.859  -1.513  0.00  0.00    +0.039 A 
ATOM      6  C   UNL     1       0.007  -2.743  -0.443  0.00  0.00    +0.013 A 
ATOM      7  C   UNL     1       0.151  -4.100  -0.644  0.00  0.00    +0.003 A 
ATOM      8  C   UNL     1       0.452  -4.589  -1.902  0.00  0.00    +0.023 A 
ATOM      9  C   UNL     1       0.605  -3.717  -2.973  0.00  0.00    +0.034 A 
ATOM     10  C   UNL     1       0.456  -2.352  -2.782  0.00  0.00    +0.036 A 
BRANCH   5  12
ATOM     11  N   UNL     1       0.170   0.122  -0.073  0.00  0.00    -0.298 N 
ATOM     12  C   UNL     1      -0.007  -0.404  -1.302  0.00  0.00    +0.247 C 
ATOM     13  O   UNL     1      -0.299   0.317  -2.235  0.00  0.00    -0.270 OA
BRANCH  11  15
ATOM     14  C   UNL     1       1.264   2.309  -0.085  0.00  0.00    +0.024 C 
ATOM     15  C   UNL     1      -0.046   1.554   0.149  0.00  0.00    +0.104 C 
ENDBRANCH  11  15
BRANCH  11  16
ATOM     16  C   UNL     1       0.579  -0.739   1.040  0.00  0.00    +0.104 C 
ATOM     17  C   UNL     1      -0.626  -1.017   1.939  0.00  0.00    +0.024 C 
ENDBRANCH  11  16
ENDBRANCH   5  12
ENDBRANCH   1   9
BRANCH   2  18
ATOM     18  C   UNL     1       1.794  -3.939  -6.537  0.00  0.00    +0.171 C 
BRANCH  18  19
ATOM     19  S   UNL     1       2.706  -2.689  -7.476  0.00  0.00    -0.096 S 
BRANCH  19  20
ATOM     20  C   UNL     1       2.823  -3.502  -9.035  0.00  0.00    +0.109 A 
ATOM     21  C   UNL     1       3.479  -2.872 -10.129  0.00  0.00    +0.043 A 
ATOM     22  C   UNL     1       4.134  -1.577 -10.198  0.00  0.00    -0.029 A 
ATOM     23  C   UNL     1       4.699  -1.190 -11.352  0.00  0.00    -0.008 A 
ATOM     24  S   UNL     1       4.394  -2.564 -12.446  0.00  0.00    -0.074 S 
ATOM     25  C   UNL     1       3.516  -3.620 -11.325  0.00  0.00    +0.113 A 
ATOM     26  N   UNL     1       2.964  -4.816 -11.405  0.00  0.00    -0.228 NA
ATOM     27  C   UNL     1       2.365  -5.346 -10.357  0.00  0.00    +0.223 A 
ATOM     28  N   UNL     1       2.297  -4.705  -9.204  0.00  0.00    -0.229 NA
ATOM     29  C   UNL     1       5.421   0.099 -11.651  0.00  0.00    +0.052 C 
ATOM     30  C   UNL     1       4.174  -0.677  -8.990  0.00  0.00    +0.045 C 
ENDBRANCH  19  20
ENDBRANCH  18  19
ENDBRANCH   2  18
TORSDOF 7
