REMARK  Name = ZINC46560489
REMARK  11 active torsions:
REMARK  status: ('A' for Active; 'I' for Inactive)
REMARK    1  A    between atoms: C_1  and  C_2
REMARK    2  A    between atoms: C_2  and  C_3
REMARK    3  A    between atoms: C_8  and  N_9
REMARK    4  A    between atoms: C_10  and  C_12
REMARK    5  A    between atoms: C_12  and  N_13
REMARK    6  A    between atoms: N_13  and  C_14
REMARK    7  A    between atoms: N_13  and  C_15
REMARK    8  A    between atoms: C_15  and  C_17
REMARK    9  A    between atoms: C_15  and  C_18
REMARK   10  A    between atoms: N_23  and  C_24
REMARK   11  A    between atoms: C_24  and  C_25
REMARK                            x       y       z     vdW  Elec       q    Type
REMARK                         _______ _______ _______ _____ _____    ______ ____
ROOT
ATOM      1  N   UNL     1       6.346  -0.687   1.034  0.00  0.00    +0.391 N 
ATOM      2  C   UNL     1       6.351  -2.155   1.087  0.00  0.00    -0.094 C 
ATOM      3  H   UNL     1       6.739  -0.381   0.157  0.00  0.00    -0.080 HD
ENDROOT
BRANCH   1   4
ATOM      4  C   UNL     1       7.149  -0.154   2.143  0.00  0.00    +0.017 C 
ATOM      5  C   UNL     1       7.034   1.371   2.170  0.00  0.00    -0.004 C 
BRANCH   4   6
ATOM      6  C   UNL     1       8.591  -0.546   1.952  0.00  0.00    +0.207 C 
ATOM      7  O   UNL     1       8.963  -0.989   0.887  0.00  0.00    -0.277 OA
ATOM      8  N   UNL     1       9.469  -0.403   2.965  0.00  0.00    -0.242 N 
ATOM      9  C   UNL     1      10.759  -0.753   2.794  0.00  0.00    +0.306 C 
ATOM     10  O   UNL     1      11.131  -1.198   1.726  0.00  0.00    -0.252 OA
ATOM     11  N   UNL     1      11.636  -0.610   3.808  0.00  0.00    -0.291 N 
ATOM     12  H   UNL     1       9.171  -0.048   3.818  0.00  0.00    +0.159 HD
ATOM     13  H   UNL     1      11.338  -0.256   4.660  0.00  0.00    +0.151 HD
BRANCH  11  14
ATOM     14  C   UNL     1      13.038  -0.991   3.622  0.00  0.00    +0.219 C 
BRANCH  14  15
ATOM     15  C   UNL     1      13.813  -0.731   4.915  0.00  0.00    +0.405 C 
ATOM     16  F   UNL     1      13.258  -1.488   5.952  0.00  0.00    -0.169 F 
ATOM     17  F   UNL     1      15.152  -1.094   4.738  0.00  0.00    -0.169 F 
ATOM     18  F   UNL     1      13.738   0.628   5.238  0.00  0.00    -0.169 F 
ENDBRANCH  14  15
ENDBRANCH  11  14
ENDBRANCH   4   6
ENDBRANCH   1   4
BRANCH   1  19
ATOM     19  C   UNL     1       4.965  -0.198   1.150  0.00  0.00    +0.020 C 
BRANCH  19  21
ATOM     20  N   UNL     1       2.872  -0.307  -0.162  0.00  0.00    -0.287 N 
ATOM     21  C   UNL     1       4.172  -0.642  -0.051  0.00  0.00    +0.201 C 
ATOM     22  O   UNL     1       4.705  -1.302  -0.919  0.00  0.00    -0.278 OA
ATOM     23  H   UNL     1       2.466   0.283   0.492  0.00  0.00    +0.155 HD
BRANCH  20  29
ATOM     24  C   UNL     1       0.763  -1.101  -1.030  0.00  0.00    -0.026 A 
ATOM     25  C   UNL     1       0.009  -1.593  -2.079  0.00  0.00    +0.005 A 
ATOM     26  C   UNL     1       0.594  -1.800  -3.315  0.00  0.00    +0.000 A 
ATOM     27  C   UNL     1       1.934  -1.516  -3.506  0.00  0.00    +0.002 A 
ATOM     28  C   UNL     1       2.692  -1.024  -2.462  0.00  0.00    +0.023 A 
ATOM     29  C   UNL     1       2.107  -0.810  -1.220  0.00  0.00    +0.036 A 
BRANCH  24  31
ATOM     30  C   UNL     1      -0.326   0.582   0.429  0.00  0.00    +0.009 C 
ATOM     31  C   UNL     1       0.125  -0.876   0.316  0.00  0.00    +0.033 C 
ENDBRANCH  24  31
ENDBRANCH  20  29
ENDBRANCH  19  21
ENDBRANCH   1  19
TORSDOF 8
