REMARK  Name = ZINC00865488
REMARK  2 active torsions:
REMARK  status: ('A' for Active; 'I' for Inactive)
REMARK    1  A    between atoms: N_9  and  N_12
REMARK    2  A    between atoms: C_13  and  C_15
REMARK                            x       y       z     vdW  Elec       q    Type
REMARK                         _______ _______ _______ _____ _____    ______ ____
ROOT
ATOM      1  C   UNL     1       5.023   4.563  -0.689  0.00  0.00    +0.001 A 
ATOM      2  C   UNL     1       5.219   4.249   0.643  0.00  0.00    +0.001 A 
ATOM      3  C   UNL     1       4.292   3.478   1.327  0.00  0.00    +0.014 A 
ATOM      4  C   UNL     1       3.162   3.018   0.669  0.00  0.00    +0.051 A 
ATOM      5  C   UNL     1       2.963   3.338  -0.689  0.00  0.00    +0.051 A 
ATOM      6  C   UNL     1       3.898   4.111  -1.359  0.00  0.00    +0.014 A 
ATOM      7  C   UNL     1       1.684   2.702  -1.071  0.00  0.00    +0.271 C 
ATOM      8  O   UNL     1       1.169   2.752  -2.169  0.00  0.00    -0.268 OA
ATOM      9  N   UNL     1       1.187   2.061   0.002  0.00  0.00    -0.147 N 
ATOM     10  C   UNL     1       1.996   2.203   1.068  0.00  0.00    +0.271 C 
ATOM     11  O   UNL     1       1.800   1.737   2.172  0.00  0.00    -0.268 OA
ENDROOT
BRANCH   9  12
ATOM     12  N   UNL     1      -0.016   1.344   0.009  0.00  0.00    -0.220 N 
ATOM     13  C   UNL     1       0.002  -0.004   0.002  0.00  0.00    +0.262 C 
ATOM     14  O   UNL     1       1.063  -0.598  -0.011  0.00  0.00    -0.269 OA
ATOM     15  H   UNL     1      -0.863   1.817   0.016  0.00  0.00    +0.174 HD
BRANCH  13  16
ATOM     16  C   UNL     1      -1.268  -0.760   0.010  0.00  0.00    +0.051 A 
ATOM     17  C   UNL     1      -2.488  -0.082   0.031  0.00  0.00    +0.014 A 
ATOM     18  C   UNL     1      -3.669  -0.794   0.033  0.00  0.00    +0.001 A 
ATOM     19  C   UNL     1      -3.647  -2.178   0.026  0.00  0.00    +0.001 A 
ATOM     20  C   UNL     1      -2.442  -2.857   0.010  0.00  0.00    +0.015 A 
ATOM     21  C   UNL     1      -1.252  -2.157   0.002  0.00  0.00    +0.026 A 
ATOM     22  I   UNL     1       0.572  -3.187  -0.020  0.00  0.00    -0.043 I 
ENDBRANCH  13  16
ENDBRANCH   9  12
TORSDOF 2
