REMARK  Name = ZINC44803449
REMARK  11 active torsions:
REMARK  status: ('A' for Active; 'I' for Inactive)
REMARK    1  A    between atoms: C_1  and  C_2
REMARK    2  A    between atoms: C_4  and  C_29
REMARK    3  A    between atoms: C_5  and  N_9
REMARK    4  A    between atoms: C_10  and  C_12
REMARK    5  A    between atoms: C_12  and  C_14
REMARK    6  A    between atoms: C_12  and  N_15
REMARK    7  A    between atoms: N_15  and  C_16
REMARK    8  A    between atoms: C_16  and  C_18
REMARK    9  A    between atoms: C_16  and  C_19
REMARK   10  A    between atoms: C_22  and  O_25
REMARK   11  A    between atoms: O_25  and  C_26
REMARK                            x       y       z     vdW  Elec       q    Type
REMARK                         _______ _______ _______ _____ _____    ______ ____
ROOT
ATOM      1  C   UNL     1       0.587  -6.450   0.993  0.00  0.00    +0.138 C 
ATOM      2  C   UNL     1       1.534  -6.998  -0.077  0.00  0.00    +0.034 C 
ENDROOT
BRANCH   1   4
ATOM      3  N   UNL     1       0.139  -4.347  -0.230  0.00  0.00    -0.283 N 
ATOM      4  C   UNL     1       0.548  -4.946   0.906  0.00  0.00    +0.234 C 
ATOM      5  O   UNL     1       0.885  -4.274   1.858  0.00  0.00    -0.274 OA
ATOM      6  H   UNL     1      -0.180  -4.882  -0.973  0.00  0.00    +0.155 HD
BRANCH   3  11
ATOM      7  C   UNL     1       0.275   1.310  -0.661  0.00  0.00    +0.044 C 
ATOM      8  C   UNL     1       0.240  -0.193  -0.546  0.00  0.00    -0.049 A 
ATOM      9  C   UNL     1      -0.852  -0.895  -1.024  0.00  0.00    +0.008 A 
ATOM     10  C   UNL     1      -0.888  -2.272  -0.920  0.00  0.00    -0.028 A 
ATOM     11  C   UNL     1       0.173  -2.951  -0.337  0.00  0.00    +0.055 A 
ATOM     12  C   UNL     1       1.268  -2.243   0.142  0.00  0.00    +0.063 A 
ATOM     13  C   UNL     1       1.301  -0.866   0.030  0.00  0.00    +0.025 A 
ATOM     14 CL   UNL     1       2.598  -3.087   0.873  0.00  0.00    -0.082 Cl
ATOM     15  C   UNL     1      -2.078  -3.036  -1.440  0.00  0.00    +0.046 C 
ENDBRANCH   3  11
ENDBRANCH   1   4
BRANCH   1  16
ATOM     16  N   UNL     1       1.065  -6.851   2.322  0.00  0.00    -0.299 NA
ATOM     17  H   UNL     1       1.562  -7.729   2.279  0.00  0.00    +0.123 HD
BRANCH  16  18
ATOM     18  C   UNL     1      -0.045  -6.922   3.282  0.00  0.00    +0.081 C 
ATOM     19  C   UNL     1      -0.708  -8.298   3.194  0.00  0.00    +0.029 C 
BRANCH  18  20
ATOM     20  C   UNL     1       0.482  -6.706   4.677  0.00  0.00    -0.031 A 
ATOM     21  C   UNL     1       1.688  -7.268   5.053  0.00  0.00    +0.009 A 
ATOM     22  C   UNL     1       2.173  -7.072   6.332  0.00  0.00    +0.046 A 
ATOM     23  C   UNL     1       1.449  -6.311   7.238  0.00  0.00    +0.127 A 
ATOM     24  C   UNL     1       0.240  -5.748   6.858  0.00  0.00    +0.046 A 
ATOM     25  C   UNL     1      -0.239  -5.943   5.577  0.00  0.00    +0.009 A 
BRANCH  23  26
ATOM     26  O   UNL     1       1.924  -6.117   8.497  0.00  0.00    -0.434 OA
BRANCH  26  27
ATOM     27  C   UNL     1       1.126  -5.323   9.376  0.00  0.00    +0.541 C 
ATOM     28  F   UNL     1       0.967  -4.043   8.834  0.00  0.00    -0.166 F 
ATOM     29  F   UNL     1      -0.128  -5.921   9.536  0.00  0.00    -0.166 F 
ENDBRANCH  26  27
ENDBRANCH  23  26
ENDBRANCH  18  20
ENDBRANCH  16  18
ENDBRANCH   1  16
TORSDOF 7
