REMARK  Name = ZINC53617962
REMARK  12 active torsions:
REMARK  status: ('A' for Active; 'I' for Inactive)
REMARK    1  A    between atoms: C_1  and  C_2
REMARK    2  A    between atoms: C_2  and  C_3
REMARK    3  A    between atoms: C_2  and  C_4
REMARK    4  A    between atoms: C_2  and  C_5
REMARK    5  A    between atoms: C_5  and  C_7
REMARK    6  A    between atoms: C_5  and  N_13
REMARK    7  A    between atoms: N_13  and  C_14
REMARK    8  A    between atoms: C_14  and  C_15
REMARK    9  A    between atoms: N_17  and  C_18
REMARK   10  A    between atoms: C_23  and  S_24
REMARK   11  A    between atoms: S_24  and  C_25
REMARK   12  A    between atoms: C_25  and  C_26
REMARK                            x       y       z     vdW  Elec       q    Type
REMARK                         _______ _______ _______ _____ _____    ______ ____
ROOT
ATOM      1  C   UNL     1      -2.030  -0.221  -3.764  0.00  0.00    +0.200 C 
ATOM      2  O   UNL     1      -1.441   0.456  -4.581  0.00  0.00    -0.278 OA
ATOM      3  N   UNL     1      -3.323  -0.546  -3.964  0.00  0.00    -0.286 N 
ATOM      4  H   UNL     1      -3.813  -1.028  -3.280  0.00  0.00    +0.155 HD
ENDROOT
BRANCH   3   5
ATOM      5  C   UNL     1      -3.958  -0.188  -5.161  0.00  0.00    +0.047 A 
ATOM      6  C   UNL     1      -3.240  -0.155  -6.346  0.00  0.00    +0.024 A 
ATOM      7  C   UNL     1      -3.869   0.198  -7.526  0.00  0.00    +0.002 A 
ATOM      8  C   UNL     1      -5.214   0.520  -7.528  0.00  0.00    +0.001 A 
ATOM      9  C   UNL     1      -5.938   0.490  -6.351  0.00  0.00    +0.016 A 
ATOM     10  C   UNL     1      -5.316   0.131  -5.163  0.00  0.00    +0.030 A 
BRANCH  10  11
ATOM     11  S   UNL     1      -6.238   0.085  -3.662  0.00  0.00    -0.114 S 
BRANCH  11  12
ATOM     12  C   UNL     1      -7.914   0.565  -4.162  0.00  0.00    +0.169 C 
BRANCH  12  13
ATOM     13  C   UNL     1      -8.817   0.566  -2.955  0.00  0.00    +0.221 C 
ATOM     14  O   UNL     1      -8.373   0.272  -1.865  0.00  0.00    -0.275 OA
ATOM     15  N   UNL     1     -10.118   0.893  -3.087  0.00  0.00    -0.329 N 
ATOM     16  H   UNL     1     -10.473   1.129  -3.958  0.00  0.00    +0.145 HD
ATOM     17  H   UNL     1     -10.699   0.894  -2.310  0.00  0.00    +0.145 HD
ENDBRANCH  12  13
ENDBRANCH  11  12
ENDBRANCH  10  11
ENDBRANCH   3   5
BRANCH   1  18
ATOM     18  C   UNL     1      -1.316  -0.698  -2.525  0.00  0.00    +0.016 C 
BRANCH  18  19
ATOM     19  N   UNL     1       0.071  -0.214  -2.543  0.00  0.00    +0.390 N 
ATOM     20  H   UNL     1       0.075   0.789  -2.648  0.00  0.00    -0.084 HD
ATOM     21  H   UNL     1       0.565  -0.636  -3.315  0.00  0.00    -0.084 HD
BRANCH  19  22
ATOM     22  C   UNL     1       0.732  -0.577  -1.282  0.00  0.00    -0.035 C 
BRANCH  22  23
ATOM     23  C   UNL     1       0.845  -2.076  -1.187  0.00  0.00    -0.061 A 
ATOM     24  C   UNL     1       1.173  -2.817  -2.307  0.00  0.00    +0.002 A 
ATOM     25  C   UNL     1       1.277  -4.192  -2.220  0.00  0.00    +0.000 A 
ATOM     26  C   UNL     1       1.053  -4.828  -1.013  0.00  0.00    +0.000 A 
ATOM     27  C   UNL     1       0.725  -4.087   0.107  0.00  0.00    +0.000 A 
ATOM     28  C   UNL     1       0.625  -2.711   0.021  0.00  0.00    +0.002 A 
ENDBRANCH  22  23
BRANCH  22  30
ATOM     29  C   UNL     1       2.909  -0.376  -2.490  0.00  0.00    +0.009 C 
ATOM     30  C   UNL     1       2.130   0.044  -1.242  0.00  0.00    -0.046 C 
ATOM     31  C   UNL     1       2.867  -0.441   0.008  0.00  0.00    +0.009 C 
ATOM     32  C   UNL     1       2.010   1.569  -1.204  0.00  0.00    +0.009 C 
ENDBRANCH  22  30
ENDBRANCH  19  22
ENDBRANCH  18  19
ENDBRANCH   1  18
TORSDOF 9
