REMARK  Name = ZINC13018610
REMARK  14 active torsions:
REMARK  status: ('A' for Active; 'I' for Inactive)
REMARK    1  A    between atoms: C_1  and  C_2
REMARK    2  A    between atoms: C_2  and  O_3
REMARK    3  A    between atoms: O_3  and  C_4
REMARK    4  A    between atoms: C_7  and  C_10
REMARK    5  A    between atoms: C_13  and  S_18
REMARK    6  A    between atoms: N_14  and  C_15
REMARK    7  A    between atoms: C_15  and  C_16
REMARK    8  A    between atoms: S_18  and  C_19
REMARK    9  A    between atoms: C_19  and  C_21
REMARK   10  A    between atoms: C_19  and  C_22
REMARK   11  A    between atoms: N_27  and  C_28
REMARK   12  A    between atoms: C_28  and  C_29
REMARK   13  A    between atoms: C_28  and  C_30
REMARK   14  A    between atoms: C_28  and  C_31
REMARK                            x       y       z     vdW  Elec       q    Type
REMARK                         _______ _______ _______ _____ _____    ______ ____
ROOT
ATOM      1  C   UNL     1      -2.986   0.346   1.110  0.00  0.00    +0.165 A 
ATOM      2  N   UNL     1      -3.826  -0.548   0.642  0.00  0.00    -0.128 NA
ATOM      3  N   UNL     1      -3.943  -0.415  -0.631  0.00  0.00    -0.122 NA
ATOM      4  C   UNL     1      -3.190   0.575  -1.053  0.00  0.00    +0.193 A 
ATOM      5  N   UNL     1      -2.550   1.091   0.038  0.00  0.00    -0.291 N 
ENDROOT
BRANCH   1   9
ATOM      6  C   UNL     1      -1.834   0.847   5.169  0.00  0.00    +0.121 A 
ATOM      7  C   UNL     1      -2.993   0.147   4.860  0.00  0.00    +0.046 A 
ATOM      8  C   UNL     1      -3.370  -0.018   3.544  0.00  0.00    +0.015 A 
ATOM      9  C   UNL     1      -2.585   0.520   2.522  0.00  0.00    +0.020 A 
ATOM     10  C   UNL     1      -1.418   1.218   2.837  0.00  0.00    +0.015 A 
ATOM     11  C   UNL     1      -1.051   1.384   4.156  0.00  0.00    +0.046 A 
BRANCH   6  12
ATOM     12  O   UNL     1      -1.466   1.007   6.467  0.00  0.00    -0.492 OA
BRANCH  12  14
ATOM     13  C   UNL     1      -0.013   1.814   8.222  0.00  0.00    +0.048 C 
ATOM     14  C   UNL     1      -0.263   1.738   6.715  0.00  0.00    +0.225 C 
ENDBRANCH  12  14
ENDBRANCH   6  12
ENDBRANCH   1   9
BRANCH   5  15
ATOM     15  C   UNL     1      -1.603   2.208   0.063  0.00  0.00    +0.250 C 
BRANCH  15  16
ATOM     16  C   UNL     1      -0.205   1.685  -0.150  0.00  0.00    +0.375 C 
ATOM     17  O   UNL     1      -0.020   0.502  -0.307  0.00  0.00    -0.244 OA
ATOM     18  O   UNL     1       0.833   2.536  -0.171  0.00  0.00    -0.244 OA
ENDBRANCH  15  16
ENDBRANCH   5  15
BRANCH   4  19
ATOM     19  S   UNL     1      -3.031   1.131  -2.717  0.00  0.00    -0.073 S 
BRANCH  19  20
ATOM     20  C   UNL     1      -4.158  -0.020  -3.543  0.00  0.00    +0.137 C 
ATOM     21  C   UNL     1      -5.587   0.227  -3.055  0.00  0.00    +0.029 C 
BRANCH  20  22
ATOM     22  C   UNL     1      -4.092   0.194  -5.033  0.00  0.00    +0.233 C 
ATOM     23  O   UNL     1      -3.663   1.237  -5.477  0.00  0.00    -0.274 OA
ATOM     24  N   UNL     1      -4.510  -0.775  -5.872  0.00  0.00    -0.239 N 
ATOM     25  C   UNL     1      -4.451  -0.583  -7.205  0.00  0.00    +0.306 C 
ATOM     26  O   UNL     1      -4.021   0.463  -7.650  0.00  0.00    -0.252 OA
ATOM     27  N   UNL     1      -4.869  -1.552  -8.043  0.00  0.00    -0.294 N 
ATOM     28  H   UNL     1      -4.853  -1.609  -5.516  0.00  0.00    +0.159 HD
ATOM     29  H   UNL     1      -5.212  -2.386  -7.688  0.00  0.00    +0.151 HD
BRANCH  27  30
ATOM     30  C   UNL     1      -4.805  -1.344  -9.492  0.00  0.00    +0.028 C 
ATOM     31  C   UNL     1      -3.353  -1.096  -9.908  0.00  0.00    +0.031 C 
ATOM     32  C   UNL     1      -5.335  -2.587 -10.210  0.00  0.00    +0.031 C 
ATOM     33  C   UNL     1      -5.658  -0.132  -9.872  0.00  0.00    +0.031 C 
ENDBRANCH  27  30
ENDBRANCH  20  22
ENDBRANCH  19  20
ENDBRANCH   4  19
TORSDOF 9
