REMARK  Name = ZINC67245501
REMARK  8 active torsions:
REMARK  status: ('A' for Active; 'I' for Inactive)
REMARK    1  A    between atoms: C_1  and  C_2
REMARK    2  A    between atoms: C_2  and  C_3
REMARK    3  A    between atoms: C_2  and  C_4
REMARK    4  A    between atoms: C_7  and  N_10
REMARK    5  A    between atoms: C_11  and  C_13
REMARK    6  A    between atoms: C_18  and  S_19
REMARK    7  A    between atoms: S_19  and  N_22
REMARK    8  A    between atoms: N_22  and  C_23
REMARK                            x       y       z     vdW  Elec       q    Type
REMARK                         _______ _______ _______ _____ _____    ______ ____
ROOT
ATOM      1  C   UNL     1      -7.204  -3.078  -1.051  0.00  0.00    +0.101 A 
ATOM      2  C   UNL     1      -8.159  -2.823  -0.087  0.00  0.00    +0.120 A 
ATOM      3  N   UNL     1      -9.310  -3.371  -0.508  0.00  0.00    -0.282 N 
ATOM      4  N   UNL     1      -9.085  -3.979  -1.748  0.00  0.00    -0.152 NA
ATOM      5  H   UNL     1     -10.155  -3.350  -0.032  0.00  0.00    +0.188 HD
ATOM      6  C   UNL     1      -7.836  -3.806  -2.083  0.00  0.00    +0.232 A 
ENDROOT
BRANCH   1   8
ATOM      7  N   UNL     1      -5.320  -1.968   0.042  0.00  0.00    -0.281 N 
ATOM      8  C   UNL     1      -5.790  -2.662  -1.013  0.00  0.00    +0.253 C 
ATOM      9  O   UNL     1      -5.047  -2.946  -1.933  0.00  0.00    -0.270 OA
ATOM     10  H   UNL     1      -5.890  -1.807   0.810  0.00  0.00    +0.155 HD
BRANCH   7  14
ATOM     11  C   UNL     1      -1.418  -0.508   0.005  0.00  0.00    -0.045 A 
ATOM     12  C   UNL     1      -2.138  -0.585  -1.174  0.00  0.00    +0.006 A 
ATOM     13  C   UNL     1      -3.431  -1.068  -1.165  0.00  0.00    +0.023 A 
ATOM     14  C   UNL     1      -4.010  -1.478   0.030  0.00  0.00    +0.034 A 
ATOM     15  C   UNL     1      -3.284  -1.401   1.212  0.00  0.00    +0.023 A 
ATOM     16  C   UNL     1      -1.989  -0.921   1.195  0.00  0.00    +0.006 A 
BRANCH  11  18
ATOM     17  C   UNL     1       0.856  -0.856  -0.920  0.00  0.00    +0.012 C 
ATOM     18  C   UNL     1      -0.007   0.019  -0.009  0.00  0.00    +0.013 C 
ATOM     19  C   UNL     1      -0.005   1.457  -0.532  0.00  0.00    +0.012 C 
ENDBRANCH  11  18
ENDBRANCH   7  14
ENDBRANCH   1   8
BRANCH   6  20
ATOM     20  S   UNL     1      -7.071  -4.383  -3.562  0.00  0.00    +0.111 S 
ATOM     21  O   UNL     1      -7.345  -3.415  -4.565  0.00  0.00    -0.147 OA
ATOM     22  O   UNL     1      -5.748  -4.765  -3.212  0.00  0.00    -0.147 OA
BRANCH  20  23
ATOM     23  N   UNL     1      -7.860  -5.768  -4.013  0.00  0.00    -0.096 NA
BRANCH  23  24
ATOM     24  C   UNL     1      -7.464  -6.454  -5.165  0.00  0.00    +0.075 A 
ATOM     25  C   UNL     1      -6.406  -5.978  -5.929  0.00  0.00    +0.029 A 
ATOM     26  C   UNL     1      -6.017  -6.658  -7.066  0.00  0.00    +0.040 A 
ATOM     27  C   UNL     1      -6.680  -7.813  -7.445  0.00  0.00    +0.124 A 
ATOM     28  C   UNL     1      -7.735  -8.289  -6.685  0.00  0.00    +0.040 A 
ATOM     29  C   UNL     1      -8.125  -7.615  -5.544  0.00  0.00    +0.029 A 
ATOM     30  F   UNL     1      -6.298  -8.476  -8.559  0.00  0.00    -0.205 F 
ENDBRANCH  23  24
ENDBRANCH  20  23
ENDBRANCH   6  20
TORSDOF 6
