REMARK  Name = ZINC63625181
REMARK  5 active torsions:
REMARK  status: ('A' for Active; 'I' for Inactive)
REMARK    1  A    between atoms: C_4  and  C_7
REMARK    2  A    between atoms: C_7  and  C_8
REMARK    3  A    between atoms: C_8  and  C_9
REMARK    4  A    between atoms: C_14  and  N_19
REMARK    5  A    between atoms: C_20  and  C_22
REMARK                            x       y       z     vdW  Elec       q    Type
REMARK                         _______ _______ _______ _____ _____    ______ ____
ROOT
ATOM      1  C   UNL     1       5.488  -1.706   1.354  0.00  0.00    +0.108 A 
ATOM      2  N   UNL     1       6.615  -1.296   1.998  0.00  0.00    -0.342 N 
ATOM      3  H   UNL     1       6.710  -0.495   2.537  0.00  0.00    +0.167 HD
ATOM      4  C   UNL     1       7.597  -2.232   1.743  0.00  0.00    +0.068 A 
ATOM      5  C   UNL     1       8.927  -2.362   2.116  0.00  0.00    +0.051 A 
ATOM      6  C   UNL     1       9.658  -3.453   1.678  0.00  0.00    +0.036 A 
ATOM      7  C   UNL     1       9.064  -4.417   0.866  0.00  0.00    +0.025 A 
ATOM      8  C   UNL     1       7.756  -4.300   0.492  0.00  0.00    +0.032 A 
ATOM      9  C   UNL     1       7.001  -3.206   0.924  0.00  0.00    +0.089 A 
ATOM     10  N   UNL     1       5.711  -2.825   0.730  0.00  0.00    -0.232 NA
ENDROOT
BRANCH   6  11
ATOM     11  N   UNL     1      11.001  -3.587   2.052  0.00  0.00    -0.283 N 
ATOM     12  C   UNL     1      11.516  -4.811   2.283  0.00  0.00    +0.244 C 
ATOM     13  O   UNL     1      10.842  -5.800   2.087  0.00  0.00    -0.273 OA
ATOM     14  H   UNL     1      11.560  -2.800   2.144  0.00  0.00    +0.155 HD
BRANCH  12  15
ATOM     15  C   UNL     1      12.930  -4.951   2.784  0.00  0.00    +0.190 C 
ATOM     16  C   UNL     1      13.902  -4.393   1.768  0.00  0.00    +0.016 C 
ATOM     17  C   UNL     1      14.698  -5.425   1.406  0.00  0.00    -0.002 A 
ATOM     18  C   UNL     1      15.822  -5.531   0.468  0.00  0.00    +0.029 A 
ATOM     19  C   UNL     1      16.438  -6.726   0.315  0.00  0.00    +0.042 A 
ATOM     20  C   UNL     1      16.030  -7.863   1.028  0.00  0.00    +0.022 A 
ATOM     21  C   UNL     1      15.006  -7.843   1.907  0.00  0.00    +0.027 A 
ATOM     22  C   UNL     1      14.287  -6.639   2.147  0.00  0.00    +0.043 A 
ATOM     23  N   UNL     1      13.275  -6.368   2.937  0.00  0.00    -0.370 N 
ATOM     24 CL   UNL     1      17.767  -6.856  -0.794  0.00  0.00    -0.084 Cl
ATOM     25  H   UNL     1      12.829  -6.999   3.524  0.00  0.00    +0.161 HD
ENDBRANCH  12  15
ENDBRANCH   6  11
BRANCH   1  26
ATOM     26  C   UNL     1       4.171  -0.973   1.366  0.00  0.00    +0.079 C 
BRANCH  26  27
ATOM     27  C   UNL     1       3.720  -0.710  -0.072  0.00  0.00    +0.043 C 
BRANCH  27  31
ATOM     28  C   UNL     1      -0.012   1.368  -0.040  0.00  0.00    +0.000 A 
ATOM     29  C   UNL     1       1.174   2.078  -0.036  0.00  0.00    +0.000 A 
ATOM     30  C   UNL     1       2.382   1.405  -0.046  0.00  0.00    +0.003 A 
ATOM     31  C   UNL     1       2.404   0.023  -0.060  0.00  0.00    -0.047 A 
ATOM     32  C   UNL     1       1.217  -0.687  -0.063  0.00  0.00    +0.003 A 
ATOM     33  C   UNL     1       0.009  -0.014  -0.054  0.00  0.00    +0.000 A 
ENDBRANCH  27  31
ENDBRANCH  26  27
ENDBRANCH   1  26
TORSDOF 5
