REMARK  Name = ZINC00847182
REMARK  3 active torsions:
REMARK  status: ('A' for Active; 'I' for Inactive)
REMARK    1  A    between atoms: C_1  and  C_2
REMARK    2  A    between atoms: N_4  and  C_5
REMARK    3  A    between atoms: C_8  and  N_12
REMARK                            x       y       z     vdW  Elec       q    Type
REMARK                         _______ _______ _______ _____ _____    ______ ____
ROOT
ATOM      1  C   UNL     1      -1.313   1.483   0.029  0.00  0.00    +0.071 A 
ATOM      2  C   UNL     1      -2.140   1.238   1.119  0.00  0.00    +0.065 A 
ATOM      3  C   UNL     1      -3.422   1.754   1.143  0.00  0.00    +0.046 A 
ATOM      4  C   UNL     1      -3.888   2.506   0.073  0.00  0.00    +0.047 A 
ATOM      5  C   UNL     1      -3.064   2.746  -1.018  0.00  0.00    +0.046 A 
ATOM      6  C   UNL     1      -1.780   2.236  -1.041  0.00  0.00    +0.065 A 
ATOM      7 CL   UNL     1      -0.750   2.537  -2.405  0.00  0.00    -0.082 Cl
ATOM      8 CL   UNL     1      -1.560   0.291   2.453  0.00  0.00    -0.082 Cl
ENDROOT
BRANCH   4   9
ATOM      9  N   UNL     1      -5.191   3.024   0.095  0.00  0.00    -0.210 N 
ATOM     10  C   UNL     1      -5.448   4.335   0.160  0.00  0.00    +0.231 C 
ATOM     11  O   UNL     1      -4.610   5.210   0.204  0.00  0.00    -0.274 OA
ATOM     12  C   UNL     1      -6.943   4.556   0.167  0.00  0.00    +0.095 C 
ATOM     13  C   UNL     1      -7.356   5.064   1.584  0.00  0.00    +0.025 C 
ATOM     14  C   UNL     1      -7.200   3.741   2.419  0.00  0.00    +0.016 C 
ATOM     15  C   UNL     1      -8.202   2.940   1.510  0.00  0.00    +0.025 C 
ATOM     16  C   UNL     1      -7.519   3.111   0.093  0.00  0.00    +0.095 C 
ATOM     17  C   UNL     1      -6.279   2.247   0.048  0.00  0.00    +0.231 C 
ATOM     18  O   UNL     1      -6.272   1.036  -0.018  0.00  0.00    -0.274 OA
ATOM     19  C   UNL     1      -9.373   3.930   1.476  0.00  0.00    -0.027 C 
ATOM     20  C   UNL     1      -8.886   5.154   1.519  0.00  0.00    -0.027 C 
ENDBRANCH   4   9
BRANCH   1  24
ATOM     21  C   UNL     1       2.444   1.238   0.138  0.00  0.00    +0.109 C 
ATOM     22  C   UNL     1       1.046   1.798   0.082  0.00  0.00    +0.214 C 
ATOM     23  O   UNL     1       0.872   2.999   0.104  0.00  0.00    -0.276 OA
ATOM     24  N   UNL     1      -0.011   0.966   0.007  0.00  0.00    -0.283 N 
ATOM     25  H   UNL     1       0.130   0.009  -0.066  0.00  0.00    +0.155 HD
ENDBRANCH   1  24
TORSDOF 2
