REMARK  Name = ZINC12635259
REMARK  11 active torsions:
REMARK  status: ('A' for Active; 'I' for Inactive)
REMARK    1  A    between atoms: C_1  and  C_2
REMARK    2  A    between atoms: C_2  and  C_4
REMARK    3  A    between atoms: C_2  and  N_53
REMARK    4  A    between atoms: C_7  and  S_16
REMARK    5  A    between atoms: N_8  and  C_9
REMARK    6  A    between atoms: S_16  and  C_17
REMARK    7  A    between atoms: C_17  and  C_19
REMARK    8  A    between atoms: C_17  and  C_20
REMARK    9  A    between atoms: N_22  and  C_23
REMARK   10  A    between atoms: C_30  and  N_53
REMARK   11  A    between atoms: C_31  and  N_53
REMARK                            x       y       z     vdW  Elec       q    Type
REMARK                         _______ _______ _______ _____ _____    ______ ____
ROOT
ATOM      1  C   UNL     1      -1.212   5.969   1.339  0.00  0.00    +0.125 A 
ATOM      2  N   UNL     1      -0.599   5.691   0.223  0.00  0.00    -0.135 NA
ATOM      3  N   UNL     1      -0.408   4.424   0.126  0.00  0.00    -0.122 NA
ATOM      4  C   UNL     1      -0.893   3.817   1.184  0.00  0.00    +0.197 A 
ATOM      5  N   UNL     1      -1.427   4.784   1.991  0.00  0.00    -0.275 N 
ENDROOT
BRANCH   5   6
ATOM      6  C   UNL     1      -2.061   4.600   3.229  0.00  0.00    +0.050 A 
ATOM      7  C   UNL     1      -3.406   4.908   3.374  0.00  0.00    +0.029 A 
ATOM      8  C   UNL     1      -4.030   4.721   4.592  0.00  0.00    +0.040 A 
ATOM      9  C   UNL     1      -3.310   4.238   5.672  0.00  0.00    +0.124 A 
ATOM     10  C   UNL     1      -1.966   3.936   5.531  0.00  0.00    +0.040 A 
ATOM     11  C   UNL     1      -1.341   4.116   4.313  0.00  0.00    +0.029 A 
ATOM     12  F   UNL     1      -3.920   4.062   6.865  0.00  0.00    -0.205 F 
ENDBRANCH   5   6
BRANCH   1  14
ATOM     13  C   UNL     1      -2.835   7.818   1.031  0.00  0.00    -0.005 C 
ATOM     14  C   UNL     1      -1.615   7.339   1.820  0.00  0.00    -0.003 C 
BRANCH  14  17
ATOM     15  C   UNL     1      -0.859   9.625   2.075  0.00  0.00    -0.096 C 
ATOM     16  C   UNL     1       0.717   7.798   2.284  0.00  0.00    -0.096 C 
ATOM     17  N   UNL     1      -0.496   8.277   1.589  0.00  0.00    +0.382 N 
ATOM     18  H   UNL     1      -0.305   8.327   0.581  0.00  0.00    -0.082 HD
ENDBRANCH  14  17
ENDBRANCH   1  14
BRANCH   4  19
ATOM     19  S   UNL     1      -0.868   2.083   1.502  0.00  0.00    -0.073 S 
BRANCH  19  20
ATOM     20  C   UNL     1      -0.025   1.503   0.009  0.00  0.00    +0.137 C 
ATOM     21  C   UNL     1       1.407   2.040  -0.009  0.00  0.00    +0.029 C 
BRANCH  20  22
ATOM     22  C   UNL     1       0.004  -0.004   0.002  0.00  0.00    +0.230 C 
ATOM     23  O   UNL     1      -0.152  -0.618   1.036  0.00  0.00    -0.274 OA
ATOM     24  N   UNL     1       0.203  -0.669  -1.153  0.00  0.00    -0.285 N 
ATOM     25  H   UNL     1       0.261  -0.181  -1.990  0.00  0.00    +0.155 HD
BRANCH  24  26
ATOM     26  C   UNL     1       0.326  -2.063  -1.146  0.00  0.00    +0.034 A 
ATOM     27  C   UNL     1      -0.413  -2.822  -0.248  0.00  0.00    +0.023 A 
ATOM     28  C   UNL     1      -0.290  -4.197  -0.243  0.00  0.00    +0.003 A 
ATOM     29  C   UNL     1       0.569  -4.820  -1.131  0.00  0.00    +0.015 A 
ATOM     30  C   UNL     1       1.307  -4.066  -2.026  0.00  0.00    +0.020 A 
ATOM     31  C   UNL     1       1.184  -2.690  -2.039  0.00  0.00    +0.038 A 
ATOM     32 BR   UNL     1       2.479  -4.922  -3.239  0.00  0.00    -0.050 Br
ENDBRANCH  24  26
ENDBRANCH  20  22
ENDBRANCH  19  20
ENDBRANCH   4  19
TORSDOF 7
