REMARK  Name = ZINC01326748
REMARK  5 active torsions:
REMARK  status: ('A' for Active; 'I' for Inactive)
REMARK    1  A    between atoms: C_1  and  O_2
REMARK    2  A    between atoms: O_2  and  C_3
REMARK    3  A    between atoms: C_13  and  C_15
REMARK    4  A    between atoms: C_19  and  C_30
REMARK    5  A    between atoms: C_22  and  C_26
REMARK                            x       y       z     vdW  Elec       q    Type
REMARK                         _______ _______ _______ _____ _____    ______ ____
ROOT
ATOM      1  C   UNL     1       4.302  -5.265   7.139  0.00  0.00    +0.110 C 
ATOM      2  C   UNL     1       4.280  -6.618   7.042  0.00  0.00    +0.072 C 
ATOM      3  C   UNL     1       4.975  -7.148   8.214  0.00  0.00    +0.114 C 
ATOM      4  N   UNL     1       5.199  -8.383   8.565  0.00  0.00    -0.365 N 
ATOM      5  C   UNL     1       5.898  -8.649   9.828  0.00  0.00    +0.113 C 
ATOM      6  C   UNL     1       6.902  -7.535  10.132  0.00  0.00    +0.062 C 
ATOM      7  C   UNL     1       6.174  -6.183  10.193  0.00  0.00    +0.201 C 
ATOM      8  N   UNL     1       5.401  -6.051   8.953  0.00  0.00    -0.226 N 
ATOM      9  N   UNL     1       4.973  -4.903   8.296  0.00  0.00    -0.258 N 
ATOM     10  H   UNL     1       5.119  -3.993   8.600  0.00  0.00    +0.170 HD
ATOM     11  H   UNL     1       4.908  -9.115   8.001  0.00  0.00    +0.161 HD
ENDROOT
BRANCH   1  22
ATOM     12  C   UNL     1       0.626  -0.619   1.042  0.00  0.00    +0.121 A 
ATOM     13  C   UNL     1       1.207   0.134   2.059  0.00  0.00    +0.048 A 
ATOM     14  C   UNL     1       1.840  -0.463   3.117  0.00  0.00    +0.032 A 
ATOM     15  C   UNL     1       1.925  -1.872   3.210  0.00  0.00    +0.081 A 
ATOM     16  C   UNL     1       1.325  -2.605   2.161  0.00  0.00    +0.044 A 
ATOM     17  C   UNL     1       0.687  -2.003   1.105  0.00  0.00    +0.063 A 
ATOM     18  S   UNL     1       1.644  -4.285   2.643  0.00  0.00    -0.052 S 
ATOM     19  C   UNL     1       2.523  -3.921   4.156  0.00  0.00    +0.166 A 
ATOM     20  N   UNL     1       2.510  -2.609   4.179  0.00  0.00    -0.225 NA
ATOM     21  N   UNL     1       3.078  -4.800   5.070  0.00  0.00    -0.260 N 
ATOM     22  C   UNL     1       3.709  -4.327   6.163  0.00  0.00    +0.265 C 
ATOM     23  O   UNL     1       3.791  -3.128   6.346  0.00  0.00    -0.268 OA
ATOM     24  H   UNL     1       3.013  -5.757   4.924  0.00  0.00    +0.157 HD
BRANCH  12  26
ATOM     25  C   UNL     1      -0.017   1.425   0.010  0.00  0.00    +0.277 C 
ATOM     26  O   UNL     1       0.002  -0.004   0.002  0.00  0.00    -0.495 OA
ENDBRANCH  12  26
ENDBRANCH   1  22
BRANCH   5  27
ATOM     27  C   UNL     1       6.630  -9.962   9.724  0.00  0.00    -0.021 A 
ATOM     28  C   UNL     1       7.285 -10.295   8.553  0.00  0.00    +0.009 A 
ATOM     29  C   UNL     1       7.958 -11.498   8.452  0.00  0.00    +0.050 A 
ATOM     30  C   UNL     1       7.979 -12.373   9.526  0.00  0.00    +0.166 A 
ATOM     31  C   UNL     1       7.319 -12.037  10.706  0.00  0.00    +0.167 A 
ATOM     32  C   UNL     1       6.651 -10.827  10.801  0.00  0.00    +0.055 A 
ATOM     33  O   UNL     1       7.485 -13.053  11.603  0.00  0.00    -0.453 OA
ATOM     34  C   UNL     1       7.905 -14.189  10.824  0.00  0.00    +0.466 C 
ATOM     35  O   UNL     1       8.558 -13.599   9.684  0.00  0.00    -0.453 OA
ENDBRANCH   5  27
BRANCH   7  36
ATOM     36  C   UNL     1       7.193  -5.047  10.297  0.00  0.00    +0.410 C 
ATOM     37  F   UNL     1       8.032  -5.069   9.178  0.00  0.00    -0.169 F 
ATOM     38  F   UNL     1       6.521  -3.821  10.351  0.00  0.00    -0.169 F 
ATOM     39  F   UNL     1       7.957  -5.211  11.457  0.00  0.00    -0.169 F 
ENDBRANCH   7  36
TORSDOF 4
