REMARK  Name = ZINC06134323
REMARK  12 active torsions:
REMARK  status: ('A' for Active; 'I' for Inactive)
REMARK    1  A    between atoms: C_1  and  C_2
REMARK    2  A    between atoms: C_2  and  C_3
REMARK    3  A    between atoms: C_2  and  C_4
REMARK    4  A    between atoms: C_4  and  C_5
REMARK    5  A    between atoms: C_5  and  N_6
REMARK    6  A    between atoms: C_7  and  C_9
REMARK    7  A    between atoms: C_9  and  C_11
REMARK    8  A    between atoms: C_9  and  N_16
REMARK    9  A    between atoms: N_16  and  C_17
REMARK   10  A    between atoms: C_24  and  C_26
REMARK   11  A    between atoms: C_27  and  N_34
REMARK   12  A    between atoms: C_28  and  C_31
REMARK                            x       y       z     vdW  Elec       q    Type
REMARK                         _______ _______ _______ _____ _____    ______ ____
ROOT
ATOM      1  N   UNL     1      -0.498   1.422   5.037  0.00  0.00    -0.250 N 
ATOM      2  C   UNL     1       0.414   2.380   5.296  0.00  0.00    +0.262 C 
ATOM      3  O   UNL     1       0.314   3.474   4.770  0.00  0.00    -0.269 OA
ENDROOT
BRANCH   1   4
ATOM      4  C   UNL     1      -0.412   0.182   5.681  0.00  0.00    +0.038 A 
ATOM      5  C   UNL     1       0.294  -0.859   5.093  0.00  0.00    +0.026 A 
ATOM      6  C   UNL     1       0.381  -2.080   5.733  0.00  0.00    +0.040 A 
ATOM      7  C   UNL     1      -0.244  -2.269   6.954  0.00  0.00    +0.124 A 
ATOM      8  C   UNL     1      -0.954  -1.234   7.538  0.00  0.00    +0.040 A 
ATOM      9  C   UNL     1      -1.039  -0.010   6.905  0.00  0.00    +0.026 A 
ATOM     10  F   UNL     1      -0.162  -3.466   7.576  0.00  0.00    -0.205 F 
ENDBRANCH   1   4
BRANCH   2  11
ATOM     11  C   UNL     1       1.525   2.106   6.209  0.00  0.00    +0.116 A 
ATOM     12  C   UNL     1       2.510   2.970   6.689  0.00  0.00    +0.076 A 
ATOM     13  C   UNL     1       3.404   2.336   7.552  0.00  0.00    +0.155 A 
ATOM     14  N   UNL     1       3.250   1.056   7.810  0.00  0.00    -0.203 NA
ATOM     15  S   UNL     1       1.985   0.578   7.000  0.00  0.00    +0.019 S 
BRANCH  13  16
ATOM     16  C   UNL     1       4.513   3.091   8.163  0.00  0.00    +0.262 C 
ATOM     17  O   UNL     1       4.649   4.274   7.920  0.00  0.00    -0.269 OA
ATOM     18  N   UNL     1       5.375   2.469   8.992  0.00  0.00    -0.324 N 
ATOM     19  H   UNL     1       5.266   1.525   9.185  0.00  0.00    +0.145 HD
ATOM     20  H   UNL     1       6.105   2.966   9.394  0.00  0.00    +0.145 HD
ENDBRANCH  13  16
BRANCH  12  21
ATOM     21  N   UNL     1       2.591   4.314   6.347  0.00  0.00    -0.355 N 
ATOM     22  H   UNL     1       1.938   4.700   5.743  0.00  0.00    +0.142 HD
ATOM     23  H   UNL     1       3.300   4.866   6.713  0.00  0.00    +0.142 HD
ENDBRANCH  12  21
ENDBRANCH   2  11
BRANCH   1  24
ATOM     24  C   UNL     1      -1.578   1.678   4.081  0.00  0.00    +0.204 C 
BRANCH  24  25
ATOM     25  C   UNL     1      -2.905   1.394   4.735  0.00  0.00    +0.019 A 
ATOM     26  C   UNL     1      -4.015   2.171   4.787  0.00  0.00    +0.013 A 
ATOM     27  C   UNL     1      -5.134   1.699   5.448  0.00  0.00    +0.008 A 
ATOM     28  C   UNL     1      -5.085   0.477   6.033  0.00  0.00    +0.045 A 
ATOM     29  S   UNL     1      -3.422  -0.050   5.649  0.00  0.00    -0.099 S 
ENDBRANCH  24  25
BRANCH  24  31
ATOM     30  N   UNL     1      -2.423   0.630   2.006  0.00  0.00    -0.313 N 
ATOM     31  C   UNL     1      -1.409   0.784   2.880  0.00  0.00    +0.239 C 
ATOM     32  O   UNL     1      -0.359   0.203   2.699  0.00  0.00    -0.273 OA
ATOM     33  H   UNL     1      -3.262   1.094   2.150  0.00  0.00    +0.149 HD
BRANCH  30  34
ATOM     34  C   UNL     1      -2.258  -0.239   0.838  0.00  0.00    +0.104 C 
BRANCH  34  35
ATOM     35  C   UNL     1      -3.548  -0.239   0.016  0.00  0.00    +0.022 C 
BRANCH  35  37
ATOM     36  C   UNL     1      -4.704  -1.244  -1.958  0.00  0.00    +0.007 C 
ATOM     37  C   UNL     1      -3.376  -1.146  -1.204  0.00  0.00    -0.016 C 
ATOM     38  C   UNL     1      -2.307  -0.561  -2.128  0.00  0.00    +0.007 C 
ENDBRANCH  35  37
ENDBRANCH  34  35
ENDBRANCH  30  34
ENDBRANCH  24  31
ENDBRANCH   1  24
TORSDOF 10
