REMARK  Name = ZINC17101060
REMARK  5 active torsions:
REMARK  status: ('A' for Active; 'I' for Inactive)
REMARK    1  A    between atoms: C_6  and  C_7
REMARK    2  A    between atoms: C_8  and  C_13
REMARK    3  A    between atoms: C_14  and  C_15
REMARK    4  A    between atoms: C_14  and  C_17
REMARK    5  A    between atoms: N_19  and  C_20
REMARK                            x       y       z     vdW  Elec       q    Type
REMARK                         _______ _______ _______ _____ _____    ______ ____
ROOT
ATOM      1  C   UNL     1       7.129  -3.042   4.069  0.00  0.00    +0.035 C 
ATOM      2  C   UNL     1       6.875  -1.989   3.213  0.00  0.00    +0.114 C 
ENDROOT
BRANCH   1   4
ATOM      3  C   UNL     1       6.652  -5.620   4.113  0.00  0.00    +0.100 A 
ATOM      4  C   UNL     1       6.247  -4.208   4.074  0.00  0.00    +0.021 A 
ATOM      5  C   UNL     1       4.861  -4.203   4.039  0.00  0.00    +0.113 A 
ATOM      6  N   UNL     1       4.446  -5.478   4.059  0.00  0.00    -0.284 N 
ATOM      7  H   UNL     1       3.491  -5.772   4.042  0.00  0.00    +0.188 HD
ATOM      8  N   UNL     1       5.550  -6.334   4.108  0.00  0.00    -0.173 NA
BRANCH   3  14
ATOM      9  C   UNL     1       9.054  -5.477   3.463  0.00  0.00    +0.011 A 
ATOM     10  C   UNL     1      10.345  -5.963   3.506  0.00  0.00    +0.016 A 
ATOM     11  C   UNL     1      10.632  -7.110   4.226  0.00  0.00    +0.018 A 
ATOM     12  C   UNL     1       9.627  -7.774   4.909  0.00  0.00    +0.016 A 
ATOM     13  C   UNL     1       8.334  -7.294   4.875  0.00  0.00    +0.011 A 
ATOM     14  C   UNL     1       8.040  -6.139   4.153  0.00  0.00    +0.003 A 
ATOM     15 BR   UNL     1      12.402  -7.773   4.276  0.00  0.00    -0.050 Br
ENDBRANCH   3  14
ENDBRANCH   1   4
BRANCH   2  16
ATOM     16  C   UNL     1       5.844  -2.118   2.175  0.00  0.00    +0.259 C 
ATOM     17  O   UNL     1       5.301  -3.191   1.986  0.00  0.00    -0.269 OA
ATOM     18  N   UNL     1       5.498  -1.048   1.431  0.00  0.00    -0.281 N 
ATOM     19  H   UNL     1       5.989  -0.217   1.521  0.00  0.00    +0.155 HD
BRANCH  18  20
ATOM     20  C   UNL     1       4.431  -1.138   0.529  0.00  0.00    +0.037 A 
ATOM     21  C   UNL     1       4.470  -0.430  -0.665  0.00  0.00    +0.027 A 
ATOM     22  C   UNL     1       3.417  -0.516  -1.556  0.00  0.00    +0.051 A 
ATOM     23  C   UNL     1       2.320  -1.310  -1.260  0.00  0.00    +0.166 A 
ATOM     24  C   UNL     1       2.278  -2.022  -0.064  0.00  0.00    +0.168 A 
ATOM     25  C   UNL     1       3.334  -1.934   0.829  0.00  0.00    +0.072 A 
ATOM     26  O   UNL     1       1.106  -2.719  -0.012  0.00  0.00    -0.453 OA
ATOM     27  C   UNL     1       0.617  -2.751  -1.365  0.00  0.00    +0.466 C 
ATOM     28  O   UNL     1       1.173  -1.562  -1.958  0.00  0.00    -0.453 OA
ENDBRANCH  18  20
ENDBRANCH   2  16
BRANCH   2  29
ATOM     29  C   UNL     1       7.618  -0.771   3.338  0.00  0.00    +0.104 C 
ATOM     30  N   UNL     1       8.206   0.196   3.437  0.00  0.00    -0.191 NA
ENDBRANCH   2  29
TORSDOF 5
