REMARK  Name = ZINC67295287
REMARK  2 active torsions:
REMARK  status: ('A' for Active; 'I' for Inactive)
REMARK    1  A    between atoms: C_5  and  N_7
REMARK    2  A    between atoms: C_9  and  C_19
REMARK                            x       y       z     vdW  Elec       q    Type
REMARK                         _______ _______ _______ _____ _____    ______ ____
ROOT
ATOM      1  N   UNL     1       1.266  -2.056   0.020  0.00  0.00    -0.323 N 
ATOM      2  C   UNL     1       0.140  -2.729   0.107  0.00  0.00    +0.212 A 
ATOM      3  C   UNL     1       0.138  -4.203   0.197  0.00  0.00    +0.098 A 
ATOM      4  C   UNL     1      -0.943  -4.796   0.834  0.00  0.00    +0.030 A 
ATOM      5  C   UNL     1      -1.984  -3.910   1.361  0.00  0.00    +0.019 A 
ATOM      6  C   UNL     1      -2.960  -4.395   2.240  0.00  0.00    +0.026 A 
ATOM      7  C   UNL     1      -3.926  -3.540   2.722  0.00  0.00    +0.019 A 
ATOM      8  C   UNL     1      -3.934  -2.204   2.343  0.00  0.00    +0.019 A 
ATOM      9  C   UNL     1      -2.979  -1.713   1.476  0.00  0.00    +0.048 A 
ATOM     10  C   UNL     1      -1.998  -2.556   0.976  0.00  0.00    +0.137 A 
ATOM     11  O   UNL     1      -1.058  -2.089   0.123  0.00  0.00    -0.439 OA
ATOM     12 BR   UNL     1      -5.248  -4.188   3.909  0.00  0.00    -0.050 Br
ATOM     13  H   UNL     1       2.112  -2.529  -0.016  0.00  0.00    +0.169 HD
ENDROOT
BRANCH   3  14
ATOM     14  C   UNL     1       1.236  -5.007  -0.366  0.00  0.00    +0.255 C 
ATOM     15  O   UNL     1       2.204  -4.458  -0.855  0.00  0.00    -0.270 OA
ATOM     16  N   UNL     1       1.167  -6.353  -0.338  0.00  0.00    -0.261 N 
ATOM     17  C   UNL     1       2.151  -7.112  -0.959  0.00  0.00    +0.165 A 
ATOM     18  N   UNL     1       3.216  -6.694  -1.610  0.00  0.00    -0.233 NA
ATOM     19  C   UNL     1       4.065  -7.550  -2.148  0.00  0.00    +0.120 A 
ATOM     20  C   UNL     1       3.788  -8.869  -1.999  0.00  0.00    +0.068 A 
ATOM     21  S   UNL     1       2.275  -8.787  -1.056  0.00  0.00    -0.061 S 
ATOM     22  H   UNL     1       0.430  -6.792   0.115  0.00  0.00    +0.157 HD
ENDBRANCH   3  14
BRANCH   1  27
ATOM     23  C   UNL     1       0.404   1.353  -0.967  0.00  0.00    +0.002 A 
ATOM     24  C   UNL     1       1.202   2.081  -0.102  0.00  0.00    +0.003 A 
ATOM     25  C   UNL     1       2.023   1.433   0.804  0.00  0.00    +0.040 A 
ATOM     26  C   UNL     1       2.050   0.053   0.851  0.00  0.00    +0.147 A 
ATOM     27  C   UNL     1       1.245  -0.689  -0.020  0.00  0.00    +0.077 A 
ATOM     28  C   UNL     1       0.420  -0.026  -0.932  0.00  0.00    +0.028 A 
ATOM     29  F   UNL     1       2.851  -0.580   1.736  0.00  0.00    -0.203 F 
ENDBRANCH   1  27
TORSDOF 2
