REMARK  Name = ZINC63581950
REMARK  9 active torsions:
REMARK  status: ('A' for Active; 'I' for Inactive)
REMARK    1  A    between atoms: C_1  and  C_2
REMARK    2  A    between atoms: C_2  and  O_3
REMARK    3  A    between atoms: O_3  and  C_4
REMARK    4  A    between atoms: C_6  and  C_19
REMARK    5  A    between atoms: C_9  and  O_10
REMARK    6  A    between atoms: O_10  and  C_11
REMARK    7  A    between atoms: C_11  and  C_12
REMARK    8  A    between atoms: C_26  and  O_31
REMARK    9  A    between atoms: O_31  and  C_32
REMARK                            x       y       z     vdW  Elec       q    Type
REMARK                         _______ _______ _______ _____ _____    ______ ____
ROOT
ATOM      1  C   UNL     1      -1.511  -1.863  -0.206  0.00  0.00    +0.162 A 
ATOM      2  C   UNL     1      -0.402  -2.694  -0.215  0.00  0.00    +0.054 A 
ATOM      3  C   UNL     1      -0.553  -4.052  -0.008  0.00  0.00    -0.024 A 
ATOM      4  C   UNL     1      -1.811  -4.585   0.207  0.00  0.00    +0.009 A 
ATOM      5  C   UNL     1      -2.921  -3.763   0.217  0.00  0.00    +0.050 A 
ATOM      6  C   UNL     1      -2.776  -2.399   0.017  0.00  0.00    +0.162 A 
ENDROOT
BRANCH   3   7
ATOM      7  C   UNL     1       0.654  -4.954  -0.018  0.00  0.00    +0.111 C 
ATOM      8  C   UNL     1       0.694  -5.776   1.272  0.00  0.00    +0.128 C 
ATOM      9  C   UNL     1      -0.514  -6.704   1.224  0.00  0.00    -0.035 C 
ATOM     10  C   UNL     1      -1.187  -6.502   2.348  0.00  0.00    +0.003 A 
ATOM     11  C   UNL     1      -2.380  -7.153   2.912  0.00  0.00    +0.055 A 
ATOM     12  C   UNL     1      -2.826  -6.679   4.108  0.00  0.00    +0.121 A 
ATOM     13  C   UNL     1      -2.219  -5.628   4.811  0.00  0.00    +0.047 A 
ATOM     14  C   UNL     1      -1.114  -4.963   4.387  0.00  0.00    +0.029 A 
ATOM     15  C   UNL     1      -0.534  -5.389   3.106  0.00  0.00    +0.043 A 
ATOM     16  N   UNL     1       0.533  -4.952   2.469  0.00  0.00    -0.376 N 
ATOM     17  C   UNL     1      -0.811  -7.556   0.014  0.00  0.00    +0.048 C 
ATOM     18  C   UNL     1      -0.694  -6.624  -1.206  0.00  0.00    +0.086 C 
ATOM     19  N   UNL     1       0.570  -5.882  -1.157  0.00  0.00    -0.307 NA
ATOM     20  H   UNL     1       0.744  -5.403  -2.028  0.00  0.00    +0.123 HD
ATOM     21  H   UNL     1       1.109  -4.218   2.735  0.00  0.00    +0.160 HD
BRANCH  12  22
ATOM     22  O   UNL     1      -3.927  -7.260   4.654  0.00  0.00    -0.495 OA
ATOM     23  C   UNL     1      -4.377  -6.747   5.909  0.00  0.00    +0.277 C 
ENDBRANCH  12  22
ENDBRANCH   3   7
BRANCH   1  24
ATOM     24  O   UNL     1      -1.363  -0.527  -0.409  0.00  0.00    -0.489 OA
BRANCH  24  26
ATOM     25  C   UNL     1      -0.069   1.468  -0.838  0.00  0.00    +0.048 C 
ATOM     26  C   UNL     1      -0.035  -0.047  -0.631  0.00  0.00    +0.226 C 
ENDBRANCH  24  26
ENDBRANCH   1  24
BRANCH   6  27
ATOM     27  O   UNL     1      -3.867  -1.588   0.032  0.00  0.00    -0.484 OA
BRANCH  27  28
ATOM     28  C   UNL     1      -5.133  -2.207   0.267  0.00  0.00    +0.266 C 
BRANCH  28  29
ATOM     29  C   UNL     1      -6.216  -1.159   0.248  0.00  0.00    +0.008 A 
ATOM     30  C   UNL     1      -5.892   0.165   0.020  0.00  0.00    +0.008 A 
ATOM     31  C   UNL     1      -6.885   1.127   0.003  0.00  0.00    +0.000 A 
ATOM     32  C   UNL     1      -8.203   0.764   0.214  0.00  0.00    +0.001 A 
ATOM     33  C   UNL     1      -8.527  -0.560   0.442  0.00  0.00    +0.020 A 
ATOM     34  C   UNL     1      -7.534  -1.523   0.453  0.00  0.00    +0.047 A 
ATOM     35 CL   UNL     1      -7.942  -3.188   0.733  0.00  0.00    -0.083 Cl
ENDBRANCH  28  29
ENDBRANCH  27  28
ENDBRANCH   6  27
TORSDOF 7
