REMARK  Name = ZINC39227470
REMARK  5 active torsions:
REMARK  status: ('A' for Active; 'I' for Inactive)
REMARK    1  A    between atoms: C_1  and  N_2
REMARK    2  A    between atoms: C_10  and  C_15
REMARK    3  A    between atoms: C_19  and  C_21
REMARK    4  A    between atoms: N_23  and  C_24
REMARK    5  A    between atoms: C_24  and  C_25
REMARK                            x       y       z     vdW  Elec       q    Type
REMARK                         _______ _______ _______ _____ _____    ______ ____
ROOT
ATOM      1  C   UNL     1      -0.018   1.465   0.010  0.00  0.00    -0.096 C 
ATOM      2  N   UNL     1       0.002  -0.004   0.002  0.00  0.00    +0.378 N 
ATOM      3  C   UNL     1       0.682  -0.476  -1.211  0.00  0.00    -0.075 C 
ATOM      4  C   UNL     1       0.632  -2.005  -1.265  0.00  0.00    +0.029 C 
ATOM      5  C   UNL     1       1.327  -2.578  -0.029  0.00  0.00    +0.108 C 
ATOM      6  C   UNL     1       1.204  -4.106  -0.033  0.00  0.00    +0.052 C 
ATOM      7  C   UNL     1       1.783  -4.632  -1.349  0.00  0.00    +0.043 C 
ATOM      8  C   UNL     1       3.129  -4.001  -1.599  0.00  0.00    -0.005 A 
ATOM      9  C   UNL     1       3.987  -4.604  -2.501  0.00  0.00    +0.015 A 
ATOM     10  C   UNL     1       5.236  -4.047  -2.761  0.00  0.00    -0.017 A 
ATOM     11  C   UNL     1       5.620  -2.878  -2.107  0.00  0.00    +0.012 A 
ATOM     12  C   UNL     1       4.763  -2.282  -1.208  0.00  0.00    +0.046 A 
ATOM     13  C   UNL     1       3.515  -2.842  -0.947  0.00  0.00    +0.124 A 
ATOM     14  O   UNL     1       2.709  -2.229  -0.042  0.00  0.00    -0.486 OA
ATOM     15  C   UNL     1       0.662  -2.018   1.231  0.00  0.00    +0.029 C 
ATOM     16  C   UNL     1       0.712  -0.489   1.192  0.00  0.00    -0.075 C 
ATOM     17  H   UNL     1      -0.945  -0.352   0.012  0.00  0.00    -0.082 HD
ENDROOT
BRANCH  10  18
ATOM     18  C   UNL     1       6.155  -4.696  -3.728  0.00  0.00    -0.017 A 
ATOM     19  C   UNL     1       5.767  -5.864  -4.385  0.00  0.00    +0.008 A 
ATOM     20  C   UNL     1       6.620  -6.470  -5.287  0.00  0.00    +0.001 A 
ATOM     21  C   UNL     1       7.862  -5.925  -5.543  0.00  0.00    +0.013 A 
ATOM     22  C   UNL     1       8.263  -4.756  -4.892  0.00  0.00    +0.037 A 
ATOM     23  C   UNL     1       7.403  -4.138  -3.986  0.00  0.00    +0.021 A 
BRANCH  22  24
ATOM     24  C   UNL     1       9.593  -4.173  -5.167  0.00  0.00    +0.244 C 
ATOM     25  O   UNL     1       9.940  -3.156  -4.599  0.00  0.00    -0.270 OA
ATOM     26  N   UNL     1      10.421  -4.769  -6.048  0.00  0.00    -0.304 N 
ATOM     27  H   UNL     1      10.144  -5.581  -6.501  0.00  0.00    +0.149 HD
BRANCH  26  28
ATOM     28  C   UNL     1      11.740  -4.192  -6.320  0.00  0.00    +0.179 C 
BRANCH  28  29
ATOM     29  C   UNL     1      12.462  -5.043  -7.333  0.00  0.00    +0.122 A 
ATOM     30  C   UNL     1      12.414  -4.887  -8.668  0.00  0.00    +0.046 A 
ATOM     31  C   UNL     1      13.233  -5.895  -9.227  0.00  0.00    +0.041 A 
ATOM     32  C   UNL     1      13.732  -6.606  -8.200  0.00  0.00    +0.195 A 
ATOM     33  O   UNL     1      13.266  -6.082  -7.055  0.00  0.00    -0.466 OA
ENDBRANCH  28  29
ENDBRANCH  26  28
ENDBRANCH  22  24
ENDBRANCH  10  18
TORSDOF 4
