REMARK  Name = ZINC06735957
REMARK  17 active torsions:
REMARK  status: ('A' for Active; 'I' for Inactive)
REMARK    1  A    between atoms: C_1  and  C_2
REMARK    2  A    between atoms: C_2  and  C_3
REMARK    3  A    between atoms: C_3  and  C_4
REMARK    4  A    between atoms: C_4  and  C_5
REMARK    5  A    between atoms: C_5  and  N_6
REMARK    6  A    between atoms: N_6  and  C_7
REMARK    7  A    between atoms: C_7  and  C_8
REMARK    8  A    between atoms: C_10  and  C_13
REMARK    9  A    between atoms: C_13  and  O_15
REMARK   10  A    between atoms: O_15  and  C_16
REMARK   11  A    between atoms: C_17  and  C_19
REMARK   12  A    between atoms: C_19  and  C_21
REMARK   13  A    between atoms: C_19  and  C_23
REMARK   14  A    between atoms: C_21  and  C_22
REMARK   15  A    between atoms: C_23  and  C_24
REMARK   16  A    between atoms: C_24  and  C_25
REMARK   17  A    between atoms: C_25  and  C_26
REMARK                            x       y       z     vdW  Elec       q    Type
REMARK                         _______ _______ _______ _____ _____    ______ ____
ROOT
ATOM      1  N   UNL     1       1.180   1.736   2.823  0.00  0.00    -0.295 N 
ATOM      2  C   UNL     1      -0.090   1.284   2.807  0.00  0.00    +0.219 C 
ATOM      3  O   UNL     1      -0.438   0.424   3.587  0.00  0.00    -0.275 OA
ENDROOT
BRANCH   1   4
ATOM      4  C   UNL     1       1.583   2.822   1.926  0.00  0.00    +0.108 C 
BRANCH   4   5
ATOM      5  C   UNL     1       1.231   4.168   2.563  0.00  0.00    +0.019 C 
BRANCH   5   6
ATOM      6  C   UNL     1       1.652   5.301   1.626  0.00  0.00    +0.001 C 
BRANCH   6   8
ATOM      7  C   UNL     1       1.722   7.781   1.327  0.00  0.00    +0.004 C 
ATOM      8  C   UNL     1       1.301   6.647   2.264  0.00  0.00    -0.003 C 
ENDBRANCH   6   8
ENDBRANCH   5   6
ENDBRANCH   4   5
ENDBRANCH   1   4
BRANCH   1   9
ATOM      9  C   UNL     1       2.157   1.142   3.739  0.00  0.00    +0.170 C 
BRANCH   9  10
ATOM     10  C   UNL     1       2.844  -0.015   3.058  0.00  0.00    +0.096 A 
ATOM     11  N   UNL     1       3.930  -0.005   2.332  0.00  0.00    -0.236 NA
ATOM     12  C   UNL     1       4.394  -1.142   1.810  0.00  0.00    +0.155 A 
ATOM     13  C   UNL     1       3.683  -2.290   2.059  0.00  0.00    +0.082 A 
ATOM     14  S   UNL     1       2.384  -1.687   3.039  0.00  0.00    -0.078 S 
BRANCH  12  15
ATOM     15  C   UNL     1       5.617  -1.165   0.993  0.00  0.00    +0.358 C 
ATOM     16  O   UNL     1       6.015  -2.213   0.524  0.00  0.00    -0.243 OA
BRANCH  15  17
ATOM     17  O   UNL     1       6.295  -0.023   0.764  0.00  0.00    -0.463 OA
ATOM     18  C   UNL     1       7.494  -0.120  -0.050  0.00  0.00    +0.280 C 
ENDBRANCH  15  17
ENDBRANCH  12  15
ENDBRANCH   9  10
ENDBRANCH   1   9
BRANCH   2  19
ATOM     19  C   UNL     1      -1.078   1.849   1.818  0.00  0.00    +0.075 C 
BRANCH  19  20
ATOM     20  C   UNL     1      -0.862   1.195   0.452  0.00  0.00    +0.009 C 
ATOM     21  C   UNL     1      -1.075  -0.315   0.569  0.00  0.00    +0.004 C 
ENDBRANCH  19  20
BRANCH  19  22
ATOM     22  C   UNL     1      -2.501   1.564   2.300  0.00  0.00    +0.013 C 
BRANCH  22  23
ATOM     23  C   UNL     1      -3.503   2.244   1.364  0.00  0.00    +0.000 C 
BRANCH  23  24
ATOM     24  C   UNL     1      -4.921   2.043   1.902  0.00  0.00    -0.003 C 
ATOM     25  C   UNL     1      -5.922   2.724   0.966  0.00  0.00    +0.004 C 
ENDBRANCH  23  24
ENDBRANCH  22  23
ENDBRANCH  19  22
ENDBRANCH   2  19
TORSDOF 13
