REMARK  Name = ZINC13503449
REMARK  6 active torsions:
REMARK  status: ('A' for Active; 'I' for Inactive)
REMARK    1  A    between atoms: C_1  and  C_2
REMARK    2  A    between atoms: C_5  and  O_29
REMARK    3  A    between atoms: C_6  and  N_8
REMARK    4  A    between atoms: C_9  and  C_11
REMARK    5  A    between atoms: C_12  and  N_28
REMARK    6  A    between atoms: O_29  and  C_30
REMARK                            x       y       z     vdW  Elec       q    Type
REMARK                         _______ _______ _______ _____ _____    ______ ____
ROOT
ATOM      1  C   UNL     1      -2.490   4.102   0.244  0.00  0.00    +0.097 A 
ATOM      2  C   UNL     1      -2.704   5.456   0.364  0.00  0.00    +0.053 A 
ATOM      3  C   UNL     1      -4.078   5.934   0.470  0.00  0.00    +0.030 A 
ATOM      4  C   UNL     1      -4.519   7.266   0.598  0.00  0.00    +0.022 A 
ATOM      5  C   UNL     1      -5.889   7.518   0.685  0.00  0.00    +0.005 A 
ATOM      6  C   UNL     1      -6.396   8.824   0.814  0.00  0.00    +0.059 A 
ATOM      7  C   UNL     1      -7.743   9.026   0.897  0.00  0.00    +0.163 A 
ATOM      8  C   UNL     1      -8.643   7.950   0.856  0.00  0.00    +0.164 A 
ATOM      9  C   UNL     1      -8.203   6.660   0.733  0.00  0.00    +0.077 A 
ATOM     10  C   UNL     1      -6.829   6.395   0.643  0.00  0.00    +0.076 A 
ATOM     11  N   UNL     1      -6.357   5.153   0.519  0.00  0.00    -0.239 NA
ATOM     12  C   UNL     1      -5.070   4.918   0.437  0.00  0.00    +0.111 A 
ATOM     13  S   UNL     1      -4.134   3.416   0.263  0.00  0.00    -0.062 S 
ATOM     14  O   UNL     1      -9.986   8.169   0.934  0.00  0.00    -0.485 OA
ATOM     15  C   UNL     1     -10.404   9.442   1.435  0.00  0.00    +0.270 C 
ATOM     16  C   UNL     1      -9.581  10.529   0.731  0.00  0.00    +0.270 C 
ATOM     17  O   UNL     1      -8.199  10.305   1.026  0.00  0.00    -0.485 OA
ENDROOT
BRANCH   1  19
ATOM     18  N   UNL     1      -1.238   2.075   0.019  0.00  0.00    -0.278 N 
ATOM     19  C   UNL     1      -1.256   3.418   0.128  0.00  0.00    +0.257 C 
ATOM     20  O   UNL     1      -0.210   4.043   0.127  0.00  0.00    -0.269 OA
ATOM     21  H   UNL     1      -2.071   1.582  -0.045  0.00  0.00    +0.155 HD
BRANCH  18  27
ATOM     22  C   UNL     1       3.498   1.906  -1.292  0.00  0.00    +0.044 C 
ATOM     23  C   UNL     1       2.295   1.282  -0.632  0.00  0.00    -0.048 A 
ATOM     24  C   UNL     1       2.397   0.031  -0.052  0.00  0.00    +0.007 A 
ATOM     25  C   UNL     1       1.297  -0.546   0.554  0.00  0.00    +0.048 A 
ATOM     26  C   UNL     1       0.087   0.129   0.583  0.00  0.00    +0.141 A 
ATOM     27  C   UNL     1      -0.016   1.390  -0.001  0.00  0.00    +0.076 A 
ATOM     28  C   UNL     1       1.092   1.963  -0.608  0.00  0.00    +0.030 A 
BRANCH  26  29
ATOM     29  O   UNL     1      -0.996  -0.437   1.178  0.00  0.00    -0.493 OA
ATOM     30  C   UNL     1      -0.815  -1.732   1.756  0.00  0.00    +0.277 C 
ENDBRANCH  26  29
ENDBRANCH  18  27
ENDBRANCH   1  19
BRANCH   2  31
ATOM     31  N   UNL     1      -1.640   6.344   0.385  0.00  0.00    -0.356 N 
ATOM     32  H   UNL     1      -0.731   6.014   0.314  0.00  0.00    +0.142 HD
ATOM     33  H   UNL     1      -1.804   7.296   0.470  0.00  0.00    +0.142 HD
ENDBRANCH   2  31
TORSDOF 4
