REMARK  Name = ZINC38707824
REMARK  7 active torsions:
REMARK  status: ('A' for Active; 'I' for Inactive)
REMARK    1  A    between atoms: C_1  and  C_2
REMARK    2  A    between atoms: C_4  and  C_14
REMARK    3  A    between atoms: N_16  and  C_17
REMARK    4  A    between atoms: N_23  and  C_31
REMARK    5  A    between atoms: C_26  and  C_29
REMARK    6  A    between atoms: C_26  and  C_30
REMARK    7  A    between atoms: C_31  and  C_32
REMARK                            x       y       z     vdW  Elec       q    Type
REMARK                         _______ _______ _______ _____ _____    ______ ____
ROOT
ATOM      1  C   UNL     1      -2.770   1.061   3.507  0.00  0.00    +0.035 A 
ATOM      2  C   UNL     1      -2.721   0.363   4.707  0.00  0.00    +0.027 A 
ATOM      3  C   UNL     1      -3.075   0.987   5.889  0.00  0.00    +0.049 A 
ATOM      4  C   UNL     1      -3.481   2.311   5.879  0.00  0.00    +0.142 A 
ATOM      5  C   UNL     1      -3.535   3.012   4.675  0.00  0.00    +0.080 A 
ATOM      6  C   UNL     1      -3.172   2.390   3.493  0.00  0.00    +0.050 A 
ATOM      7  N   UNL     1      -3.958   4.348   4.677  0.00  0.00    -0.264 N 
ATOM      8  C   UNL     1      -3.419   5.213   5.564  0.00  0.00    +0.229 C 
ATOM      9  O   UNL     1      -3.820   6.356   5.623  0.00  0.00    -0.275 OA
ATOM     10  C   UNL     1      -2.316   4.750   6.482  0.00  0.00    +0.076 C 
ATOM     11  C   UNL     1      -2.889   3.860   7.582  0.00  0.00    +0.244 C 
ATOM     12  O   UNL     1      -3.826   2.934   7.037  0.00  0.00    -0.489 OA
ATOM     13  C   UNL     1      -1.284   3.959   5.676  0.00  0.00    +0.024 C 
ATOM     14  C   UNL     1      -1.638   5.967   7.114  0.00  0.00    +0.024 C 
ENDROOT
BRANCH   1  17
ATOM     15  C   UNL     1      -1.447  -0.520   2.316  0.00  0.00    +0.262 C 
ATOM     16  O   UNL     1      -0.981  -0.907   3.367  0.00  0.00    -0.271 OA
ATOM     17  N   UNL     1      -2.408   0.425   2.312  0.00  0.00    -0.282 N 
ATOM     18  H   UNL     1      -2.849   0.665   1.483  0.00  0.00    +0.155 HD
BRANCH  15  21
ATOM     19  C   UNL     1      -0.558   1.217   0.133  0.00  0.00    +0.056 C 
ATOM     20  C   UNL     1       0.082  -0.149   0.390  0.00  0.00    +0.220 C 
ATOM     21  C   UNL     1      -0.952  -1.096   1.015  0.00  0.00    +0.299 C 
ATOM     22  O   UNL     1      -0.318  -2.357   1.254  0.00  0.00    -0.472 OA
ATOM     23  C   UNL     1       0.909  -2.323   1.844  0.00  0.00    +0.163 A 
ATOM     24  C   UNL     1       1.415  -3.474   2.428  0.00  0.00    +0.049 A 
ATOM     25  C   UNL     1       2.660  -3.456   3.028  0.00  0.00    +0.004 A 
ATOM     26  C   UNL     1       3.404  -2.291   3.047  0.00  0.00    +0.004 A 
ATOM     27  C   UNL     1       2.904  -1.139   2.468  0.00  0.00    +0.049 A 
ATOM     28  C   UNL     1       1.655  -1.151   1.866  0.00  0.00    +0.163 A 
ATOM     29  O   UNL     1       1.173  -0.007   1.306  0.00  0.00    -0.481 OA
ENDBRANCH  15  21
ENDBRANCH   1  17
BRANCH   7  30
ATOM     30  C   UNL     1      -4.976   4.803   3.725  0.00  0.00    +0.140 C 
BRANCH  30  31
ATOM     31  C   UNL     1      -6.344   4.635   4.334  0.00  0.00    -0.015 C 
ATOM     32  C   UNL     1      -7.157   5.659   4.412  0.00  0.00    +0.005 C 
ENDBRANCH  30  31
ENDBRANCH   7  30
TORSDOF 4
