REMARK  Name = ZINC09348253
REMARK  8 active torsions:
REMARK  status: ('A' for Active; 'I' for Inactive)
REMARK    1  A    between atoms: C_1  and  C_2
REMARK    2  A    between atoms: C_5  and  C_8
REMARK    3  A    between atoms: C_16  and  C_18
REMARK    4  A    between atoms: C_22  and  O_25
REMARK    5  A    between atoms: C_23  and  O_24
REMARK    6  A    between atoms: O_25  and  C_26
REMARK    7  A    between atoms: N_27  and  C_34
REMARK    8  A    between atoms: N_30  and  C_33
REMARK                            x       y       z     vdW  Elec       q    Type
REMARK                         _______ _______ _______ _____ _____    ______ ____
ROOT
ATOM      1  C   UNL     1       1.106  -1.431  -0.781  0.00  0.00    +0.064 A 
ATOM      2  C   UNL     1       1.098  -0.048  -0.852  0.00  0.00    +0.089 A 
ATOM      3  C   UNL     1      -0.289   0.373  -0.593  0.00  0.00    +0.083 A 
ATOM      4  C   UNL     1      -0.995  -0.747  -0.391  0.00  0.00    +0.078 A 
ATOM      5  N   UNL     1      -0.160  -1.838  -0.504  0.00  0.00    -0.337 N 
ATOM      6  C   UNL     1      -0.629  -3.222  -0.340  0.00  0.00    +0.150 C 
ATOM      7  C   UNL     1      -2.158  -3.224  -0.457  0.00  0.00    +0.182 C 
ATOM      8  O   UNL     1      -2.709  -2.207   0.384  0.00  0.00    -0.364 OA
ATOM      9  C   UNL     1      -2.470  -0.872  -0.082  0.00  0.00    +0.200 C 
ATOM     10  N   UNL     1      -0.566   1.745  -0.609  0.00  0.00    -0.294 N 
ATOM     11  C   UNL     1       0.414   2.631  -0.855  0.00  0.00    +0.332 A 
ATOM     12  O   UNL     1       0.131   3.814  -0.860  0.00  0.00    -0.246 OA
ATOM     13  N   UNL     1       1.686   2.285  -1.094  0.00  0.00    -0.263 N 
ATOM     14  C   UNL     1       2.091   0.997  -1.109  0.00  0.00    +0.266 A 
ATOM     15  O   UNL     1       3.253   0.713  -1.329  0.00  0.00    -0.267 OA
ATOM     16  C   UNL     1       2.670   3.340  -1.349  0.00  0.00    +0.157 C 
ATOM     17  C   UNL     1      -1.931   2.216  -0.364  0.00  0.00    +0.154 C 
ENDROOT
BRANCH   1  22
ATOM     18  C   UNL     1       5.681  -4.838  -1.527  0.00  0.00    +0.044 C 
ATOM     19  C   UNL     1       4.482  -3.946  -1.331  0.00  0.00    -0.050 A 
ATOM     20  C   UNL     1       4.253  -2.899  -2.207  0.00  0.00    +0.004 A 
ATOM     21  C   UNL     1       3.159  -2.078  -2.034  0.00  0.00    +0.010 A 
ATOM     22  C   UNL     1       2.280  -2.305  -0.973  0.00  0.00    -0.001 A 
ATOM     23  C   UNL     1       2.520  -3.361  -0.089  0.00  0.00    +0.010 A 
ATOM     24  C   UNL     1       3.616  -4.177  -0.277  0.00  0.00    +0.004 A 
ENDBRANCH   1  22
BRANCH   9  25
ATOM     25  C   UNL     1      -2.853   0.118   0.987  0.00  0.00    +0.032 A 
ATOM     26  C   UNL     1      -1.957   0.431   1.993  0.00  0.00    +0.010 A 
ATOM     27  C   UNL     1      -2.305   1.339   2.975  0.00  0.00    +0.004 A 
ATOM     28  C   UNL     1      -3.551   1.938   2.956  0.00  0.00    +0.049 A 
ATOM     29  C   UNL     1      -4.454   1.629   1.952  0.00  0.00    +0.162 A 
ATOM     30  C   UNL     1      -4.101   0.718   0.960  0.00  0.00    +0.165 A 
BRANCH  30  31
ATOM     31  O   UNL     1      -4.982   0.415  -0.031  0.00  0.00    -0.503 OA
ATOM     32  H   UNL     1      -5.613  -0.279   0.203  0.00  0.00    +0.292 HD
ENDBRANCH  30  31
BRANCH  29  33
ATOM     33  O   UNL     1      -5.679   2.217   1.932  0.00  0.00    -0.491 OA
ATOM     34  C   UNL     1      -5.970   3.146   2.978  0.00  0.00    +0.277 C 
ENDBRANCH  29  33
ENDBRANCH   9  25
TORSDOF 4
