REMARK  Name = ZINC63529287
REMARK  7 active torsions:
REMARK  status: ('A' for Active; 'I' for Inactive)
REMARK    1  A    between atoms: C_1  and  C_2
REMARK    2  A    between atoms: C_5  and  S_8
REMARK    3  A    between atoms: S_8  and  N_11
REMARK    4  A    between atoms: C_17  and  O_36
REMARK    5  A    between atoms: C_24  and  C_26
REMARK    6  A    between atoms: C_30  and  N_32
REMARK    7  A    between atoms: O_36  and  C_37
REMARK                            x       y       z     vdW  Elec       q    Type
REMARK                         _______ _______ _______ _____ _____    ______ ____
ROOT
ATOM      1  N   UNL     1       1.626  -5.067  -0.176  0.00  0.00    -0.167 NA
ATOM      2  C   UNL     1       2.231  -5.169  -1.508  0.00  0.00    +0.114 C 
ATOM      3  C   UNL     1       2.817  -6.580  -1.699  0.00  0.00    +0.050 C 
ATOM      4  C   UNL     1       3.577  -6.907  -0.437  0.00  0.00    -0.035 C 
ATOM      5  C   UNL     1       4.819  -7.332  -0.246  0.00  0.00    +0.003 A 
ATOM      6  C   UNL     1       5.873  -7.743  -1.186  0.00  0.00    +0.055 A 
ATOM      7  C   UNL     1       7.065  -8.113  -0.643  0.00  0.00    +0.121 A 
ATOM      8  C   UNL     1       7.331  -8.120   0.734  0.00  0.00    +0.047 A 
ATOM      9  C   UNL     1       6.431  -7.769   1.688  0.00  0.00    +0.029 A 
ATOM     10  C   UNL     1       5.100  -7.357   1.224  0.00  0.00    +0.043 A 
ATOM     11  N   UNL     1       4.048  -6.995   1.894  0.00  0.00    -0.376 N 
ATOM     12  C   UNL     1       2.957  -6.757   0.948  0.00  0.00    +0.129 C 
ATOM     13  C   UNL     1       2.426  -5.317   1.033  0.00  0.00    +0.136 C 
ATOM     14  H   UNL     1       3.994  -6.899   2.858  0.00  0.00    +0.160 HD
ENDROOT
BRANCH  13  15
ATOM     15  C   UNL     1       1.562  -5.161   2.258  0.00  0.00    -0.024 A 
ATOM     16  C   UNL     1       1.411  -3.917   2.843  0.00  0.00    +0.007 A 
ATOM     17  C   UNL     1       0.618  -3.774   3.966  0.00  0.00    +0.022 A 
ATOM     18  C   UNL     1      -0.025  -4.875   4.505  0.00  0.00    +0.071 A 
ATOM     19  C   UNL     1       0.127  -6.118   3.918  0.00  0.00    +0.145 A 
ATOM     20  C   UNL     1       0.916  -6.260   2.792  0.00  0.00    +0.039 A 
ATOM     21 CL   UNL     1      -1.020  -4.695   5.915  0.00  0.00    -0.081 Cl
BRANCH  19  22
ATOM     22  N   UNL     1      -0.560  -7.296   4.494  0.00  0.00    +0.058 N 
ATOM     23  O   UNL     1      -0.428  -8.383   3.981  0.00  0.00    -0.126 OA
ATOM     24  O   UNL     1      -1.254  -7.171   5.476  0.00  0.00    -0.126 OA
ENDBRANCH  19  22
ENDBRANCH  13  15
BRANCH   1  25
ATOM     25  S   UNL     1       0.027  -4.661  -0.032  0.00  0.00    +0.061 S 
ATOM     26  O   UNL     1      -0.388  -5.098   1.256  0.00  0.00    -0.153 OA
ATOM     27  O   UNL     1      -0.612  -5.093  -1.225  0.00  0.00    -0.153 OA
BRANCH  25  32
ATOM     28  C   UNL     1      -0.289   1.364   0.007  0.00  0.00    +0.044 C 
ATOM     29  C   UNL     1      -0.210  -0.141  -0.002  0.00  0.00    -0.050 A 
ATOM     30  C   UNL     1      -0.083  -0.819  -1.200  0.00  0.00    +0.005 A 
ATOM     31  C   UNL     1      -0.010  -2.199  -1.209  0.00  0.00    +0.029 A 
ATOM     32  C   UNL     1      -0.065  -2.902  -0.020  0.00  0.00    +0.106 A 
ATOM     33  C   UNL     1      -0.191  -2.224   1.178  0.00  0.00    +0.029 A 
ATOM     34  C   UNL     1      -0.260  -0.843   1.187  0.00  0.00    +0.005 A 
ENDBRANCH  25  32
ENDBRANCH   1  25
BRANCH   7  35
ATOM     35  O   UNL     1       8.059  -8.498  -1.487  0.00  0.00    -0.495 OA
ATOM     36  C   UNL     1       9.301  -8.882  -0.894  0.00  0.00    +0.277 C 
ENDBRANCH   7  35
TORSDOF 5
