REMARK  Name = ZINC11867630
REMARK  7 active torsions:
REMARK  status: ('A' for Active; 'I' for Inactive)
REMARK    1  A    between atoms: C_1  and  C_2
REMARK    2  A    between atoms: C_2  and  C_3
REMARK    3  A    between atoms: C_8  and  C_31
REMARK    4  A    between atoms: C_12  and  C_15
REMARK    5  A    between atoms: C_13  and  O_14
REMARK    6  A    between atoms: C_15  and  N_62
REMARK    7  A    between atoms: C_33  and  C_36
REMARK                            x       y       z     vdW  Elec       q    Type
REMARK                         _______ _______ _______ _____ _____    ______ ____
ROOT
ATOM      1  C   UNL     1       0.558   1.500  -5.214  0.00  0.00    -0.005 A 
ATOM      2  C   UNL     1      -0.593   2.222  -5.356  0.00  0.00    +0.022 A 
ATOM      3  C   UNL     1      -1.808   1.676  -4.938  0.00  0.00    +0.065 A 
ATOM      4  C   UNL     1      -3.070   2.425  -5.075  0.00  0.00    +0.202 A 
ATOM      5  O   UNL     1      -3.099   3.545  -5.556  0.00  0.00    -0.286 OA
ATOM      6  C   UNL     1      -4.295   1.755  -4.602  0.00  0.00    +0.089 A 
ATOM      7  C   UNL     1      -4.192   0.504  -4.075  0.00  0.00    +0.210 A 
ATOM      8  O   UNL     1      -3.026  -0.137  -3.971  0.00  0.00    -0.462 OA
ATOM      9  C   UNL     1      -1.853   0.387  -4.378  0.00  0.00    +0.143 A 
ATOM     10  C   UNL     1      -0.673  -0.330  -4.236  0.00  0.00    +0.021 A 
ATOM     11  C   UNL     1       0.525   0.225  -4.655  0.00  0.00    +0.125 A 
ENDROOT
BRANCH   6  12
ATOM     12  C   UNL     1      -5.606   2.427  -4.698  0.00  0.00    +0.115 A 
ATOM     13  N   UNL     1      -6.805   1.989  -4.336  0.00  0.00    -0.244 NA
ATOM     14  C   UNL     1      -7.877   2.732  -4.493  0.00  0.00    +0.046 A 
ATOM     15  C   UNL     1      -7.770   3.968  -5.045  0.00  0.00    +0.070 A 
ATOM     16  S   UNL     1      -6.008   4.046  -5.341  0.00  0.00    -0.075 S 
ATOM     17  C   UNL     1      -9.225   2.211  -4.068  0.00  0.00    +0.066 C 
ENDBRANCH   6  12
BRANCH   1  19
ATOM     18  C   UNL     1       2.180   1.615  -7.086  0.00  0.00    +0.009 C 
ATOM     19  C   UNL     1       1.871   2.088  -5.664  0.00  0.00    +0.035 C 
ENDBRANCH   1  19
BRANCH  11  20
ATOM     20  O   UNL     1       1.676  -0.481  -4.521  0.00  0.00    -0.506 OA
ATOM     21  H   UNL     1       1.891  -1.034  -5.285  0.00  0.00    +0.292 HD
ENDBRANCH  11  20
BRANCH  10  22
ATOM     22  C   UNL     1      -0.696  -1.711  -3.634  0.00  0.00    -0.036 C 
BRANCH  22  36
ATOM     23  C   UNL     1      -0.291  -2.937  -1.588  0.00  0.00    -0.073 C 
ATOM     24  C   UNL     1      -0.044  -2.832  -0.090  0.00  0.00    -0.007 C 
ATOM     25  C   UNL     1      -1.196  -2.094   0.600  0.00  0.00    +0.011 C 
ATOM     26  C   UNL     1      -1.329  -0.719  -0.066  0.00  0.00    +0.020 C 
ATOM     27  C   UNL     1      -1.661  -0.939  -1.550  0.00  0.00    -0.069 C 
ATOM     28  C   UNL     1       0.002  -0.004   0.002  0.00  0.00    +0.023 A 
ATOM     29  C   UNL     1      -0.016   1.355   0.009  0.00  0.00    +0.022 A 
ATOM     30  C   UNL     1       1.179   2.082   0.002  0.00  0.00    +0.007 A 
ATOM     31  C   UNL     1       2.362   1.404  -0.045  0.00  0.00    +0.070 A 
ATOM     32  C   UNL     1       2.345   0.002  -0.066  0.00  0.00    +0.251 A 
ATOM     33  O   UNL     1       3.393  -0.613  -0.176  0.00  0.00    -0.268 OA
ATOM     34  N   UNL     1       1.175  -0.677   0.036  0.00  0.00    -0.312 N 
ATOM     35  C   UNL     1       1.265  -2.126   0.218  0.00  0.00    +0.126 C 
ATOM     36  N   UNL     1      -0.492  -1.597  -2.176  0.00  0.00    +0.383 N 
ATOM     37  H   UNL     1       0.344  -1.027  -2.000  0.00  0.00    -0.081 HD
ENDBRANCH  22  36
ENDBRANCH  10  22
TORSDOF 5
