REMARK  Name = ZINC44854144
REMARK  8 active torsions:
REMARK  status: ('A' for Active; 'I' for Inactive)
REMARK    1  A    between atoms: C_1  and  C_2
REMARK    2  A    between atoms: N_5  and  C_8
REMARK    3  A    between atoms: C_11  and  C_14
REMARK    4  A    between atoms: C_14  and  C_16
REMARK    5  A    between atoms: C_14  and  N_17
REMARK    6  A    between atoms: C_18  and  C_20
REMARK    7  A    between atoms: N_24  and  S_33
REMARK    8  A    between atoms: S_33  and  C_36
REMARK                            x       y       z     vdW  Elec       q    Type
REMARK                         _______ _______ _______ _____ _____    ______ ____
ROOT
ATOM      1  N   UNL     1      -1.611  -7.403   4.984  0.00  0.00    -0.306 N 
ATOM      2  C   UNL     1      -1.993  -8.632   5.385  0.00  0.00    +0.254 C 
ATOM      3  O   UNL     1      -3.169  -8.877   5.551  0.00  0.00    -0.272 OA
ATOM      4  H   UNL     1      -0.671  -7.207   4.851  0.00  0.00    +0.149 HD
ENDROOT
BRANCH   2   5
ATOM      5  C   UNL     1      -0.959  -9.701   5.626  0.00  0.00    +0.260 C 
ATOM      6  C   UNL     1      -0.066  -9.280   6.785  0.00  0.00    +0.075 C 
ATOM      7  C   UNL     1       1.108 -10.219   6.985  0.00  0.00    +0.135 C 
ATOM      8  N   UNL     1       0.632 -11.560   7.353  0.00  0.00    -0.204 N 
ATOM      9  C   UNL     1       0.203 -12.413   6.326  0.00  0.00    +0.094 A 
ATOM     10  C   UNL     1       0.895 -13.578   6.037  0.00  0.00    +0.048 A 
ATOM     11  C   UNL     1       0.455 -14.399   5.013  0.00  0.00    +0.043 A 
ATOM     12  C   UNL     1      -0.669 -14.058   4.281  0.00  0.00    +0.024 A 
ATOM     13  C   UNL     1      -1.363 -12.896   4.570  0.00  0.00    +0.049 A 
ATOM     14  C   UNL     1      -0.931 -12.074   5.595  0.00  0.00    +0.144 A 
ATOM     15  O   UNL     1      -1.619 -10.934   5.906  0.00  0.00    -0.478 OA
ATOM     16 CL   UNL     1       1.316 -15.861   4.645  0.00  0.00    -0.083 Cl
BRANCH   8  17
ATOM     17  S   UNL     1       0.605 -12.049   8.935  0.00  0.00    +0.043 S 
ATOM     18  O   UNL     1       0.705 -13.465   8.878  0.00  0.00    -0.155 OA
ATOM     19  O   UNL     1       1.613 -11.276   9.572  0.00  0.00    -0.155 OA
ATOM     20  C   UNL     1      -1.034 -11.563   9.545  0.00  0.00    +0.218 C 
ENDBRANCH   8  17
ENDBRANCH   2   5
BRANCH   1  21
ATOM     21  C   UNL     1      -2.617  -6.364   4.750  0.00  0.00    +0.100 C 
ATOM     22  C   UNL     1      -2.950  -5.669   6.071  0.00  0.00    +0.033 C 
BRANCH  21  26
ATOM     23  C   UNL     1      -1.080  -3.494   1.980  0.00  0.00    +0.030 A 
ATOM     24  C   UNL     1      -2.407  -3.899   1.899  0.00  0.00    +0.023 A 
ATOM     25  C   UNL     1      -2.900  -4.827   2.795  0.00  0.00    +0.007 A 
ATOM     26  C   UNL     1      -2.075  -5.352   3.773  0.00  0.00    -0.027 A 
ATOM     27  C   UNL     1      -0.754  -4.952   3.856  0.00  0.00    +0.007 A 
ATOM     28  C   UNL     1      -0.253  -4.028   2.960  0.00  0.00    +0.023 A 
BRANCH  23  33
ATOM     29  C   UNL     1      -0.045   1.525  -0.005  0.00  0.00    +0.007 C 
ATOM     30  C   UNL     1      -0.011  -0.004  -0.005  0.00  0.00    -0.011 C 
ATOM     31  C   UNL     1      -1.442  -0.546  -0.007  0.00  0.00    +0.022 C 
ATOM     32  C   UNL     1      -1.404  -2.077  -0.042  0.00  0.00    +0.105 C 
ATOM     33  N   UNL     1      -0.578  -2.556   1.075  0.00  0.00    -0.330 N 
ATOM     34  C   UNL     1       0.785  -2.029   1.222  0.00  0.00    +0.105 C 
ATOM     35  C   UNL     1       0.723  -0.498   1.244  0.00  0.00    +0.022 C 
ENDBRANCH  23  33
ENDBRANCH  21  26
ENDBRANCH   1  21
TORSDOF 5
