REMARK  Name = ZINC20527357
REMARK  8 active torsions:
REMARK  status: ('A' for Active; 'I' for Inactive)
REMARK    1  A    between atoms: C_4  and  N_7
REMARK    2  A    between atoms: C_8  and  C_10
REMARK    3  A    between atoms: C_10  and  S_11
REMARK    4  A    between atoms: S_11  and  C_12
REMARK    5  A    between atoms: N_16  and  N_17
REMARK    6  A    between atoms: N_18  and  N_19
REMARK    7  A    between atoms: C_20  and  C_21
REMARK    8  A    between atoms: C_23  and  N_28
REMARK                            x       y       z     vdW  Elec       q    Type
REMARK                         _______ _______ _______ _____ _____    ______ ____
ROOT
ATOM      1  C   UNL     1      -2.076   1.779  -1.049  0.00  0.00    +0.210 A 
ATOM      2  N   UNL     1      -2.380   2.246  -2.276  0.00  0.00    -0.119 NA
ATOM      3  N   UNL     1      -1.320   2.271  -3.004  0.00  0.00    -0.109 NA
ATOM      4  C   UNL     1      -0.271   1.827  -2.287  0.00  0.00    +0.254 A 
ATOM      5  N   UNL     1      -0.738   1.504  -1.037  0.00  0.00    -0.211 N 
ATOM      6  N   UNL     1       0.991   1.719  -2.715  0.00  0.00    -0.204 N 
ATOM      7  H   UNL     1       1.770   1.339  -2.038  0.00  0.00    +0.177 HD
ENDROOT
BRANCH   5   8
ATOM      8  N   UNL     1      -0.010   1.011   0.009  0.00  0.00    -0.294 N 
ATOM      9  H   UNL     1       1.069   0.831  -0.108  0.00  0.00    +0.163 HD
ATOM     10  H   UNL     1      -0.503   0.795   0.968  0.00  0.00    +0.163 HD
ENDBRANCH   5   8
BRANCH   6  11
ATOM     11  N   UNL     1       1.296   2.060  -3.921  0.00  0.00    -0.187 NA
ATOM     12  C   UNL     1       2.540   1.953  -4.342  0.00  0.00    +0.142 C 
BRANCH  12  13
ATOM     13  C   UNL     1       2.874   2.328  -5.667  0.00  0.00    +0.043 A 
ATOM     14  C   UNL     1       4.199   2.216  -6.122  0.00  0.00    +0.046 A 
ATOM     15  C   UNL     1       4.513   2.579  -7.399  0.00  0.00    +0.127 A 
ATOM     16  C   UNL     1       3.533   3.059  -8.258  0.00  0.00    +0.036 A 
ATOM     17  C   UNL     1       2.224   3.178  -7.834  0.00  0.00    +0.054 A 
ATOM     18  C   UNL     1       1.877   2.811  -6.543  0.00  0.00    +0.188 A 
ATOM     19  O   UNL     1       0.593   2.920  -6.124  0.00  0.00    -0.287 OA
BRANCH  15  20
ATOM     20  N   UNL     1       5.910   2.459  -7.873  0.00  0.00    +0.056 N 
ATOM     21  O   UNL     1       6.844   2.004  -7.063  0.00  0.00    -0.126 OA
ATOM     22  O   UNL     1       6.220   2.808  -9.105  0.00  0.00    -0.126 OA
ENDBRANCH  15  20
ENDBRANCH  12  13
ENDBRANCH   6  11
BRANCH   1  23
ATOM     23  S   UNL     1      -3.166   1.570   0.255  0.00  0.00    -0.075 S 
BRANCH  23  24
ATOM     24  C   UNL     1      -4.699   2.138  -0.522  0.00  0.00    +0.173 C 
BRANCH  24  26
ATOM     25  N   UNL     1      -7.075   2.412   0.108  0.00  0.00    -0.285 N 
ATOM     26  C   UNL     1      -5.830   2.041   0.468  0.00  0.00    +0.227 C 
ATOM     27  O   UNL     1      -5.621   1.628   1.589  0.00  0.00    -0.275 OA
ATOM     28  H   UNL     1      -7.251   2.858  -0.882  0.00  0.00    +0.155 HD
BRANCH  25  32
ATOM     29  C   UNL     1     -10.254   1.875   2.746  0.00  0.00    +0.000 A 
ATOM     30  C   UNL     1      -9.002   2.206   3.232  0.00  0.00    +0.002 A 
ATOM     31  C   UNL     1      -7.946   2.385   2.361  0.00  0.00    +0.023 A 
ATOM     32  C   UNL     1      -8.143   2.232   0.994  0.00  0.00    +0.033 A 
ATOM     33  C   UNL     1      -9.402   1.905   0.509  0.00  0.00    +0.023 A 
ATOM     34  C   UNL     1     -10.453   1.722   1.386  0.00  0.00    +0.002 A 
ENDBRANCH  25  32
ENDBRANCH  24  26
ENDBRANCH  23  24
ENDBRANCH   1  23
TORSDOF 8
