REMARK  Name = ZINC39964273
REMARK  10 active torsions:
REMARK  status: ('A' for Active; 'I' for Inactive)
REMARK    1  A    between atoms: C_1  and  C_2
REMARK    2  A    between atoms: C_5  and  S_13
REMARK    3  A    between atoms: C_7  and  O_8
REMARK    4  A    between atoms: O_8  and  C_9
REMARK    5  A    between atoms: C_9  and  C_10
REMARK    6  A    between atoms: S_13  and  N_16
REMARK    7  A    between atoms: N_16  and  C_17
REMARK    8  A    between atoms: C_20  and  S_23
REMARK    9  A    between atoms: S_23  and  N_26
REMARK   10  A    between atoms: N_29  and  C_32
REMARK                            x       y       z     vdW  Elec       q    Type
REMARK                         _______ _______ _______ _____ _____    ______ ____
ROOT
ATOM      1  S   UNL     1       0.063  -4.534  -0.026  0.00  0.00    +0.093 S 
ATOM      2  O   UNL     1       1.089  -4.920  -0.930  0.00  0.00    -0.148 OA
ATOM      3  O   UNL     1       0.048  -4.951   1.332  0.00  0.00    -0.148 OA
ENDROOT
BRANCH   1   8
ATOM      4  C   UNL     1      -0.018   1.503   0.010  0.00  0.00    +0.047 C 
ATOM      5  C   UNL     1       0.002  -0.004   0.002  0.00  0.00    -0.007 A 
ATOM      6  C   UNL     1       0.006  -0.689  -1.198  0.00  0.00    +0.029 A 
ATOM      7  C   UNL     1       0.024  -2.072  -1.206  0.00  0.00    +0.068 A 
ATOM      8  C   UNL     1       0.040  -2.773  -0.013  0.00  0.00    +0.132 A 
ATOM      9  C   UNL     1       0.036  -2.092   1.189  0.00  0.00    +0.076 A 
ATOM     10  C   UNL     1       0.023  -0.704   1.199  0.00  0.00    +0.126 A 
ATOM     11 CL   UNL     1       0.028  -2.930  -2.715  0.00  0.00    -0.082 Cl
BRANCH  10  12
ATOM     12  O   UNL     1       0.025  -0.033   2.381  0.00  0.00    -0.482 OA
BRANCH  12  13
ATOM     13  C   UNL     1       0.048  -0.819   3.574  0.00  0.00    +0.324 C 
BRANCH  13  14
ATOM     14  C   UNL     1       0.047   0.092   4.775  0.00  0.00    +0.248 C 
ATOM     15  O   UNL     1       0.030   1.295   4.624  0.00  0.00    -0.272 OA
ATOM     16  N   UNL     1       0.066  -0.431   6.017  0.00  0.00    -0.327 N 
ATOM     17  H   UNL     1       0.080  -1.394   6.138  0.00  0.00    +0.145 HD
ATOM     18  H   UNL     1       0.066   0.154   6.790  0.00  0.00    +0.145 HD
ENDBRANCH  13  14
ENDBRANCH  12  13
ENDBRANCH  10  12
ENDBRANCH   1   8
BRANCH   1  19
ATOM     19  N   UNL     1      -1.368  -5.038  -0.692  0.00  0.00    -0.098 NA
BRANCH  19  20
ATOM     20  C   UNL     1      -1.631  -6.402  -0.832  0.00  0.00    +0.074 A 
ATOM     21  C   UNL     1      -0.696  -7.339  -0.408  0.00  0.00    +0.028 A 
ATOM     22  C   UNL     1      -0.960  -8.687  -0.547  0.00  0.00    +0.030 A 
ATOM     23  C   UNL     1      -2.152  -9.106  -1.109  0.00  0.00    +0.106 A 
ATOM     24  C   UNL     1      -3.085  -8.176  -1.531  0.00  0.00    +0.030 A 
ATOM     25  C   UNL     1      -2.830  -6.826  -1.390  0.00  0.00    +0.028 A 
BRANCH  23  26
ATOM     26  S   UNL     1      -2.484 -10.827  -1.286  0.00  0.00    +0.061 S 
ATOM     27  O   UNL     1      -3.432 -10.952  -2.337  0.00  0.00    -0.153 OA
ATOM     28  O   UNL     1      -1.224 -11.483  -1.315  0.00  0.00    -0.153 OA
BRANCH  26  29
ATOM     29  N   UNL     1      -3.244 -11.324   0.099  0.00  0.00    -0.174 NA
ATOM     30  C   UNL     1      -2.471 -11.814   1.250  0.00  0.00    +0.125 C 
ATOM     31  C   UNL     1      -2.931 -11.060   2.502  0.00  0.00    +0.101 C 
ATOM     32  N   UNL     1      -4.389 -11.182   2.636  0.00  0.00    -0.303 NA
ATOM     33  C   UNL     1      -5.082 -10.554   1.503  0.00  0.00    +0.101 C 
ATOM     34  C   UNL     1      -4.710 -11.282   0.212  0.00  0.00    +0.125 C 
ATOM     35  C   UNL     1      -4.850 -10.620   3.912  0.00  0.00    +0.105 C 
ENDBRANCH  26  29
ENDBRANCH  23  26
ENDBRANCH  19  20
ENDBRANCH   1  19
TORSDOF 8
