REMARK  Name = ZINC04225714
REMARK  3 active torsions:
REMARK  status: ('A' for Active; 'I' for Inactive)
REMARK    1  A    between atoms: C_6  and  N_7
REMARK    2  A    between atoms: C_10  and  C_16
REMARK    3  A    between atoms: N_18  and  C_19
REMARK                            x       y       z     vdW  Elec       q    Type
REMARK                         _______ _______ _______ _____ _____    ______ ____
ROOT
ATOM      1  N   UNL     1       1.393   1.861   0.288  0.00  0.00    -0.229 N 
ATOM      2  C   UNL     1       1.264   3.204   0.308  0.00  0.00    +0.273 A 
ATOM      3  O   UNL     1       2.222   3.924   0.099  0.00  0.00    -0.266 OA
ATOM      4  C   UNL     1      -0.061   3.779   0.590  0.00  0.00    +0.118 A 
ATOM      5  C   UNL     1      -1.111   2.911   0.820  0.00  0.00    +0.106 A 
ATOM      6  N   UNL     1      -0.889   1.572   0.774  0.00  0.00    -0.313 N 
ATOM      7  H   UNL     1      -1.652   0.944   0.933  0.00  0.00    +0.170 HD
ATOM      8  C   UNL     1       0.330   1.071   0.521  0.00  0.00    +0.334 A 
ATOM      9  O   UNL     1       0.477  -0.135   0.496  0.00  0.00    -0.246 OA
ENDROOT
BRANCH   1  15
ATOM     10  C   UNL     1       3.328   0.617   1.029  0.00  0.00    +0.028 A 
ATOM     11  C   UNL     1       4.557   0.046   0.764  0.00  0.00    +0.022 A 
ATOM     12  C   UNL     1       5.111   0.149  -0.500  0.00  0.00    +0.041 A 
ATOM     13  C   UNL     1       4.433   0.820  -1.502  0.00  0.00    +0.022 A 
ATOM     14  C   UNL     1       3.201   1.388  -1.244  0.00  0.00    +0.028 A 
ATOM     15  C   UNL     1       2.643   1.286   0.023  0.00  0.00    +0.054 A 
ATOM     16 CL   UNL     1       6.660  -0.563  -0.828  0.00  0.00    -0.084 Cl
ENDBRANCH   1  15
BRANCH   4  17
ATOM     17  C   UNL     1      -0.263   5.235   0.624  0.00  0.00    +0.255 C 
ATOM     18  O   UNL     1      -1.318   5.694   1.017  0.00  0.00    -0.270 OA
ATOM     19  N   UNL     1       0.723   6.061   0.220  0.00  0.00    -0.281 N 
ATOM     20  H   UNL     1       1.514   5.699  -0.208  0.00  0.00    +0.155 HD
BRANCH  19  21
ATOM     21  C   UNL     1       0.604   7.442   0.418  0.00  0.00    +0.035 A 
ATOM     22  C   UNL     1      -0.653   8.024   0.518  0.00  0.00    +0.026 A 
ATOM     23  C   UNL     1      -0.769   9.386   0.718  0.00  0.00    +0.041 A 
ATOM     24  C   UNL     1       0.367  10.172   0.808  0.00  0.00    +0.142 A 
ATOM     25  C   UNL     1       1.622   9.595   0.703  0.00  0.00    +0.078 A 
ATOM     26  C   UNL     1       1.742   8.232   0.508  0.00  0.00    +0.046 A 
ATOM     27 CL   UNL     1       3.045  10.584   0.816  0.00  0.00    -0.081 Cl
ATOM     28  F   UNL     1       0.252  11.505   1.000  0.00  0.00    -0.204 F 
ENDBRANCH  19  21
ENDBRANCH   4  17
TORSDOF 3
