REMARK  Name = ZINC02428007
REMARK  5 active torsions:
REMARK  status: ('A' for Active; 'I' for Inactive)
REMARK    1  A    between atoms: C_1  and  C_2
REMARK    2  A    between atoms: C_4  and  C_15
REMARK    3  A    between atoms: C_5  and  C_14
REMARK    4  A    between atoms: N_6  and  C_7
REMARK    5  A    between atoms: N_22  and  C_25
REMARK                            x       y       z     vdW  Elec       q    Type
REMARK                         _______ _______ _______ _____ _____    ______ ____
ROOT
ATOM      1  C   UNL     1      -5.433  -0.756  -1.381  0.00  0.00    +0.028 C 
ATOM      2  C   UNL     1      -6.657  -0.791  -0.733  0.00  0.00    +0.100 C 
ATOM      3  C   UNL     1      -7.927  -0.779  -1.484  0.00  0.00    +0.257 C 
ATOM      4  O   UNL     1      -7.933  -0.739  -2.700  0.00  0.00    -0.270 OA
ATOM      5  N   UNL     1      -9.080  -0.820  -0.786  0.00  0.00    -0.235 N 
ATOM      6  C   UNL     1      -9.088  -0.858   0.554  0.00  0.00    +0.320 C 
ATOM      7  O   UNL     1     -10.161  -0.888   1.123  0.00  0.00    -0.251 OA
ATOM      8  N   UNL     1      -7.974  -0.866   1.300  0.00  0.00    -0.190 N 
ATOM      9  C   UNL     1      -6.748  -0.834   0.738  0.00  0.00    +0.263 C 
ATOM     10  O   UNL     1      -5.745  -0.841   1.426  0.00  0.00    -0.269 OA
ATOM     11  H   UNL     1      -9.924  -0.817  -1.264  0.00  0.00    +0.159 HD
ENDROOT
BRANCH   1  15
ATOM     12  C   UNL     1      -2.069  -2.667   1.862  0.00  0.00    +0.064 C 
ATOM     13  C   UNL     1      -2.747  -1.843   0.798  0.00  0.00    +0.022 A 
ATOM     14  C   UNL     1      -4.016  -1.995   0.389  0.00  0.00    +0.031 A 
ATOM     15  C   UNL     1      -4.241  -0.982  -0.654  0.00  0.00    -0.003 A 
ATOM     16  C   UNL     1      -3.045  -0.289  -0.773  0.00  0.00    +0.028 A 
ATOM     17  N   UNL     1      -2.166  -0.822   0.097  0.00  0.00    -0.317 N 
ATOM     18  C   UNL     1      -2.775   0.856  -1.714  0.00  0.00    +0.064 C 
BRANCH  17  19
ATOM     19  C   UNL     1      -0.844  -0.387   0.265  0.00  0.00    +0.047 A 
ATOM     20  C   UNL     1       0.211  -1.232  -0.052  0.00  0.00    +0.029 A 
ATOM     21  C   UNL     1       1.513  -0.800   0.109  0.00  0.00    +0.040 A 
ATOM     22  C   UNL     1       1.766   0.474   0.591  0.00  0.00    +0.124 A 
ATOM     23  C   UNL     1       0.715   1.316   0.912  0.00  0.00    +0.040 A 
ATOM     24  C   UNL     1      -0.588   0.888   0.753  0.00  0.00    +0.029 A 
ATOM     25  F   UNL     1       3.041   0.895   0.747  0.00  0.00    -0.205 F 
ENDBRANCH  17  19
ENDBRANCH   1  15
BRANCH   8  26
ATOM     26  C   UNL     1      -8.086  -0.907   2.697  0.00  0.00    +0.046 A 
ATOM     27  C   UNL     1      -8.001   0.264   3.437  0.00  0.00    +0.025 A 
ATOM     28  C   UNL     1      -8.118   0.221   4.812  0.00  0.00    +0.017 A 
ATOM     29  C   UNL     1      -8.307  -0.990   5.454  0.00  0.00    +0.018 A 
ATOM     30  C   UNL     1      -8.386  -2.160   4.719  0.00  0.00    +0.017 A 
ATOM     31  C   UNL     1      -8.276  -2.121   3.343  0.00  0.00    +0.025 A 
ATOM     32 BR   UNL     1      -8.458  -1.047   7.338  0.00  0.00    -0.050 Br
ENDBRANCH   8  26
TORSDOF 3
