REMARK  Name = ZINC28347717
REMARK  9 active torsions:
REMARK  status: ('A' for Active; 'I' for Inactive)
REMARK    1  A    between atoms: C_1  and  C_2
REMARK    2  A    between atoms: C_5  and  C_22
REMARK    3  A    between atoms: C_6  and  N_8
REMARK    4  A    between atoms: N_8  and  C_9
REMARK    5  A    between atoms: C_9  and  N_11
REMARK    6  A    between atoms: N_11  and  N_12
REMARK    7  A    between atoms: C_13  and  C_15
REMARK    8  A    between atoms: C_15  and  C_17
REMARK    9  A    between atoms: C_15  and  N_18
REMARK                            x       y       z     vdW  Elec       q    Type
REMARK                         _______ _______ _______ _____ _____    ______ ____
ROOT
ATOM      1  N   UNL     1      -4.552   0.592   1.636  0.00  0.00    -0.246 N 
ATOM      2  H   UNL     1      -4.241  -0.262   2.256  0.00  0.00    +0.172 HD
ENDROOT
BRANCH   1   3
ATOM      3  N   UNL     1      -3.645   1.174   0.741  0.00  0.00    -0.234 N 
ATOM      4  C   UNL     1      -2.392   0.689   0.640  0.00  0.00    +0.249 C 
ATOM      5  O   UNL     1      -2.049  -0.252   1.324  0.00  0.00    -0.272 OA
ATOM      6  H   UNL     1      -3.956   2.028   0.120  0.00  0.00    +0.173 HD
BRANCH   4   7
ATOM      7  C   UNL     1      -1.416   1.316  -0.323  0.00  0.00    +0.159 C 
ATOM      8  C   UNL     1      -1.968   1.214  -1.746  0.00  0.00    +0.038 C 
BRANCH   7   9
ATOM      9  N   UNL     1      -0.133   0.613  -0.245  0.00  0.00    -0.288 N 
ATOM     10  C   UNL     1       1.004   1.245  -0.598  0.00  0.00    +0.298 C 
ATOM     11  O   UNL     1       0.965   2.400  -0.977  0.00  0.00    -0.253 OA
ATOM     12  N   UNL     1       2.183   0.597  -0.532  0.00  0.00    -0.313 N 
ATOM     13  H   UNL     1      -0.098  -0.430   0.102  0.00  0.00    +0.151 HD
ATOM     14  H   UNL     1       3.111   1.112  -0.820  0.00  0.00    +0.146 HD
ATOM     15  H   UNL     1       2.218  -0.448  -0.189  0.00  0.00    +0.146 HD
ENDBRANCH   7   9
ENDBRANCH   4   7
ENDBRANCH   1   3
BRANCH   1  16
ATOM     16  C   UNL     1      -5.805   1.077   1.737  0.00  0.00    +0.151 C 
ATOM     17  S   UNL     1      -6.913   0.365   2.831  0.00  0.00    -0.017 S 
BRANCH  16  18
ATOM     18  N   UNL     1      -6.186   2.123   0.977  0.00  0.00    -0.296 N 
ATOM     19  H   UNL     1      -5.451   2.637   0.341  0.00  0.00    +0.154 HD
BRANCH  18  25
ATOM     20  C   UNL     1     -10.983   1.049   0.909  0.00  0.00    +0.044 C 
ATOM     21  C   UNL     1      -9.862   2.054   0.965  0.00  0.00    -0.049 A 
ATOM     22  C   UNL     1     -10.149   3.406   1.036  0.00  0.00    +0.004 A 
ATOM     23  C   UNL     1      -9.123   4.332   1.086  0.00  0.00    +0.005 A 
ATOM     24  C   UNL     1      -7.808   3.909   1.067  0.00  0.00    -0.029 A 
ATOM     25  C   UNL     1      -7.517   2.553   0.997  0.00  0.00    +0.036 A 
ATOM     26  C   UNL     1      -8.550   1.626   0.940  0.00  0.00    +0.027 A 
ATOM     27  C   UNL     1      -6.691   4.919   1.122  0.00  0.00    +0.045 C 
ENDBRANCH  18  25
ENDBRANCH  16  18
ENDBRANCH   1  16
TORSDOF 6
