REMARK  Name = ZINC39971132
REMARK  10 active torsions:
REMARK  status: ('A' for Active; 'I' for Inactive)
REMARK    1  A    between atoms: C_1  and  C_2
REMARK    2  A    between atoms: N_4  and  C_5
REMARK    3  A    between atoms: N_4  and  C_6
REMARK    4  A    between atoms: C_9  and  N_12
REMARK    5  A    between atoms: N_12  and  C_13
REMARK    6  A    between atoms: C_13  and  N_15
REMARK    7  A    between atoms: N_15  and  C_16
REMARK    8  A    between atoms: C_19  and  S_22
REMARK    9  A    between atoms: S_22  and  N_25
REMARK   10  A    between atoms: N_25  and  C_26
REMARK                            x       y       z     vdW  Elec       q    Type
REMARK                         _______ _______ _______ _____ _____    ______ ____
ROOT
ATOM      1  C   UNL     1      -1.848 -14.974   0.152  0.00  0.00    +0.033 A 
ATOM      2  C   UNL     1      -1.631 -13.820  -0.590  0.00  0.00    +0.025 A 
ATOM      3  C   UNL     1      -2.701 -13.029  -0.961  0.00  0.00    +0.030 A 
ATOM      4  C   UNL     1      -3.986 -13.384  -0.596  0.00  0.00    +0.109 A 
ATOM      5  C   UNL     1      -4.205 -14.533   0.143  0.00  0.00    +0.030 A 
ATOM      6  C   UNL     1      -3.141 -15.331   0.513  0.00  0.00    +0.025 A 
ENDROOT
BRANCH   4   7
ATOM      7  S   UNL     1      -5.347 -12.372  -1.072  0.00  0.00    +0.072 S 
ATOM      8  O   UNL     1      -6.341 -12.529  -0.068  0.00  0.00    -0.150 OA
ATOM      9  O   UNL     1      -4.808 -11.104  -1.419  0.00  0.00    -0.150 OA
BRANCH   7  10
ATOM     10  N   UNL     1      -5.974 -13.017  -2.463  0.00  0.00    -0.216 N 
ATOM     11  H   UNL     1      -6.865 -13.400  -2.461  0.00  0.00    +0.174 HD
BRANCH  10  12
ATOM     12  C   UNL     1      -5.219 -13.009  -3.639  0.00  0.00    +0.048 A 
ATOM     13  C   UNL     1      -5.543 -12.133  -4.667  0.00  0.00    +0.026 A 
ATOM     14  C   UNL     1      -4.795 -12.127  -5.828  0.00  0.00    +0.022 A 
ATOM     15  C   UNL     1      -3.724 -12.992  -5.967  0.00  0.00    +0.041 A 
ATOM     16  C   UNL     1      -3.399 -13.866  -4.944  0.00  0.00    +0.022 A 
ATOM     17  C   UNL     1      -4.140 -13.872  -3.779  0.00  0.00    +0.026 A 
ATOM     18 CL   UNL     1      -2.787 -12.982  -7.429  0.00  0.00    -0.084 Cl
ENDBRANCH  10  12
ENDBRANCH   7  10
ENDBRANCH   4   7
BRANCH   1  19
ATOM     19  N   UNL     1      -0.768 -15.778   0.530  0.00  0.00    -0.297 N 
ATOM     20  H   UNL     1      -0.854 -16.744   0.518  0.00  0.00    +0.154 HD
BRANCH  19  21
ATOM     21  C   UNL     1       0.394 -15.210   0.910  0.00  0.00    +0.139 C 
ATOM     22  S   UNL     1       0.499 -13.511   1.085  0.00  0.00    -0.018 S 
BRANCH  21  23
ATOM     23  N   UNL     1       1.473 -15.981   1.152  0.00  0.00    -0.297 N 
ATOM     24  H   UNL     1       1.400 -16.947   1.104  0.00  0.00    +0.154 HD
BRANCH  23  28
ATOM     25  C   UNL     1       5.126 -14.212   2.109  0.00  0.00    +0.036 A 
ATOM     26  C   UNL     1       3.950 -13.718   2.659  0.00  0.00    +0.025 A 
ATOM     27  C   UNL     1       2.741 -14.304   2.342  0.00  0.00    +0.025 A 
ATOM     28  C   UNL     1       2.700 -15.386   1.473  0.00  0.00    +0.033 A 
ATOM     29  C   UNL     1       3.876 -15.880   0.923  0.00  0.00    +0.025 A 
ATOM     30  C   UNL     1       5.084 -15.291   1.236  0.00  0.00    +0.025 A 
BRANCH  25  34
ATOM     31  C   UNL     1       8.217 -13.181   3.997  0.00  0.00    +0.109 C 
ATOM     32  C   UNL     1       6.848 -13.726   3.679  0.00  0.00    +0.216 C 
ATOM     33  O   UNL     1       6.192 -14.262   4.547  0.00  0.00    -0.276 OA
ATOM     34  N   UNL     1       6.353 -13.618   2.430  0.00  0.00    -0.275 N 
ATOM     35  C   UNL     1       7.098 -12.878   1.408  0.00  0.00    +0.138 C 
ENDBRANCH  25  34
ENDBRANCH  23  28
ENDBRANCH  21  23
ENDBRANCH  19  21
ENDBRANCH   1  19
TORSDOF 8
