REMARK  Name = ZINC40684841
REMARK  6 active torsions:
REMARK  status: ('A' for Active; 'I' for Inactive)
REMARK    1  A    between atoms: C_4  and  N_7
REMARK    2  A    between atoms: N_7  and  C_8
REMARK    3  A    between atoms: N_7  and  N_14
REMARK    4  A    between atoms: C_16  and  N_31
REMARK    5  A    between atoms: C_17  and  N_21
REMARK    6  A    between atoms: N_21  and  C_22
REMARK                            x       y       z     vdW  Elec       q    Type
REMARK                         _______ _______ _______ _____ _____    ______ ____
ROOT
ATOM      1  N   UNL     1       5.214  -0.375  -0.728  0.00  0.00    -0.242 N 
ATOM      2  C   UNL     1       6.244  -0.031   0.139  0.00  0.00    +0.161 A 
ATOM      3  C   UNL     1       7.168   0.955  -0.214  0.00  0.00    +0.105 A 
ATOM      4  C   UNL     1       8.182   1.263   0.694  0.00  0.00    +0.126 A 
ATOM      5  N   UNL     1       8.231   0.609   1.853  0.00  0.00    -0.333 N 
ATOM      6  C   UNL     1       7.339  -0.315   2.147  0.00  0.00    +0.200 A 
ATOM      7  N   UNL     1       6.362  -0.631   1.321  0.00  0.00    -0.219 NA
ATOM      8  H   UNL     1       5.135   0.068  -1.587  0.00  0.00    +0.172 HD
ATOM      9  H   UNL     1       8.932   0.816   2.490  0.00  0.00    +0.168 HD
ENDROOT
BRANCH   3  10
ATOM     10  N   UNL     1       7.079   1.619  -1.448  0.00  0.00    -0.353 N 
ATOM     11  H   UNL     1       6.368   1.394  -2.069  0.00  0.00    +0.143 HD
ATOM     12  H   UNL     1       7.727   2.302  -1.680  0.00  0.00    +0.143 HD
ENDBRANCH   3  10
BRANCH   4  13
ATOM     13  N   UNL     1       9.128   2.236   0.393  0.00  0.00    -0.299 N 
ATOM     14  H   UNL     1       9.034   2.771  -0.411  0.00  0.00    +0.154 HD
BRANCH  13  15
ATOM     15  C   UNL     1      10.217   2.443   1.248  0.00  0.00    +0.036 A 
ATOM     16  C   UNL     1      10.864   1.358   1.824  0.00  0.00    +0.027 A 
ATOM     17  C   UNL     1      11.938   1.561   2.669  0.00  0.00    +0.051 A 
ATOM     18  C   UNL     1      12.373   2.848   2.943  0.00  0.00    +0.166 A 
ATOM     19  C   UNL     1      11.726   3.938   2.367  0.00  0.00    +0.168 A 
ATOM     20  C   UNL     1      10.653   3.733   1.516  0.00  0.00    +0.072 A 
ATOM     21  O   UNL     1      12.338   5.082   2.791  0.00  0.00    -0.453 OA
ATOM     22  C   UNL     1      13.103   4.703   3.951  0.00  0.00    +0.466 C 
ATOM     23  O   UNL     1      13.391   3.309   3.729  0.00  0.00    -0.453 OA
ENDBRANCH  13  15
ENDBRANCH   4  13
BRANCH   1  24
ATOM     24  N   UNL     1       4.289  -1.361  -0.360  0.00  0.00    -0.221 N 
BRANCH  24  28
ATOM     25  C   UNL     1       0.444  -0.277   0.814  0.00  0.00    +0.000 A 
ATOM     26  C   UNL     1       1.540   0.339   1.389  0.00  0.00    +0.002 A 
ATOM     27  C   UNL     1       2.817  -0.018   1.002  0.00  0.00    +0.025 A 
ATOM     28  C   UNL     1       2.999  -0.998   0.034  0.00  0.00    +0.053 A 
ATOM     29  C   UNL     1       1.895  -1.615  -0.541  0.00  0.00    +0.025 A 
ATOM     30  C   UNL     1       0.622  -1.253  -0.150  0.00  0.00    +0.002 A 
ENDBRANCH  24  28
BRANCH  24  31
ATOM     31  C   UNL     1       4.658  -2.709  -0.388  0.00  0.00    +0.053 A 
ATOM     32  C   UNL     1       5.875  -3.087  -0.941  0.00  0.00    +0.025 A 
ATOM     33  C   UNL     1       6.236  -4.419  -0.966  0.00  0.00    +0.002 A 
ATOM     34  C   UNL     1       5.388  -5.377  -0.442  0.00  0.00    +0.000 A 
ATOM     35  C   UNL     1       4.175  -5.005   0.109  0.00  0.00    +0.002 A 
ATOM     36  C   UNL     1       3.810  -3.674   0.142  0.00  0.00    +0.025 A 
ENDBRANCH  24  31
ENDBRANCH   1  24
TORSDOF 6
