REMARK  Name = ZINC40118588
REMARK  8 active torsions:
REMARK  status: ('A' for Active; 'I' for Inactive)
REMARK    1  A    between atoms: C_1  and  C_2
REMARK    2  A    between atoms: C_2  and  C_3
REMARK    3  A    between atoms: C_2  and  N_4
REMARK    4  A    between atoms: C_5  and  C_7
REMARK    5  A    between atoms: C_7  and  N_8
REMARK    6  A    between atoms: C_15  and  C_17
REMARK    7  A    between atoms: C_18  and  C_19
REMARK    8  A    between atoms: C_22  and  C_24
REMARK                            x       y       z     vdW  Elec       q    Type
REMARK                         _______ _______ _______ _____ _____    ______ ____
ROOT
ATOM      1  N   UNL     1       4.191  -1.096  -2.191  0.00  0.00    +0.386 N 
ATOM      2  C   UNL     1       4.856  -1.329  -3.472  0.00  0.00    -0.077 C 
ATOM      3  C   UNL     1       6.224  -0.684  -3.449  0.00  0.00    +0.000 C 
ATOM      4  C   UNL     1       7.271  -1.722  -3.005  0.00  0.00    +0.106 C 
ATOM      5  N   UNL     1       6.747  -2.574  -1.919  0.00  0.00    -0.300 N 
ATOM      6  C   UNL     1       5.962  -2.041  -0.824  0.00  0.00    +0.089 C 
ATOM      7  C   UNL     1       4.462  -2.061  -1.196  0.00  0.00    -0.059 C 
ATOM      8  C   UNL     1       7.007  -3.896  -1.947  0.00  0.00    +0.239 C 
ATOM      9  O   UNL     1       7.591  -4.382  -2.900  0.00  0.00    -0.271 OA
ATOM     10  H   UNL     1       4.480  -0.193  -1.845  0.00  0.00    -0.081 HD
ENDROOT
BRANCH   8  11
ATOM     11  C   UNL     1       6.603  -4.720  -0.871  0.00  0.00    +0.068 C 
ATOM     12  C   UNL     1       6.958  -6.030  -0.849  0.00  0.00    +0.020 C 
BRANCH  12  13
ATOM     13  C   UNL     1       6.554  -6.854   0.227  0.00  0.00    +0.013 A 
ATOM     14  C   UNL     1       6.814  -8.204   0.440  0.00  0.00    +0.016 A 
ATOM     15  C   UNL     1       6.315  -8.796   1.565  0.00  0.00    +0.017 A 
ATOM     16  C   UNL     1       5.570  -8.030   2.449  0.00  0.00    +0.020 A 
ATOM     17  S   UNL     1       5.586  -6.427   1.665  0.00  0.00    -0.089 S 
BRANCH  16  18
ATOM     18  C   UNL     1       4.933  -8.436   3.717  0.00  0.00    -0.011 A 
ATOM     19  C   UNL     1       5.047  -9.752   4.170  0.00  0.00    +0.012 A 
ATOM     20  C   UNL     1       4.450 -10.125   5.355  0.00  0.00    +0.039 A 
ATOM     21  C   UNL     1       3.736  -9.197   6.097  0.00  0.00    +0.123 A 
ATOM     22  C   UNL     1       3.618  -7.889   5.652  0.00  0.00    +0.039 A 
ATOM     23  C   UNL     1       4.217  -7.503   4.472  0.00  0.00    +0.012 A 
ATOM     24  F   UNL     1       3.152  -9.568   7.257  0.00  0.00    -0.205 F 
ENDBRANCH  16  18
ENDBRANCH  12  13
ENDBRANCH   8  11
BRANCH   1  25
ATOM     25  C   UNL     1       2.741  -1.060  -2.421  0.00  0.00    +0.019 C 
BRANCH  25  27
ATOM     26  N   UNL     1       0.704  -0.458  -1.153  0.00  0.00    -0.315 N 
ATOM     27  C   UNL     1       2.047  -0.572  -1.176  0.00  0.00    +0.197 C 
ATOM     28  O   UNL     1       2.696  -0.282  -0.193  0.00  0.00    -0.278 OA
ATOM     29  H   UNL     1       0.184  -0.689  -1.939  0.00  0.00    +0.149 HD
BRANCH  26  31
ATOM     30  C   UNL     1       0.013   1.547   0.066  0.00  0.00    +0.027 C 
ATOM     31  C   UNL     1       0.029   0.017   0.057  0.00  0.00    +0.067 C 
ATOM     32  C   UNL     1      -1.408  -0.509   0.079  0.00  0.00    +0.027 C 
ENDBRANCH  26  31
ENDBRANCH  25  27
ENDBRANCH   1  25
TORSDOF 6
