REMARK  Name = ZINC06492433
REMARK  4 active torsions:
REMARK  status: ('A' for Active; 'I' for Inactive)
REMARK    1  A    between atoms: C_1  and  C_2
REMARK    2  A    between atoms: C_2  and  O_3
REMARK    3  A    between atoms: O_3  and  C_4
REMARK    4  A    between atoms: N_9  and  C_12
REMARK                            x       y       z     vdW  Elec       q    Type
REMARK                         _______ _______ _______ _____ _____    ______ ____
ROOT
ATOM      1  C   UNL     1       4.208  -3.727  -4.946  0.00  0.00    +0.082 A 
ATOM      2  C   UNL     1       3.479  -3.986  -6.103  0.00  0.00    +0.147 A 
ATOM      3  C   UNL     1       4.109  -4.499  -7.221  0.00  0.00    +0.068 A 
ATOM      4  C   UNL     1       5.472  -4.758  -7.190  0.00  0.00    +0.069 A 
ATOM      5  C   UNL     1       6.205  -4.499  -6.031  0.00  0.00    +0.081 A 
ATOM      6  C   UNL     1       5.571  -3.978  -4.912  0.00  0.00    +0.067 A 
ATOM      7 BR   UNL     1       6.563  -3.619  -3.342  0.00  0.00    -0.046 Br
ATOM      8  N   UNL     1       7.525  -4.854  -6.302  0.00  0.00    -0.333 N 
ATOM      9  C   UNL     1       7.592  -5.307  -7.567  0.00  0.00    +0.156 A 
ATOM     10  N   UNL     1       6.370  -5.262  -8.130  0.00  0.00    -0.334 N 
ATOM     11  H   UNL     1       6.151  -5.534  -9.035  0.00  0.00    +0.168 HD
ATOM     12  S   UNL     1       9.015  -5.857  -8.344  0.00  0.00    -0.013 S 
ATOM     13  F   UNL     1       2.152  -3.735  -6.134  0.00  0.00    -0.203 F 
ATOM     14  H   UNL     1       8.270  -4.785  -5.683  0.00  0.00    +0.168 HD
ENDROOT
BRANCH   1  20
ATOM     15  C   UNL     1       0.776  -1.798  -1.335  0.00  0.00    +0.403 C 
ATOM     16  O   UNL     1       0.312  -2.549  -0.500  0.00  0.00    -0.226 OA
ATOM     17  N   UNL     1       1.395  -2.298  -2.422  0.00  0.00    -0.264 N 
ATOM     18  C   UNL     1       1.966  -1.402  -3.437  0.00  0.00    +0.130 C 
ATOM     19  C   UNL     1       3.447  -1.754  -3.624  0.00  0.00    +0.124 C 
ATOM     20  N   UNL     1       3.564  -3.206  -3.816  0.00  0.00    -0.324 N 
ATOM     21  C   UNL     1       2.993  -4.103  -2.801  0.00  0.00    +0.124 C 
ATOM     22  C   UNL     1       1.517  -3.751  -2.611  0.00  0.00    +0.130 C 
BRANCH  15  23
ATOM     23  O   UNL     1       0.671  -0.465  -1.174  0.00  0.00    -0.451 OA
BRANCH  23  25
ATOM     24  C   UNL     1      -0.019   1.526   0.010  0.00  0.00    +0.048 C 
ATOM     25  C   UNL     1       0.002  -0.004   0.002  0.00  0.00    +0.230 C 
ENDBRANCH  23  25
ENDBRANCH  15  23
ENDBRANCH   1  20
TORSDOF 3
