REMARK  Name = ZINC58420025
REMARK  9 active torsions:
REMARK  status: ('A' for Active; 'I' for Inactive)
REMARK    1  A    between atoms: C_1  and  C_2
REMARK    2  A    between atoms: C_3  and  C_11
REMARK    3  A    between atoms: C_4  and  N_8
REMARK    4  A    between atoms: N_5  and  C_7
REMARK    5  A    between atoms: N_8  and  C_9
REMARK    6  A    between atoms: N_8  and  C_10
REMARK    7  A    between atoms: C_11  and  N_12
REMARK    8  A    between atoms: N_12  and  C_13
REMARK    9  A    between atoms: C_13  and  C_14
REMARK                            x       y       z     vdW  Elec       q    Type
REMARK                         _______ _______ _______ _____ _____    ______ ____
ROOT
ATOM      1  N   UNL     1       1.375  -0.081  -2.896  0.00  0.00    -0.308 NA
ATOM      2  H   UNL     1       1.825   0.597  -2.299  0.00  0.00    +0.123 HD
ENDROOT
BRANCH   1   3
ATOM      3  C   UNL     1       0.009  -0.363  -2.435  0.00  0.00    +0.122 C 
BRANCH   3   6
ATOM      4  C   UNL     1       0.036   1.519   0.113  0.00  0.00    +0.065 C 
ATOM      5  C   UNL     1       0.059   0.012   0.127  0.00  0.00    +0.037 A 
ATOM      6  C   UNL     1       0.047  -0.817  -0.999  0.00  0.00    +0.026 A 
ATOM      7  C   UNL     1       0.075  -2.107  -0.566  0.00  0.00    +0.121 A 
ATOM      8  N   UNL     1       0.104  -2.084   0.786  0.00  0.00    -0.276 N 
ATOM      9  N   UNL     1       0.098  -0.744   1.194  0.00  0.00    -0.300 N 
ATOM     10  C   UNL     1       0.139  -3.253   1.668  0.00  0.00    +0.172 C 
ATOM     11  H   UNL     1       0.118  -0.430   2.111  0.00  0.00    +0.187 HD
BRANCH   7  12
ATOM     12  N   UNL     1       0.074  -3.244  -1.369  0.00  0.00    -0.321 N 
ATOM     13  C   UNL     1       1.339  -3.887  -1.730  0.00  0.00    +0.130 C 
ATOM     14  C   UNL     1      -1.194  -3.798  -1.853  0.00  0.00    +0.130 C 
ENDBRANCH   7  12
ENDBRANCH   3   6
ENDBRANCH   1   3
BRANCH   1  15
ATOM     15  C   UNL     1       1.378   0.365  -4.295  0.00  0.00    +0.116 C 
BRANCH  15  16
ATOM     16  C   UNL     1       2.793   0.644  -4.731  0.00  0.00    -0.029 A 
ATOM     17  C   UNL     1       3.350   1.907  -4.571  0.00  0.00    +0.022 A 
ATOM     18  C   UNL     1       4.649   2.130  -4.980  0.00  0.00    +0.084 A 
ATOM     19  N   UNL     1       5.364   1.161  -5.519  0.00  0.00    -0.350 N 
ATOM     20  C   UNL     1       4.869  -0.055  -5.690  0.00  0.00    +0.099 A 
ATOM     21  C   UNL     1       3.569  -0.352  -5.295  0.00  0.00    +0.046 A 
ATOM     22  N   UNL     1       5.658  -1.046  -6.263  0.00  0.00    -0.317 N 
ATOM     23  C   UNL     1       7.078  -0.800  -6.551  0.00  0.00    +0.106 C 
ATOM     24  C   UNL     1       7.913  -1.905  -5.896  0.00  0.00    +0.019 C 
ATOM     25  C   UNL     1       7.404  -3.269  -6.367  0.00  0.00    +0.003 C 
ATOM     26  C   UNL     1       5.946  -3.447  -5.938  0.00  0.00    +0.019 C 
ATOM     27  C   UNL     1       5.090  -2.362  -6.587  0.00  0.00    +0.106 C 
ATOM     28  H   UNL     1       6.275   1.344  -5.798  0.00  0.00    +0.166 HD
ENDBRANCH  15  16
ENDBRANCH   1  15
TORSDOF 5
