REMARK  Name = ZINC02447641
REMARK  3 active torsions:
REMARK  status: ('A' for Active; 'I' for Inactive)
REMARK    1  A    between atoms: C_15  and  S_16
REMARK    2  A    between atoms: S_16  and  C_17
REMARK    3  A    between atoms: C_17  and  C_18
REMARK                            x       y       z     vdW  Elec       q    Type
REMARK                         _______ _______ _______ _____ _____    ______ ____
ROOT
ATOM      1  C   UNL     1      -0.013   1.076   0.008  0.00  0.00    +0.246 A 
ATOM      2  N   UNL     1      -1.110   1.830   0.017  0.00  0.00    -0.214 NA
ATOM      3  C   UNL     1      -0.769   3.103   0.025  0.00  0.00    +0.169 A 
ATOM      4  C   UNL     1      -1.574   4.352   0.039  0.00  0.00    +0.054 A 
ATOM      5  C   UNL     1      -3.030   4.484   0.051  0.00  0.00    -0.024 A 
ATOM      6  C   UNL     1      -3.532   5.739   0.064  0.00  0.00    -0.004 A 
ATOM      7  S   UNL     1      -2.108   6.793   0.060  0.00  0.00    -0.075 S 
ATOM      8  C   UNL     1      -0.852   5.539   0.041  0.00  0.00    +0.101 A 
ATOM      9  N   UNL     1       0.521   5.562   0.028  0.00  0.00    -0.248 N 
ATOM     10  C   UNL     1       1.241   4.392   0.014  0.00  0.00    +0.260 A 
ATOM     11  N   UNL     1       0.588   3.173   0.013  0.00  0.00    -0.178 N 
ATOM     12  N   UNL     1       1.046   1.846   0.002  0.00  0.00    -0.150 NA
ATOM     13  N   UNL     1       2.510   4.722   0.002  0.00  0.00    -0.107 NA
ATOM     14  N   UNL     1       2.632   6.002   0.009  0.00  0.00    -0.120 NA
ATOM     15  C   UNL     1       1.449   6.568   0.025  0.00  0.00    +0.198 A 
ATOM     16  C   UNL     1      -4.974   6.140   0.078  0.00  0.00    +0.043 C 
ATOM     17  C   UNL     1      -5.821   4.916  -0.299  0.00  0.00    +0.005 C 
ATOM     18  C   UNL     1      -5.345   3.716   0.526  0.00  0.00    +0.005 C 
ATOM     19  C   UNL     1      -3.960   3.274   0.051  0.00  0.00    +0.037 C 
ENDROOT
BRANCH  15  20
ATOM     20  S   UNL     1       1.117   8.298   0.040  0.00  0.00    -0.076 S 
BRANCH  20  21
ATOM     21  C   UNL     1       2.763   9.061   0.029  0.00  0.00    +0.173 C 
BRANCH  21  22
ATOM     22  C   UNL     1       2.621  10.561   0.040  0.00  0.00    +0.226 C 
ATOM     23  O   UNL     1       1.519  11.066   0.055  0.00  0.00    -0.275 OA
ATOM     24  N   UNL     1       3.720  11.342   0.034  0.00  0.00    -0.301 N 
ATOM     25  C   UNL     1       5.062  10.745   0.023  0.00  0.00    +0.108 C 
ATOM     26  C   UNL     1       5.851  11.339  -1.154  0.00  0.00    +0.019 C 
ATOM     27  C   UNL     1       5.843  12.866  -1.047  0.00  0.00    +0.003 C 
ATOM     28  C   UNL     1       4.403  13.377  -1.126  0.00  0.00    +0.019 C 
ATOM     29  C   UNL     1       3.598  12.806   0.045  0.00  0.00    +0.108 C 
ENDBRANCH  21  22
ENDBRANCH  20  21
ENDBRANCH  15  20
TORSDOF 3
