REMARK  Name = ZINC13252434
REMARK  7 active torsions:
REMARK  status: ('A' for Active; 'I' for Inactive)
REMARK    1  A    between atoms: C_1  and  C_2
REMARK    2  A    between atoms: C_5  and  N_9
REMARK    3  A    between atoms: N_9  and  S_10
REMARK    4  A    between atoms: S_10  and  C_13
REMARK    5  A    between atoms: C_17  and  N_19
REMARK    6  A    between atoms: C_20  and  C_22
REMARK    7  A    between atoms: C_28  and  C_30
REMARK                            x       y       z     vdW  Elec       q    Type
REMARK                         _______ _______ _______ _____ _____    ______ ____
ROOT
ATOM      1  C   UNL     1       0.192  -6.607   1.196  0.00  0.00    +0.112 A 
ATOM      2  C   UNL     1      -0.981  -7.119   0.673  0.00  0.00    +0.030 A 
ATOM      3  C   UNL     1      -0.969  -8.317  -0.017  0.00  0.00    +0.024 A 
ATOM      4  C   UNL     1       0.217  -9.006  -0.186  0.00  0.00    +0.062 A 
ATOM      5  C   UNL     1       1.397  -8.494   0.339  0.00  0.00    +0.054 A 
ATOM      6  C   UNL     1       1.381  -7.288   1.026  0.00  0.00    +0.053 A 
ATOM      7 CL   UNL     1       0.232 -10.511  -1.052  0.00  0.00    -0.082 Cl
ENDROOT
BRANCH   5   8
ATOM      8  N   UNL     1       2.600  -9.190   0.170  0.00  0.00    -0.284 N 
ATOM      9  C   UNL     1       3.647  -8.931   0.979  0.00  0.00    +0.221 C 
ATOM     10  O   UNL     1       3.516  -8.174   1.918  0.00  0.00    -0.275 OA
ATOM     11  H   UNL     1       2.680  -9.858  -0.528  0.00  0.00    +0.155 HD
BRANCH   9  12
ATOM     12  C   UNL     1       4.980  -9.584   0.718  0.00  0.00    +0.093 C 
ATOM     13  C   UNL     1       6.105  -8.584   0.994  0.00  0.00    +0.040 C 
ATOM     14  C   UNL     1       6.212  -8.320   2.467  0.00  0.00    -0.030 C 
ATOM     15  C   UNL     1       5.694  -9.078   3.379  0.00  0.00    -0.030 C 
ATOM     16  C   UNL     1       4.905 -10.322   3.091  0.00  0.00    +0.042 C 
ATOM     17  C   UNL     1       5.156 -10.789   1.651  0.00  0.00    +0.118 C 
BRANCH  17  18
ATOM     18  C   UNL     1       4.170 -11.865   1.280  0.00  0.00    +0.360 C 
ATOM     19  O   UNL     1       4.511 -13.036   1.293  0.00  0.00    -0.246 OA
ATOM     20  O   UNL     1       3.030 -11.566   0.966  0.00  0.00    -0.246 OA
ENDBRANCH  17  18
ENDBRANCH   9  12
ENDBRANCH   5   8
BRANCH   1  21
ATOM     21  S   UNL     1       0.170  -5.079   2.075  0.00  0.00    +0.092 S 
ATOM     22  O   UNL     1       1.306  -5.086   2.929  0.00  0.00    -0.148 OA
ATOM     23  O   UNL     1      -1.152  -4.913   2.567  0.00  0.00    -0.148 OA
BRANCH  21  24
ATOM     24  N   UNL     1       0.419  -3.874   0.967  0.00  0.00    -0.098 NA
BRANCH  24  29
ATOM     25  C   UNL     1       0.552   1.541   2.648  0.00  0.00    +0.045 C 
ATOM     26  C   UNL     1       0.516   0.102   2.202  0.00  0.00    -0.032 A 
ATOM     27  C   UNL     1       0.692  -0.210   0.866  0.00  0.00    +0.007 A 
ATOM     28  C   UNL     1       0.660  -1.528   0.454  0.00  0.00    +0.027 A 
ATOM     29  C   UNL     1       0.452  -2.540   1.382  0.00  0.00    +0.076 A 
ATOM     30  C   UNL     1       0.276  -2.224   2.722  0.00  0.00    +0.047 A 
ATOM     31  C   UNL     1       0.314  -0.904   3.130  0.00  0.00    +0.046 A 
ATOM     32 CL   UNL     1       0.101  -0.507   4.806  0.00  0.00    -0.083 Cl
ENDBRANCH  24  29
ENDBRANCH  21  24
ENDBRANCH   1  21
TORSDOF 6
