REMARK  Name = ZINC08829905
REMARK  10 active torsions:
REMARK  status: ('A' for Active; 'I' for Inactive)
REMARK    1  A    between atoms: C_1  and  C_2
REMARK    2  A    between atoms: C_5  and  S_8
REMARK    3  A    between atoms: S_8  and  C_9
REMARK    4  A    between atoms: C_9  and  C_10
REMARK    5  A    between atoms: C_10  and  N_11
REMARK    6  A    between atoms: N_11  and  C_12
REMARK    7  A    between atoms: C_12  and  N_14
REMARK    8  A    between atoms: N_14  and  C_15
REMARK    9  A    between atoms: C_20  and  O_21
REMARK   10  A    between atoms: O_21  and  C_22
REMARK                            x       y       z     vdW  Elec       q    Type
REMARK                         _______ _______ _______ _____ _____    ______ ____
ROOT
ATOM      1  C   UNL     1      -0.119  -8.139   3.688  0.00  0.00    +0.135 C 
ATOM      2  S   UNL     1      -0.443  -9.339   2.511  0.00  0.00    -0.019 S 
ENDROOT
BRANCH   1   3
ATOM      3  N   UNL     1      -0.121  -6.837   3.342  0.00  0.00    -0.326 N 
ATOM      4  H   UNL     1       0.063  -6.157   4.009  0.00  0.00    +0.148 HD
BRANCH   3   5
ATOM      5  C   UNL     1      -0.400  -6.448   1.957  0.00  0.00    +0.114 C 
BRANCH   5   6
ATOM      6  C   UNL     1      -0.341  -4.924   1.834  0.00  0.00    +0.093 C 
BRANCH   6   7
ATOM      7  S   UNL     1      -0.687  -4.442   0.120  0.00  0.00    -0.124 S 
BRANCH   7  12
ATOM      8  C   UNL     1      -0.334   1.583   0.197  0.00  0.00    +0.044 C 
ATOM      9  C   UNL     1      -0.422   0.079   0.178  0.00  0.00    -0.050 A 
ATOM     10  C   UNL     1      -0.715  -0.580  -1.002  0.00  0.00    +0.004 A 
ATOM     11  C   UNL     1      -0.796  -1.958  -1.024  0.00  0.00    +0.015 A 
ATOM     12  C   UNL     1      -0.583  -2.683   0.142  0.00  0.00    +0.008 A 
ATOM     13  C   UNL     1      -0.289  -2.018   1.326  0.00  0.00    +0.015 A 
ATOM     14  C   UNL     1      -0.203  -0.640   1.339  0.00  0.00    +0.004 A 
ENDBRANCH   7  12
ENDBRANCH   6   7
ENDBRANCH   5   6
ENDBRANCH   3   5
ENDBRANCH   1   3
BRANCH   1  15
ATOM     15  N   UNL     1       0.139  -8.498   4.962  0.00  0.00    -0.294 N 
ATOM     16  H   UNL     1       0.384  -7.824   5.615  0.00  0.00    +0.154 HD
BRANCH  15  17
ATOM     17  C   UNL     1       0.052  -9.843   5.343  0.00  0.00    +0.076 A 
ATOM     18  C   UNL     1       0.651 -10.825   4.567  0.00  0.00    +0.047 A 
ATOM     19  C   UNL     1       0.565 -12.152   4.945  0.00  0.00    +0.043 A 
ATOM     20  C   UNL     1      -0.118 -12.504   6.096  0.00  0.00    +0.024 A 
ATOM     21  C   UNL     1      -0.718 -11.530   6.873  0.00  0.00    +0.049 A 
ATOM     22  C   UNL     1      -0.631 -10.198   6.503  0.00  0.00    +0.141 A 
ATOM     23 CL   UNL     1       1.315 -13.380   3.973  0.00  0.00    -0.083 Cl
BRANCH  22  24
ATOM     24  O   UNL     1      -1.215  -9.239   7.270  0.00  0.00    -0.493 OA
ATOM     25  C   UNL     1      -1.899  -9.676   8.447  0.00  0.00    +0.277 C 
ENDBRANCH  22  24
ENDBRANCH  15  17
ENDBRANCH   1  15
TORSDOF 8
