REMARK  Name = ZINC21319371
REMARK  12 active torsions:
REMARK  status: ('A' for Active; 'I' for Inactive)
REMARK    1  A    between atoms: C_1  and  C_2
REMARK    2  A    between atoms: C_2  and  C_3
REMARK    3  A    between atoms: C_3  and  C_5
REMARK    4  A    between atoms: C_3  and  C_6
REMARK    5  A    between atoms: C_9  and  N_12
REMARK    6  A    between atoms: C_13  and  C_15
REMARK    7  A    between atoms: C_15  and  S_16
REMARK    8  A    between atoms: S_16  and  C_17
REMARK    9  A    between atoms: N_21  and  N_22
REMARK   10  A    between atoms: N_23  and  N_24
REMARK   11  A    between atoms: C_25  and  C_26
REMARK   12  A    between atoms: C_31  and  O_32
REMARK                            x       y       z     vdW  Elec       q    Type
REMARK                         _______ _______ _______ _____ _____    ______ ____
ROOT
ATOM      1  C   UNL     1      -2.077   1.772  -1.028  0.00  0.00    +0.210 A 
ATOM      2  N   UNL     1      -2.407   2.231  -2.211  0.00  0.00    -0.119 NA
ATOM      3  N   UNL     1      -1.252   2.256  -3.003  0.00  0.00    -0.109 NA
ATOM      4  C   UNL     1      -0.253   1.819  -2.276  0.00  0.00    +0.254 A 
ATOM      5  N   UNL     1      -0.738   1.503  -1.037  0.00  0.00    -0.211 N 
ATOM      6  N   UNL     1       1.065   1.694  -2.691  0.00  0.00    -0.204 N 
ATOM      7  H   UNL     1       1.827   1.310  -1.997  0.00  0.00    +0.177 HD
ENDROOT
BRANCH   5   8
ATOM      8  N   UNL     1      -0.011   1.010   0.008  0.00  0.00    -0.294 N 
ATOM      9  H   UNL     1       1.068   0.829  -0.109  0.00  0.00    +0.163 HD
ATOM     10  H   UNL     1      -0.503   0.794   0.968  0.00  0.00    +0.163 HD
ENDBRANCH   5   8
BRANCH   6  11
ATOM     11  N   UNL     1       1.426   2.056  -3.996  0.00  0.00    -0.187 NA
ATOM     12  C   UNL     1       2.659   1.940  -4.385  0.00  0.00    +0.142 C 
BRANCH  12  13
ATOM     13  C   UNL     1       3.038   2.321  -5.757  0.00  0.00    +0.037 A 
ATOM     14  C   UNL     1       4.364   2.197  -6.179  0.00  0.00    +0.028 A 
ATOM     15  C   UNL     1       4.712   2.556  -7.465  0.00  0.00    +0.019 A 
ATOM     16  C   UNL     1       3.752   3.038  -8.339  0.00  0.00    +0.019 A 
ATOM     17  C   UNL     1       2.437   3.165  -7.933  0.00  0.00    +0.047 A 
ATOM     18  C   UNL     1       2.070   2.805  -6.647  0.00  0.00    +0.126 A 
ATOM     19 BR   UNL     1       6.507   2.389  -8.037  0.00  0.00    -0.050 Br
BRANCH  18  20
ATOM     20  O   UNL     1       0.777   2.924  -6.248  0.00  0.00    -0.506 OA
ATOM     21  H   UNL     1       0.018   3.304  -6.949  0.00  0.00    +0.292 HD
ENDBRANCH  18  20
ENDBRANCH  12  13
ENDBRANCH   6  11
BRANCH   1  22
ATOM     22  S   UNL     1      -3.169   1.545   0.336  0.00  0.00    -0.075 S 
BRANCH  22  23
ATOM     23  C   UNL     1      -4.782   2.083  -0.298  0.00  0.00    +0.173 C 
BRANCH  23  25
ATOM     24  N   UNL     1      -7.101   2.280   0.538  0.00  0.00    -0.285 N 
ATOM     25  C   UNL     1      -5.821   1.938   0.784  0.00  0.00    +0.227 C 
ATOM     26  O   UNL     1      -5.505   1.513   1.875  0.00  0.00    -0.275 OA
ATOM     27  H   UNL     1      -7.374   2.736  -0.425  0.00  0.00    +0.155 HD
BRANCH  24  31
ATOM     28  C   UNL     1     -10.026   1.611   3.428  0.00  0.00    -0.044 A 
ATOM     29  C   UNL     1      -8.747   1.969   3.812  0.00  0.00    +0.006 A 
ATOM     30  C   UNL     1      -7.775   2.192   2.856  0.00  0.00    +0.023 A 
ATOM     31  C   UNL     1      -8.084   2.055   1.509  0.00  0.00    +0.033 A 
ATOM     32  C   UNL     1      -9.371   1.701   1.127  0.00  0.00    +0.023 A 
ATOM     33  C   UNL     1     -10.337   1.473   2.088  0.00  0.00    +0.006 A 
BRANCH  28  34
ATOM     34  C   UNL     1     -11.085   1.368   4.474  0.00  0.00    +0.016 C 
ATOM     35  C   UNL     1     -12.244   2.343   4.261  0.00  0.00    +0.012 C 
BRANCH  34  37
ATOM     36  C   UNL     1     -12.580  -0.353   5.495  0.00  0.00    +0.004 C 
ATOM     37  C   UNL     1     -11.598  -0.068   4.357  0.00  0.00    +0.004 C 
ENDBRANCH  34  37
ENDBRANCH  28  34
ENDBRANCH  24  31
ENDBRANCH  23  25
ENDBRANCH  22  23
ENDBRANCH   1  22
TORSDOF 10
