REMARK  Name = ZINC28972837
REMARK  8 active torsions:
REMARK  status: ('A' for Active; 'I' for Inactive)
REMARK    1  A    between atoms: C_4  and  O_16
REMARK    2  A    between atoms: C_5  and  C_7
REMARK    3  A    between atoms: O_16  and  C_17
REMARK    4  A    between atoms: C_17  and  C_18
REMARK    5  A    between atoms: C_18  and  C_20
REMARK    6  A    between atoms: C_18  and  O_33
REMARK    7  A    between atoms: C_20  and  N_21
REMARK    8  A    between atoms: C_25  and  C_27
REMARK                            x       y       z     vdW  Elec       q    Type
REMARK                         _______ _______ _______ _____ _____    ______ ____
ROOT
ATOM      1  C   UNL     1       2.073   1.119   1.235  0.00  0.00    +0.258 C 
ENDROOT
BRANCH   1   2
ATOM      2  O   UNL     1       1.446   1.641   2.409  0.00  0.00    -0.489 OA
BRANCH   2   6
ATOM      3  C   UNL     1       3.179   0.693   6.040  0.00  0.00    +0.001 A 
ATOM      4  C   UNL     1       3.730   0.223   4.859  0.00  0.00    +0.004 A 
ATOM      5  C   UNL     1       3.149   0.534   3.645  0.00  0.00    +0.046 A 
ATOM      6  C   UNL     1       2.015   1.330   3.601  0.00  0.00    +0.133 A 
ATOM      7  C   UNL     1       1.455   1.808   4.793  0.00  0.00    +0.078 A 
ATOM      8  C   UNL     1       2.048   1.481   6.014  0.00  0.00    +0.017 A 
BRANCH   7   9
ATOM      9  C   UNL     1       0.244   2.651   4.759  0.00  0.00    +0.232 A 
ATOM     10  N   UNL     1      -0.385   3.018   3.670  0.00  0.00    -0.209 NA
ATOM     11  C   UNL     1      -1.451   3.783   4.019  0.00  0.00    +0.110 A 
ATOM     12  C   UNL     1      -2.453   4.431   3.291  0.00  0.00    +0.031 A 
ATOM     13  C   UNL     1      -3.418   5.155   3.954  0.00  0.00    +0.002 A 
ATOM     14  C   UNL     1      -3.404   5.244   5.338  0.00  0.00    +0.004 A 
ATOM     15  C   UNL     1      -2.421   4.609   6.069  0.00  0.00    +0.048 A 
ATOM     16  C   UNL     1      -1.440   3.876   5.420  0.00  0.00    +0.156 A 
ATOM     17  O   UNL     1      -0.374   3.161   5.841  0.00  0.00    -0.435 OA
ENDBRANCH   7   9
ENDBRANCH   2   6
ENDBRANCH   1   2
BRANCH   1  18
ATOM     18  C   UNL     1       1.296   1.572  -0.003  0.00  0.00    +0.135 C 
BRANCH  18  19
ATOM     19  O   UNL     1      -0.011   0.994   0.018  0.00  0.00    -0.390 OA
ATOM     20  H   UNL     1      -0.719   1.207  -0.797  0.00  0.00    +0.210 HD
ENDBRANCH  18  19
BRANCH  18  21
ATOM     21  C   UNL     1       2.035   1.118  -1.263  0.00  0.00    -0.043 C 
BRANCH  21  22
ATOM     22  N   UNL     1       1.355   1.654  -2.449  0.00  0.00    +0.386 N 
ATOM     23  C   UNL     1       0.109   0.909  -2.728  0.00  0.00    -0.078 C 
ATOM     24  C   UNL     1      -0.017   0.911  -4.271  0.00  0.00    -0.020 C 
ATOM     25  C   UNL     1       1.464   0.762  -4.707  0.00  0.00    -0.013 C 
ATOM     26  C   UNL     1       2.224   1.575  -3.638  0.00  0.00    -0.036 C 
ATOM     27  H   UNL     1       1.120   2.707  -2.232  0.00  0.00    -0.081 HD
BRANCH  26  28
ATOM     28  C   UNL     1       3.513   0.879  -3.284  0.00  0.00    -0.043 A 
ATOM     29  C   UNL     1       3.510  -0.453  -2.900  0.00  0.00    +0.005 A 
ATOM     30  C   UNL     1       4.719  -1.052  -2.584  0.00  0.00    +0.020 A 
ATOM     31  C   UNL     1       5.881  -0.307  -2.662  0.00  0.00    +0.111 A 
ATOM     32  N   UNL     1       5.846   0.958  -3.032  0.00  0.00    -0.263 NA
ATOM     33  C   UNL     1       4.715   1.559  -3.345  0.00  0.00    +0.112 A 
ENDBRANCH  26  28
ENDBRANCH  21  22
ENDBRANCH  18  21
ENDBRANCH   1  18
TORSDOF 8
