REMARK  Name = ZINC67294641
REMARK  4 active torsions:
REMARK  status: ('A' for Active; 'I' for Inactive)
REMARK    1  A    between atoms: C_1  and  C_2
REMARK    2  A    between atoms: C_7  and  N_8
REMARK    3  A    between atoms: C_10  and  C_20
REMARK    4  A    between atoms: C_27  and  C_29
REMARK                            x       y       z     vdW  Elec       q    Type
REMARK                         _______ _______ _______ _____ _____    ______ ____
ROOT
ATOM      1  N   UNL     1       0.072  -0.053   2.325  0.00  0.00    -0.325 N 
ATOM      2  C   UNL     1      -0.099  -0.680   3.470  0.00  0.00    +0.212 A 
ATOM      3  C   UNL     1      -0.366   0.069   4.714  0.00  0.00    +0.098 A 
ATOM      4  C   UNL     1      -1.073  -0.592   5.710  0.00  0.00    +0.030 A 
ATOM      5  C   UNL     1      -1.489  -1.970   5.438  0.00  0.00    +0.019 A 
ATOM      6  C   UNL     1      -2.422  -2.612   6.261  0.00  0.00    +0.026 A 
ATOM      7  C   UNL     1      -2.799  -3.907   5.981  0.00  0.00    +0.019 A 
ATOM      8  C   UNL     1      -2.260  -4.575   4.890  0.00  0.00    +0.019 A 
ATOM      9  C   UNL     1      -1.339  -3.955   4.071  0.00  0.00    +0.048 A 
ATOM     10  C   UNL     1      -0.943  -2.652   4.335  0.00  0.00    +0.137 A 
ATOM     11  O   UNL     1      -0.039  -2.034   3.542  0.00  0.00    -0.439 OA
ATOM     12 BR   UNL     1      -4.058  -4.780   7.090  0.00  0.00    -0.050 Br
ATOM     13  H   UNL     1      -0.045   0.908   2.276  0.00  0.00    +0.169 HD
ENDROOT
BRANCH   3  14
ATOM     14  C   UNL     1       0.096   1.456   4.891  0.00  0.00    +0.254 C 
ATOM     15  O   UNL     1      -0.222   2.080   5.885  0.00  0.00    -0.270 OA
ATOM     16  N   UNL     1       0.871   2.033   3.951  0.00  0.00    -0.266 N 
ATOM     17  C   UNL     1       1.275   3.358   4.099  0.00  0.00    +0.125 A 
ATOM     18  C   UNL     1       1.247   3.950   5.357  0.00  0.00    +0.044 A 
ATOM     19  C   UNL     1       1.651   5.267   5.489  0.00  0.00    +0.005 A 
ATOM     20  C   UNL     1       2.070   5.949   4.355  0.00  0.00    +0.023 A 
ATOM     21  C   UNL     1       2.072   5.298   3.137  0.00  0.00    +0.040 A 
ATOM     22  N   UNL     1       1.686   4.040   3.042  0.00  0.00    -0.237 NA
ATOM     23  C   UNL     1       2.526   6.032   1.902  0.00  0.00    +0.065 C 
ATOM     24  H   UNL     1       1.148   1.525   3.172  0.00  0.00    +0.157 HD
ENDBRANCH   3  14
BRANCH   1  31
ATOM     25  C   UNL     1      -1.462   0.381  -0.027  0.00  0.00    +0.046 C 
ATOM     26  C   UNL     1      -0.306  -0.585   0.020  0.00  0.00    -0.027 A 
ATOM     27  C   UNL     1       0.047  -1.296  -1.108  0.00  0.00    +0.005 A 
ATOM     28  C   UNL     1       1.108  -2.183  -1.067  0.00  0.00    +0.000 A 
ATOM     29  C   UNL     1       1.822  -2.364   0.105  0.00  0.00    +0.002 A 
ATOM     30  C   UNL     1       1.480  -1.660   1.240  0.00  0.00    +0.026 A 
ATOM     31  C   UNL     1       0.413  -0.758   1.204  0.00  0.00    +0.045 A 
ENDBRANCH   1  31
TORSDOF 2
