REMARK  Name = ZINC13058744
REMARK  13 active torsions:
REMARK  status: ('A' for Active; 'I' for Inactive)
REMARK    1  A    between atoms: C_1  and  C_2
REMARK    2  A    between atoms: C_5  and  C_34
REMARK    3  A    between atoms: N_6  and  C_7
REMARK    4  A    between atoms: C_10  and  C_13
REMARK    5  A    between atoms: N_15  and  N_16
REMARK    6  A    between atoms: C_17  and  C_18
REMARK    7  A    between atoms: C_17  and  C_19
REMARK    8  A    between atoms: C_22  and  S_25
REMARK    9  A    between atoms: S_25  and  N_28
REMARK   10  A    between atoms: N_28  and  C_29
REMARK   11  A    between atoms: C_29  and  C_30
REMARK   12  A    between atoms: C_30  and  C_31
REMARK   13  A    between atoms: C_31  and  C_32
REMARK                            x       y       z     vdW  Elec       q    Type
REMARK                         _______ _______ _______ _____ _____    ______ ____
ROOT
ATOM      1  N   UNL     1      -6.487  -4.203   1.105  0.00  0.00    -0.184 NA
ATOM      2  C   UNL     1      -7.281  -4.212   2.132  0.00  0.00    +0.063 C 
ATOM      3  C   UNL     1      -6.991  -3.327   3.316  0.00  0.00    +0.068 C 
ENDROOT
BRANCH   2   4
ATOM      4  C   UNL     1      -8.467  -5.089   2.139  0.00  0.00    -0.002 A 
ATOM      5  C   UNL     1      -9.320  -5.106   3.245  0.00  0.00    +0.011 A 
ATOM      6  C   UNL     1     -10.430  -5.925   3.243  0.00  0.00    +0.029 A 
ATOM      7  C   UNL     1     -10.693  -6.737   2.154  0.00  0.00    +0.105 A 
ATOM      8  C   UNL     1      -9.849  -6.729   1.058  0.00  0.00    +0.029 A 
ATOM      9  C   UNL     1      -8.739  -5.911   1.043  0.00  0.00    +0.011 A 
BRANCH   7  10
ATOM     10  S   UNL     1     -12.109  -7.784   2.163  0.00  0.00    +0.058 S 
ATOM     11  O   UNL     1     -13.036  -7.206   3.072  0.00  0.00    -0.153 OA
ATOM     12  O   UNL     1     -12.434  -8.041   0.804  0.00  0.00    -0.153 OA
BRANCH  10  13
ATOM     13  N   UNL     1     -11.643  -9.232   2.820  0.00  0.00    -0.190 NA
ATOM     14  H   UNL     1     -11.653 -10.036   2.277  0.00  0.00    +0.148 HD
BRANCH  13  15
ATOM     15  C   UNL     1     -11.218  -9.298   4.220  0.00  0.00    +0.106 C 
BRANCH  15  16
ATOM     16  C   UNL     1     -11.203 -10.757   4.680  0.00  0.00    +0.028 C 
BRANCH  16  17
ATOM     17  C   UNL     1     -10.758 -10.826   6.143  0.00  0.00    +0.126 C 
BRANCH  17  18
ATOM     18  C   UNL     1     -10.744 -12.263   6.596  0.00  0.00    +0.356 C 
ATOM     19  O   UNL     1     -11.057 -13.142   5.828  0.00  0.00    -0.246 OA
ATOM     20  O   UNL     1     -10.383 -12.567   7.852  0.00  0.00    -0.246 OA
ENDBRANCH  17  18
ENDBRANCH  16  17
ENDBRANCH  15  16
ENDBRANCH  13  15
ENDBRANCH  10  13
ENDBRANCH   7  10
ENDBRANCH   2   4
BRANCH   1  23
ATOM     21  C   UNL     1      -4.537  -3.360   0.031  0.00  0.00    +0.263 C 
ATOM     22  O   UNL     1      -4.771  -4.074  -0.925  0.00  0.00    -0.268 OA
ATOM     23  N   UNL     1      -5.361  -3.369   1.097  0.00  0.00    -0.203 N 
ATOM     24  H   UNL     1      -5.175  -2.800   1.860  0.00  0.00    +0.178 HD
BRANCH  21  28
ATOM     25  C   UNL     1      -1.122  -0.835   0.009  0.00  0.00    +0.047 A 
ATOM     26  C   UNL     1      -1.969  -0.847   1.112  0.00  0.00    +0.027 A 
ATOM     27  C   UNL     1      -3.080  -1.661   1.121  0.00  0.00    +0.015 A 
ATOM     28  C   UNL     1      -3.351  -2.482   0.023  0.00  0.00    +0.038 A 
ATOM     29  C   UNL     1      -2.495  -2.471  -1.082  0.00  0.00    +0.015 A 
ATOM     30  C   UNL     1      -1.389  -1.651  -1.085  0.00  0.00    +0.027 A 
BRANCH  25  36
ATOM     31  C   UNL     1      -1.249   2.229   0.020  0.00  0.00    +0.064 C 
ATOM     32  C   UNL     1      -0.017   1.362   0.009  0.00  0.00    +0.021 A 
ATOM     33  C   UNL     1       1.258   1.800  -0.000  0.00  0.00    +0.023 A 
ATOM     34  C   UNL     1       2.096   0.667  -0.014  0.00  0.00    +0.023 A 
ATOM     35  C   UNL     1       1.302  -0.423  -0.013  0.00  0.00    +0.021 A 
ATOM     36  N   UNL     1       0.002  -0.004   0.002  0.00  0.00    -0.318 N 
ATOM     37  C   UNL     1       1.769  -1.856  -0.026  0.00  0.00    +0.064 C 
ENDBRANCH  25  36
ENDBRANCH  21  28
ENDBRANCH   1  23
TORSDOF 10
