REMARK  Name = ZINC09033933
REMARK  7 active torsions:
REMARK  status: ('A' for Active; 'I' for Inactive)
REMARK    1  A    between atoms: C_1  and  C_2
REMARK    2  A    between atoms: C_5  and  N_33
REMARK    3  A    between atoms: C_7  and  N_8
REMARK    4  A    between atoms: C_13  and  C_29
REMARK    5  A    between atoms: C_29  and  C_30
REMARK    6  A    between atoms: C_30  and  S_31
REMARK    7  A    between atoms: S_31  and  C_32
REMARK                            x       y       z     vdW  Elec       q    Type
REMARK                         _______ _______ _______ _____ _____    ______ ____
ROOT
ATOM      1  N   UNL     1      -1.117   1.966   0.017  0.00  0.00    -0.210 N 
ATOM      2  C   UNL     1      -0.885   3.284   0.032  0.00  0.00    +0.228 C 
ATOM      3  O   UNL     1      -1.738   4.145   0.042  0.00  0.00    -0.275 OA
ATOM      4  C   UNL     1       0.606   3.531   0.026  0.00  0.00    +0.073 C 
ATOM      5  C   UNL     1       1.025   4.144  -1.345  0.00  0.00    -0.057 C 
ATOM      6  C   UNL     1       1.919   1.986  -1.353  0.00  0.00    +0.050 C 
ATOM      7  C   UNL     1       1.208   2.099   0.002  0.00  0.00    +0.088 C 
ATOM      8  C   UNL     1      -0.014   1.208   0.009  0.00  0.00    +0.229 C 
ATOM      9  O   UNL     1       0.002  -0.004   0.002  0.00  0.00    -0.275 OA
ATOM     10  C   UNL     1       3.393   2.242  -1.224  0.00  0.00    -0.028 A 
ATOM     11  C   UNL     1       4.134   3.316  -0.782  0.00  0.00    +0.004 A 
ATOM     12  C   UNL     1       5.516   3.251  -0.783  0.00  0.00    +0.000 A 
ATOM     13  C   UNL     1       6.151   2.107  -1.230  0.00  0.00    +0.002 A 
ATOM     14  C   UNL     1       5.413   1.030  -1.675  0.00  0.00    +0.023 A 
ATOM     15  C   UNL     1       4.021   1.086  -1.677  0.00  0.00    +0.036 A 
ATOM     16  N   UNL     1       3.070   0.143  -2.074  0.00  0.00    -0.286 N 
ATOM     17  C   UNL     1       1.811   0.595  -1.916  0.00  0.00    +0.211 C 
ATOM     18  O   UNL     1       0.789  -0.003  -2.178  0.00  0.00    -0.277 OA
ATOM     19  H   UNL     1       3.291  -0.734  -2.422  0.00  0.00    +0.155 HD
ATOM     20  N   UNL     1       1.280   2.980  -2.197  0.00  0.00    +0.394 N 
ATOM     21  H   UNL     1       1.900   3.238  -2.973  0.00  0.00    -0.083 HD
ATOM     22  H   UNL     1       0.397   2.613  -2.571  0.00  0.00    -0.083 HD
ENDROOT
BRANCH   1  29
ATOM     23  C   UNL     1      -2.368   1.478  -2.492  0.00  0.00    +0.045 C 
ATOM     24  C   UNL     1      -3.056   1.170  -1.187  0.00  0.00    -0.028 A 
ATOM     25  C   UNL     1      -4.327   0.629  -1.185  0.00  0.00    +0.007 A 
ATOM     26  C   UNL     1      -4.961   0.353   0.012  0.00  0.00    +0.033 A 
ATOM     27  C   UNL     1      -4.322   0.610   1.211  0.00  0.00    +0.128 A 
ATOM     28  C   UNL     1      -3.049   1.144   1.216  0.00  0.00    +0.057 A 
ATOM     29  C   UNL     1      -2.410   1.424   0.016  0.00  0.00    +0.049 A 
BRANCH  27  30
ATOM     30  N   UNL     1      -5.004   0.312   2.491  0.00  0.00    +0.056 N 
ATOM     31  O   UNL     1      -4.442   0.538   3.547  0.00  0.00    -0.126 OA
ATOM     32  O   UNL     1      -6.127  -0.159   2.487  0.00  0.00    -0.126 OA
ENDBRANCH  27  30
ENDBRANCH   1  29
BRANCH   5  33
ATOM     33  C   UNL     1      -0.103   5.011  -1.908  0.00  0.00    -0.004 C 
BRANCH  33  34
ATOM     34  C   UNL     1       0.351   5.646  -3.224  0.00  0.00    +0.067 C 
BRANCH  34  35
ATOM     35  S   UNL     1      -0.986   6.675  -3.892  0.00  0.00    -0.164 S 
ATOM     36  C   UNL     1      -0.297   7.345  -5.430  0.00  0.00    +0.084 C 
ENDBRANCH  34  35
ENDBRANCH  33  34
ENDBRANCH   5  33
TORSDOF 5
