REMARK  Name = ZINC39037394
REMARK  4 active torsions:
REMARK  status: ('A' for Active; 'I' for Inactive)
REMARK    1  A    between atoms: C_5  and  S_14
REMARK    2  A    between atoms: C_10  and  N_11
REMARK    3  A    between atoms: S_14  and  C_15
REMARK    4  A    between atoms: C_15  and  C_16
REMARK                            x       y       z     vdW  Elec       q    Type
REMARK                         _______ _______ _______ _____ _____    ______ ____
ROOT
ATOM      1  C   UNL     1      -0.017   1.382   0.010  0.00  0.00    +0.035 A 
ATOM      2  C   UNL     1      -1.213   2.065   0.019  0.00  0.00    +0.032 A 
ATOM      3  C   UNL     1      -2.416   1.356   0.021  0.00  0.00    +0.090 A 
ATOM      4  N   UNL     1      -3.722   1.733   0.029  0.00  0.00    -0.222 NA
ATOM      5  C   UNL     1      -4.487   0.669   0.027  0.00  0.00    +0.167 A 
ATOM      6  H   UNL     1      -4.034  -1.374   0.014  0.00  0.00    +0.168 HD
ATOM      7  N   UNL     1      -3.715  -0.458   0.017  0.00  0.00    -0.333 N 
ATOM      8  C   UNL     1      -2.391  -0.049   0.013  0.00  0.00    +0.069 A 
ATOM      9  C   UNL     1      -1.178  -0.719   0.004  0.00  0.00    +0.060 A 
ATOM     10  C   UNL     1       0.002  -0.004   0.002  0.00  0.00    +0.128 A 
ENDROOT
BRANCH  10  11
ATOM     11  N   UNL     1       1.297  -0.722  -0.014  0.00  0.00    +0.056 N 
ATOM     12  O   UNL     1       2.333  -0.099  -0.020  0.00  0.00    -0.126 OA
ATOM     13  O   UNL     1       1.318  -1.931  -0.020  0.00  0.00    -0.126 OA
ENDBRANCH  10  11
BRANCH   5  14
ATOM     14  S   UNL     1      -6.249   0.690   0.035  0.00  0.00    -0.086 S 
BRANCH  14  15
ATOM     15  C   UNL     1      -6.667   2.455   0.046  0.00  0.00    +0.107 C 
BRANCH  15  16
ATOM     16  C   UNL     1      -8.189   2.618   0.054  0.00  0.00    +0.149 C 
ATOM     17  C   UNL     1      -8.571   4.108  -0.015  0.00  0.00    +0.172 C 
ATOM     18  N   UNL     1      -9.309   4.334   1.240  0.00  0.00    -0.277 N 
ATOM     19  C   UNL     1      -9.891   5.467   1.730  0.00  0.00    +0.078 C 
ATOM     20  C   UNL     1     -10.528   5.461   2.918  0.00  0.00    +0.015 C 
ATOM     21  C   UNL     1     -10.599   4.276   3.672  0.00  0.00    +0.005 C 
ATOM     22  C   UNL     1     -10.026   3.142   3.201  0.00  0.00    +0.043 C 
ATOM     23  C   UNL     1      -9.356   3.159   1.944  0.00  0.00    +0.121 C 
ATOM     24  N   UNL     1      -8.748   2.162   1.331  0.00  0.00    -0.262 NA
ATOM     25 BR   UNL     1      -6.961   5.233  -0.088  0.00  0.00    -0.065 Br
ENDBRANCH  15  16
ENDBRANCH  14  15
ENDBRANCH   5  14
TORSDOF 4
