REMARK  Name = ZINC02964939
REMARK  6 active torsions:
REMARK  status: ('A' for Active; 'I' for Inactive)
REMARK    1  A    between atoms: C_1  and  C_2
REMARK    2  A    between atoms: C_7  and  C_8
REMARK    3  A    between atoms: C_8  and  N_9
REMARK    4  A    between atoms: C_12  and  C_25
REMARK    5  A    between atoms: N_27  and  C_28
REMARK    6  A    between atoms: C_28  and  C_29
REMARK                            x       y       z     vdW  Elec       q    Type
REMARK                         _______ _______ _______ _____ _____    ______ ____
ROOT
ATOM      1  N   UNL     1      -1.388   0.091   3.019  0.00  0.00    -0.262 N 
ATOM      2  C   UNL     1      -1.941   1.274   2.546  0.00  0.00    +0.051 A 
ATOM      3  C   UNL     1      -1.184   2.435   2.622  0.00  0.00    +0.037 A 
ATOM      4  C   UNL     1      -1.701   3.645   2.156  0.00  0.00    +0.039 A 
ATOM      5  C   UNL     1      -2.986   3.691   1.610  0.00  0.00    +0.014 A 
ATOM      6  C   UNL     1      -3.737   2.539   1.536  0.00  0.00    +0.017 A 
ATOM      7  C   UNL     1      -3.223   1.333   2.001  0.00  0.00    +0.034 A 
ATOM      8  S   UNL     1      -4.212  -0.122   1.898  0.00  0.00    -0.087 S 
ATOM      9  C   UNL     1      -4.385  -0.628   3.576  0.00  0.00    +0.025 A 
ATOM     10  C   UNL     1      -5.649  -0.720   4.145  0.00  0.00    +0.016 A 
ATOM     11  C   UNL     1      -5.789  -1.119   5.458  0.00  0.00    +0.001 A 
ATOM     12  C   UNL     1      -4.670  -1.429   6.215  0.00  0.00    +0.001 A 
ATOM     13  C   UNL     1      -3.411  -1.341   5.666  0.00  0.00    +0.014 A 
ATOM     14  C   UNL     1      -3.248  -0.937   4.334  0.00  0.00    +0.051 A 
ATOM     15  C   UNL     1      -1.903  -0.847   3.769  0.00  0.00    +0.252 C 
ATOM     16  O   UNL     1      -1.159  -1.770   4.038  0.00  0.00    -0.270 OA
ENDROOT
BRANCH   4  17
ATOM     17  C   UNL     1      -0.890   4.875   2.240  0.00  0.00    +0.244 C 
ATOM     18  O   UNL     1       0.228   4.835   2.716  0.00  0.00    -0.270 OA
ATOM     19  N   UNL     1      -1.389   6.043   1.790  0.00  0.00    -0.307 N 
ATOM     20  H   UNL     1      -2.282   6.075   1.411  0.00  0.00    +0.149 HD
BRANCH  19  21
ATOM     21  C   UNL     1      -0.585   7.264   1.874  0.00  0.00    +0.140 C 
BRANCH  21  22
ATOM     22  C   UNL     1      -1.367   8.421   1.308  0.00  0.00    -0.027 A 
ATOM     23  C   UNL     1      -1.276   8.723  -0.038  0.00  0.00    +0.009 A 
ATOM     24  C   UNL     1      -1.992   9.783  -0.563  0.00  0.00    +0.050 A 
ATOM     25  C   UNL     1      -2.803  10.546   0.261  0.00  0.00    +0.166 A 
ATOM     26  C   UNL     1      -2.895  10.242   1.617  0.00  0.00    +0.167 A 
ATOM     27  C   UNL     1      -2.179   9.175   2.134  0.00  0.00    +0.054 A 
ATOM     28  O   UNL     1      -3.748  11.131   2.206  0.00  0.00    -0.453 OA
ATOM     29  C   UNL     1      -3.858  12.229   1.281  0.00  0.00    +0.466 C 
ATOM     30  O   UNL     1      -3.598  11.625   0.000  0.00  0.00    -0.453 OA
ENDBRANCH  21  22
ENDBRANCH  19  21
ENDBRANCH   4  17
BRANCH   1  31
ATOM     31  C   UNL     1      -0.004  -0.147   2.604  0.00  0.00    +0.149 C 
BRANCH  31  38
ATOM     32  C   UNL     1       2.511  -0.993   1.461  0.00  0.00    +0.044 C 
ATOM     33  C   UNL     1       1.213  -1.426   0.830  0.00  0.00    -0.046 A 
ATOM     34  C   UNL     1       1.226  -2.232  -0.293  0.00  0.00    +0.003 A 
ATOM     35  C   UNL     1       0.035  -2.629  -0.872  0.00  0.00    +0.000 A 
ATOM     36  C   UNL     1      -1.169  -2.220  -0.328  0.00  0.00    +0.000 A 
ATOM     37  C   UNL     1      -1.181  -1.415   0.795  0.00  0.00    +0.005 A 
ATOM     38  C   UNL     1       0.010  -1.021   1.377  0.00  0.00    -0.027 A 
ENDBRANCH  31  38
ENDBRANCH   1  31
TORSDOF 5
