REMARK  Name = ZINC36582773
REMARK  23 active torsions:
REMARK  status: ('A' for Active; 'I' for Inactive)
REMARK    1  A    between atoms: C_1  and  C_2
REMARK    2  A    between atoms: C_2  and  C_3
REMARK    3  A    between atoms: C_3  and  C_4
REMARK    4  A    between atoms: C_4  and  C_5
REMARK    5  A    between atoms: C_5  and  C_7
REMARK    6  A    between atoms: C_5  and  C_9
REMARK    7  A    between atoms: C_7  and  C_8
REMARK    8  A    between atoms: N_11  and  C_12
REMARK    9  A    between atoms: N_11  and  C_28
REMARK   10  A    between atoms: C_12  and  C_14
REMARK   11  A    between atoms: C_12  and  C_17
REMARK   12  A    between atoms: C_15  and  C_16
REMARK   13  A    between atoms: N_19  and  C_20
REMARK   14  A    between atoms: C_20  and  C_21
REMARK   15  A    between atoms: C_20  and  C_22
REMARK   16  A    between atoms: C_20  and  C_23
REMARK   17  A    between atoms: C_23  and  C_24
REMARK   18  A    between atoms: C_24  and  C_25
REMARK   19  A    between atoms: C_24  and  C_26
REMARK   20  A    between atoms: C_24  and  C_27
REMARK   21  A    between atoms: C_28  and  C_29
REMARK   22  A    between atoms: C_28  and  C_30
REMARK   23  A    between atoms: C_28  and  C_31
REMARK                            x       y       z     vdW  Elec       q    Type
REMARK                         _______ _______ _______ _____ _____    ______ ____
ROOT
ATOM      1  C   UNL     1       3.896  -6.412  -4.464  0.00  0.00    +0.185 C 
ENDROOT
BRANCH   1   2
ATOM      2  C   UNL     1       5.114  -7.279  -4.654  0.00  0.00    +0.238 C 
ATOM      3  O   UNL     1       6.108  -6.823  -5.178  0.00  0.00    -0.273 OA
ATOM      4  N   UNL     1       5.098  -8.562  -4.241  0.00  0.00    -0.308 N 
ATOM      5  H   UNL     1       4.303  -8.927  -3.822  0.00  0.00    +0.149 HD
BRANCH   4   6
ATOM      6  C   UNL     1       6.282  -9.406  -4.425  0.00  0.00    +0.030 C 
ATOM      7  C   UNL     1       6.372  -9.845  -5.888  0.00  0.00    +0.031 C 
ATOM      8  C   UNL     1       7.536  -8.613  -4.052  0.00  0.00    +0.031 C 
BRANCH   6   9
ATOM      9  C   UNL     1       6.173 -10.640  -3.528  0.00  0.00    +0.031 C 
BRANCH   9  10
ATOM     10  C   UNL     1       5.784 -10.209  -2.112  0.00  0.00    -0.036 C 
ATOM     11  C   UNL     1       4.290  -9.880  -2.072  0.00  0.00    +0.010 C 
ATOM     12  C   UNL     1       6.082 -11.346  -1.133  0.00  0.00    +0.010 C 
ATOM     13  C   UNL     1       6.589  -8.970  -1.717  0.00  0.00    +0.010 C 
ENDBRANCH   9  10
ENDBRANCH   6   9
ENDBRANCH   4   6
ENDBRANCH   1   2
BRANCH   1  16
ATOM     14  C   UNL     1       3.998  -3.979  -4.374  0.00  0.00    +0.220 C 
ATOM     15  O   UNL     1       3.555  -4.026  -3.246  0.00  0.00    -0.275 OA
ATOM     16  N   UNL     1       4.121  -5.110  -5.097  0.00  0.00    -0.281 N 
BRANCH  16  17
ATOM     17  C   UNL     1       4.479  -5.037  -6.516  0.00  0.00    +0.030 C 
ATOM     18  C   UNL     1       5.931  -4.575  -6.653  0.00  0.00    +0.031 C 
ATOM     19  C   UNL     1       4.321  -6.420  -7.153  0.00  0.00    +0.031 C 
ATOM     20  C   UNL     1       3.558  -4.042  -7.223  0.00  0.00    +0.031 C 
ENDBRANCH  16  17
BRANCH  14  21
ATOM     21  C   UNL     1       4.412  -2.657  -4.967  0.00  0.00    +0.075 C 
BRANCH  21  22
ATOM     22  C   UNL     1       5.520  -2.039  -4.112  0.00  0.00    +0.009 C 
ATOM     23  C   UNL     1       6.730  -2.975  -4.090  0.00  0.00    +0.004 C 
ENDBRANCH  21  22
BRANCH  21  24
ATOM     24  C   UNL     1       3.208  -1.714  -5.002  0.00  0.00    +0.013 C 
BRANCH  24  25
ATOM     25  C   UNL     1       3.595  -0.418  -5.717  0.00  0.00    +0.000 C 
BRANCH  25  27
ATOM     26  C   UNL     1       2.778   1.821  -6.466  0.00  0.00    +0.004 C 
ATOM     27  C   UNL     1       2.391   0.525  -5.751  0.00  0.00    -0.003 C 
ENDBRANCH  25  27
ENDBRANCH  24  25
ENDBRANCH  21  24
ENDBRANCH  14  21
ENDBRANCH   1  16
BRANCH   1  28
ATOM     28  C   UNL     1       2.701  -7.078  -5.096  0.00  0.00    +0.000 C 
ATOM     29  C   UNL     1       1.550  -7.086  -4.471  0.00  0.00    -0.032 C 
ATOM     30  C   UNL     1       1.420  -6.429  -3.122  0.00  0.00    +0.035 C 
ENDBRANCH   1  28
TORSDOF 12
