REMARK  Name = ZINC21803961
REMARK  7 active torsions:
REMARK  status: ('A' for Active; 'I' for Inactive)
REMARK    1  A    between atoms: C_1  and  C_2
REMARK    2  A    between atoms: C_3  and  C_20
REMARK    3  A    between atoms: N_12  and  C_13
REMARK    4  A    between atoms: C_13  and  C_14
REMARK    5  A    between atoms: C_20  and  C_21
REMARK    6  A    between atoms: C_21  and  C_22
REMARK    7  A    between atoms: N_24  and  C_25
REMARK                            x       y       z     vdW  Elec       q    Type
REMARK                         _______ _______ _______ _____ _____    ______ ____
ROOT
ATOM      1  C   UNL     1      10.485  -4.484  -1.194  0.00  0.00    +0.066 C 
ATOM      2  C   UNL     1       9.252  -3.802  -1.729  0.00  0.00    +0.050 A 
ATOM      3  C   UNL     1       9.061  -3.701  -3.064  0.00  0.00    +0.040 A 
ATOM      4  C   UNL     1       7.903  -3.061  -3.556  0.00  0.00    +0.279 A 
ATOM      5  O   UNL     1       7.720  -2.965  -4.756  0.00  0.00    -0.265 OA
ATOM      6  N   UNL     1       7.003  -2.558  -2.692  0.00  0.00    -0.158 N 
ATOM      7  C   UNL     1       7.203  -2.663  -1.350  0.00  0.00    +0.258 A 
ATOM      8  N   UNL     1       8.330  -3.286  -0.867  0.00  0.00    -0.215 NA
ATOM      9  N   UNL     1       6.181  -2.088  -0.749  0.00  0.00    -0.176 NA
ATOM     10  C   UNL     1       5.323  -1.623  -1.662  0.00  0.00    +0.237 A 
ATOM     11  N   UNL     1       5.786  -1.885  -2.863  0.00  0.00    -0.125 NA
ATOM     12  N   UNL     1       4.130  -0.960  -1.384  0.00  0.00    -0.308 N 
ATOM     13  H   UNL     1       3.491  -0.609  -2.208  0.00  0.00    +0.149 HD
ENDROOT
BRANCH  12  14
ATOM     14  C   UNL     1       3.726  -0.730   0.005  0.00  0.00    +0.139 C 
BRANCH  14  15
ATOM     15  C   UNL     1       2.409   0.001   0.030  0.00  0.00    -0.030 A 
ATOM     16  C   UNL     1       1.224  -0.711   0.046  0.00  0.00    +0.005 A 
ATOM     17  C   UNL     1       0.015  -0.040   0.070  0.00  0.00    +0.000 A 
ATOM     18  C   UNL     1      -0.009   1.342   0.077  0.00  0.00    +0.000 A 
ATOM     19  C   UNL     1       1.177   2.054   0.062  0.00  0.00    +0.000 A 
ATOM     20  C   UNL     1       2.385   1.383   0.038  0.00  0.00    +0.005 A 
ENDBRANCH  14  15
ENDBRANCH  12  14
BRANCH   3  21
ATOM     21  C   UNL     1      10.077  -4.270  -4.021  0.00  0.00    +0.051 C 
BRANCH  21  22
ATOM     22  C   UNL     1       9.654  -5.680  -4.435  0.00  0.00    +0.101 C 
BRANCH  22  23
ATOM     23  C   UNL     1      10.671  -6.249  -5.392  0.00  0.00    +0.218 C 
ATOM     24  O   UNL     1      11.638  -5.591  -5.710  0.00  0.00    -0.275 OA
ATOM     25  N   UNL     1      10.504  -7.489  -5.894  0.00  0.00    -0.285 N 
ATOM     26  H   UNL     1       9.668  -8.115  -5.547  0.00  0.00    +0.155 HD
BRANCH  25  27
ATOM     27  C   UNL     1      11.395  -7.980  -6.855  0.00  0.00    +0.033 A 
ATOM     28  C   UNL     1      10.937  -8.818  -7.864  0.00  0.00    +0.024 A 
ATOM     29  C   UNL     1      11.817  -9.297  -8.814  0.00  0.00    +0.017 A 
ATOM     30  C   UNL     1      13.155  -8.951  -8.756  0.00  0.00    +0.018 A 
ATOM     31  C   UNL     1      13.615  -8.122  -7.749  0.00  0.00    +0.017 A 
ATOM     32  C   UNL     1      12.739  -7.635  -6.799  0.00  0.00    +0.024 A 
ATOM     33 BR   UNL     1      14.359  -9.615 -10.055  0.00  0.00    -0.050 Br
ENDBRANCH  25  27
ENDBRANCH  22  23
ENDBRANCH  21  22
ENDBRANCH   3  21
TORSDOF 6
