REMARK  Name = ZINC00189050
REMARK  6 active torsions:
REMARK  status: ('A' for Active; 'I' for Inactive)
REMARK    1  A    between atoms: C_1  and  N_2
REMARK    2  A    between atoms: N_2  and  C_3
REMARK    3  A    between atoms: N_2  and  C_4
REMARK    4  A    between atoms: C_10  and  N_18
REMARK    5  A    between atoms: N_18  and  C_19
REMARK    6  A    between atoms: N_18  and  C_20
REMARK                            x       y       z     vdW  Elec       q    Type
REMARK                         _______ _______ _______ _____ _____    ______ ____
ROOT
ATOM      1  C   UNL     1       0.003  -0.460  -1.452  0.00  0.00    +0.039 A 
ATOM      2  C   UNL     1       1.211  -0.543  -2.121  0.00  0.00    +0.024 A 
ATOM      3  C   UNL     1       1.343  -1.292  -3.285  0.00  0.00    +0.009 A 
ATOM      4  C   UNL     1       0.277  -1.964  -3.808  0.00  0.00    -0.002 A 
ATOM      5  C   UNL     1      -0.961  -1.886  -3.159  0.00  0.00    +0.006 A 
ATOM      6  C   UNL     1      -1.112  -1.153  -1.964  0.00  0.00    +0.025 A 
ATOM      7  C   UNL     1      -2.372  -1.137  -1.330  0.00  0.00    +0.039 A 
ATOM      8  C   UNL     1      -3.444  -1.824  -1.875  0.00  0.00    +0.024 A 
ATOM      9  C   UNL     1      -3.329  -2.543  -3.055  0.00  0.00    +0.017 A 
ATOM     10  C   UNL     1      -2.120  -2.581  -3.726  0.00  0.00    +0.067 A 
ATOM     11  C   UNL     1      -1.913  -3.296  -4.995  0.00  0.00    +0.340 C 
ATOM     12  O   UNL     1      -2.650  -4.192  -5.359  0.00  0.00    -0.245 OA
ATOM     13  O   UNL     1      -0.844  -2.892  -5.737  0.00  0.00    -0.456 OA
ATOM     14  C   UNL     1       0.411  -2.794  -5.057  0.00  0.00    +0.268 C 
ENDROOT
BRANCH   1  16
ATOM     15  C   UNL     1      -0.008   1.753  -0.346  0.00  0.00    +0.129 C 
ATOM     16  N   UNL     1      -0.108   0.292  -0.287  0.00  0.00    -0.335 N 
ATOM     17  C   UNL     1      -0.324  -0.376   0.998  0.00  0.00    +0.129 C 
ENDBRANCH   1  16
BRANCH   7  18
ATOM     18  N   UNL     1      -2.538  -0.430  -0.151  0.00  0.00    -0.335 N 
ATOM     19  C   UNL     1      -3.031  -1.111   1.048  0.00  0.00    +0.129 C 
ATOM     20  C   UNL     1      -2.220   0.999  -0.103  0.00  0.00    +0.129 C 
ENDBRANCH   7  18
TORSDOF 2
