REMARK  Name = ZINC35023227
REMARK  7 active torsions:
REMARK  status: ('A' for Active; 'I' for Inactive)
REMARK    1  A    between atoms: C_1  and  C_2
REMARK    2  A    between atoms: C_2  and  N_3
REMARK    3  A    between atoms: N_3  and  C_4
REMARK    4  A    between atoms: N_3  and  C_13
REMARK    5  A    between atoms: C_4  and  C_5
REMARK    6  A    between atoms: C_5  and  C_7
REMARK    7  A    between atoms: C_18  and  C_19
REMARK                            x       y       z     vdW  Elec       q    Type
REMARK                         _______ _______ _______ _____ _____    ______ ____
ROOT
ATOM      1  N   UNL     1       0.886  -0.150   0.950  0.00  0.00    -0.322 N 
ENDROOT
BRANCH   1   2
ATOM      2  C   UNL     1       2.194  -0.600   1.140  0.00  0.00    +0.033 A 
ATOM      3  C   UNL     1       2.766  -1.481   0.230  0.00  0.00    +0.023 A 
ATOM      4  C   UNL     1       4.060  -1.924   0.421  0.00  0.00    +0.002 A 
ATOM      5  C   UNL     1       4.786  -1.492   1.516  0.00  0.00    +0.000 A 
ATOM      6  C   UNL     1       4.219  -0.617   2.424  0.00  0.00    +0.005 A 
ATOM      7  C   UNL     1       2.928  -0.165   2.236  0.00  0.00    -0.029 A 
ATOM      8  C   UNL     1       2.313   0.795   3.222  0.00  0.00    +0.045 C 
ENDBRANCH   1   2
BRANCH   1  10
ATOM      9  C   UNL     1       0.696   2.281   0.759  0.00  0.00    +0.024 C 
ATOM     10  C   UNL     1       0.617   0.946   0.016  0.00  0.00    +0.102 C 
ENDBRANCH   1  10
BRANCH   1  11
ATOM     11  C   UNL     1      -0.218  -0.773   1.685  0.00  0.00    +0.185 C 
BRANCH  11  12
ATOM     12  C   UNL     1      -0.851  -1.841   0.830  0.00  0.00    +0.187 C 
ATOM     13  O   UNL     1      -0.377  -2.110  -0.255  0.00  0.00    -0.290 OA
BRANCH  12  14
ATOM     14  C   UNL     1      -1.995  -2.527   1.290  0.00  0.00    +0.058 A 
ATOM     15  C   UNL     1      -2.721  -3.538   0.667  0.00  0.00    +0.020 A 
ATOM     16  C   UNL     1      -3.798  -4.015   1.369  0.00  0.00    +0.028 A 
ATOM     17  C   UNL     1      -4.078  -3.486   2.590  0.00  0.00    +0.079 A 
ATOM     18  S   UNL     1      -2.882  -2.330   2.824  0.00  0.00    -0.074 S 
ATOM     19 CL   UNL     1      -5.372  -3.913   3.665  0.00  0.00    -0.076 Cl
ENDBRANCH  12  14
ENDBRANCH  11  12
ENDBRANCH   1  11
TORSDOF 5
