REMARK  Name = ZINC26780225
REMARK  13 active torsions:
REMARK  status: ('A' for Active; 'I' for Inactive)
REMARK    1  A    between atoms: C_1  and  C_2
REMARK    2  A    between atoms: C_2  and  C_3
REMARK    3  A    between atoms: C_3  and  C_4
REMARK    4  A    between atoms: C_3  and  C_5
REMARK    5  A    between atoms: C_3  and  C_6
REMARK    6  A    between atoms: C_9  and  O_12
REMARK    7  A    between atoms: O_12  and  C_13
REMARK    8  A    between atoms: C_16  and  N_19
REMARK    9  A    between atoms: N_19  and  C_20
REMARK   10  A    between atoms: N_19  and  C_22
REMARK   11  A    between atoms: C_20  and  C_21
REMARK   12  A    between atoms: C_22  and  N_24
REMARK   13  A    between atoms: N_24  and  C_25
REMARK                            x       y       z     vdW  Elec       q    Type
REMARK                         _______ _______ _______ _____ _____    ______ ____
ROOT
ATOM      1  C   UNL     1       2.846   0.233  -0.471  0.00  0.00    +0.129 A 
ATOM      2  C   UNL     1       1.488   0.514  -0.500  0.00  0.00    +0.048 A 
ATOM      3  C   UNL     1       1.045   1.805  -0.290  0.00  0.00    +0.027 A 
ATOM      4  C   UNL     1       1.960   2.822  -0.050  0.00  0.00    +0.036 A 
ATOM      5  C   UNL     1       3.319   2.540  -0.021  0.00  0.00    +0.027 A 
ATOM      6  C   UNL     1       3.760   1.249  -0.231  0.00  0.00    +0.048 A 
ENDROOT
BRANCH   1   7
ATOM      7  O   UNL     1       3.281  -1.038  -0.677  0.00  0.00    -0.456 OA
BRANCH   7  11
ATOM      8  C   UNL     1       3.019  -2.580  -4.494  0.00  0.00    -0.042 A 
ATOM      9  C   UNL     1       3.426  -3.389  -3.450  0.00  0.00    +0.008 A 
ATOM     10  C   UNL     1       3.515  -2.875  -2.171  0.00  0.00    +0.046 A 
ATOM     11  C   UNL     1       3.195  -1.546  -1.934  0.00  0.00    +0.128 A 
ATOM     12  C   UNL     1       2.781  -0.738  -2.983  0.00  0.00    +0.046 A 
ATOM     13  C   UNL     1       2.699  -1.255  -4.262  0.00  0.00    +0.008 A 
BRANCH   8  14
ATOM     14  C   UNL     1       2.924  -3.143  -5.889  0.00  0.00    -0.010 C 
ATOM     15  C   UNL     1       4.298  -3.651  -6.329  0.00  0.00    +0.016 C 
ATOM     16  C   UNL     1       1.923  -4.300  -5.905  0.00  0.00    +0.016 C 
BRANCH  14  18
ATOM     17  C   UNL     1       2.357  -2.620  -8.266  0.00  0.00    +0.005 C 
ATOM     18  C   UNL     1       2.454  -2.049  -6.850  0.00  0.00    +0.007 C 
ENDBRANCH  14  18
ENDBRANCH   8  14
ENDBRANCH   7  11
ENDBRANCH   1   7
BRANCH   4  19
ATOM     19  N   UNL     1       1.511   4.132   0.162  0.00  0.00    -0.283 N 
BRANCH  19  20
ATOM     20  C   UNL     1       0.752   4.459   1.372  0.00  0.00    +0.109 C 
ATOM     21  C   UNL     1       1.718   4.883   2.481  0.00  0.00    +0.025 C 
ENDBRANCH  19  20
BRANCH  19  22
ATOM     22  C   UNL     1       1.778   5.091  -0.746  0.00  0.00    +0.141 C 
ATOM     23  S   UNL     1       2.543   4.683  -2.223  0.00  0.00    -0.018 S 
BRANCH  22  24
ATOM     24  N   UNL     1       1.442   6.372  -0.493  0.00  0.00    -0.296 N 
ATOM     25  H   UNL     1       0.867   6.621   0.412  0.00  0.00    +0.154 HD
BRANCH  24  26
ATOM     26  C   UNL     1       1.824   7.385  -1.381  0.00  0.00    +0.033 A 
ATOM     27  C   UNL     1       3.086   7.362  -1.959  0.00  0.00    +0.026 A 
ATOM     28  C   UNL     1       3.459   8.359  -2.840  0.00  0.00    +0.040 A 
ATOM     29  C   UNL     1       2.579   9.387  -3.136  0.00  0.00    +0.124 A 
ATOM     30  C   UNL     1       1.322   9.414  -2.556  0.00  0.00    +0.040 A 
ATOM     31  C   UNL     1       0.943   8.416  -1.680  0.00  0.00    +0.026 A 
ATOM     32  F   UNL     1       2.947  10.364  -3.993  0.00  0.00    -0.205 F 
ENDBRANCH  24  26
ENDBRANCH  22  24
ENDBRANCH  19  22
ENDBRANCH   4  19
TORSDOF 9
