REMARK  Name = ZINC62040961
REMARK  9 active torsions:
REMARK  status: ('A' for Active; 'I' for Inactive)
REMARK    1  A    between atoms: C_1  and  N_2
REMARK    2  A    between atoms: N_5  and  C_8
REMARK    3  A    between atoms: C_8  and  C_9
REMARK    4  A    between atoms: C_12  and  C_15
REMARK    5  A    between atoms: C_17  and  C_20
REMARK    6  A    between atoms: C_20  and  C_21
REMARK    7  A    between atoms: N_23  and  C_24
REMARK    8  A    between atoms: C_29  and  O_30
REMARK    9  A    between atoms: O_30  and  C_31
REMARK                            x       y       z     vdW  Elec       q    Type
REMARK                         _______ _______ _______ _____ _____    ______ ____
ROOT
ATOM      1  C   UNL     1       1.394  -5.801   6.252  0.00  0.00    +0.109 A 
ATOM      2  N   UNL     1       0.750  -6.056   7.382  0.00  0.00    -0.243 NA
ATOM      3  C   UNL     1       1.389  -6.468   8.452  0.00  0.00    +0.058 A 
ATOM      4  C   UNL     1       2.737  -6.640   8.413  0.00  0.00    +0.071 A 
ATOM      5  S   UNL     1       3.078  -6.181   6.718  0.00  0.00    -0.075 S 
ENDROOT
BRANCH   1   9
ATOM      6  C   UNL     1      -0.134  -4.462   2.522  0.00  0.00    -0.033 A 
ATOM      7  C   UNL     1       1.222  -4.697   2.666  0.00  0.00    +0.005 A 
ATOM      8  C   UNL     1       1.725  -5.132   3.875  0.00  0.00    +0.011 A 
ATOM      9  C   UNL     1       0.862  -5.335   4.954  0.00  0.00    +0.007 A 
ATOM     10  C   UNL     1      -0.504  -5.096   4.801  0.00  0.00    +0.011 A 
ATOM     11  C   UNL     1      -0.993  -4.656   3.589  0.00  0.00    +0.005 A 
BRANCH   6  12
ATOM     12  C   UNL     1      -0.676  -3.987   1.199  0.00  0.00    +0.119 C 
BRANCH  12  17
ATOM     13  C   UNL     1      -0.036   1.486   0.022  0.00  0.00    -0.096 C 
ATOM     14  N   UNL     1      -0.025   0.017   0.010  0.00  0.00    +0.379 N 
ATOM     15  C   UNL     1      -1.406  -0.483   0.025  0.00  0.00    -0.064 C 
ATOM     16  C   UNL     1      -1.395  -2.013  -0.006  0.00  0.00    +0.066 C 
ATOM     17  N   UNL     1      -0.660  -2.518   1.162  0.00  0.00    -0.302 NA
ATOM     18  C   UNL     1       0.717  -2.006   1.174  0.00  0.00    +0.066 C 
ATOM     19  C   UNL     1       0.689  -0.476   1.196  0.00  0.00    -0.064 C 
ATOM     20  H   UNL     1       0.442  -0.309  -0.823  0.00  0.00    -0.082 HD
ENDBRANCH  12  17
ENDBRANCH   6  12
ENDBRANCH   1   9
BRANCH   3  21
ATOM     21  C   UNL     1       0.629  -6.749   9.723  0.00  0.00    +0.152 C 
BRANCH  21  22
ATOM     22  C   UNL     1      -0.169  -5.532  10.111  0.00  0.00    +0.223 C 
ATOM     23  O   UNL     1      -0.125  -4.533   9.423  0.00  0.00    -0.275 OA
ATOM     24  N   UNL     1      -0.932  -5.551  11.222  0.00  0.00    -0.282 N 
ATOM     25  H   UNL     1      -1.018  -6.369  11.737  0.00  0.00    +0.155 HD
BRANCH  24  26
ATOM     26  C   UNL     1      -1.600  -4.391  11.634  0.00  0.00    +0.077 A 
ATOM     27  C   UNL     1      -2.100  -3.504  10.691  0.00  0.00    +0.047 A 
ATOM     28  C   UNL     1      -2.759  -2.360  11.101  0.00  0.00    +0.043 A 
ATOM     29  C   UNL     1      -2.922  -2.096  12.449  0.00  0.00    +0.024 A 
ATOM     30  C   UNL     1      -2.425  -2.975  13.394  0.00  0.00    +0.049 A 
ATOM     31  C   UNL     1      -1.769  -4.127  12.992  0.00  0.00    +0.141 A 
ATOM     32 CL   UNL     1      -3.384  -1.251   9.920  0.00  0.00    -0.083 Cl
BRANCH  31  33
ATOM     33  O   UNL     1      -1.286  -4.995  13.920  0.00  0.00    -0.493 OA
ATOM     34  C   UNL     1      -1.496  -4.660  15.293  0.00  0.00    +0.277 C 
ENDBRANCH  31  33
ENDBRANCH  24  26
ENDBRANCH  21  22
ENDBRANCH   3  21
TORSDOF 7
