REMARK  Name = ZINC51450403
REMARK  10 active torsions:
REMARK  status: ('A' for Active; 'I' for Inactive)
REMARK    1  A    between atoms: C_1  and  C_2
REMARK    2  A    between atoms: C_2  and  C_4
REMARK    3  A    between atoms: C_2  and  S_22
REMARK    4  A    between atoms: C_6  and  C_7
REMARK    5  A    between atoms: C_6  and  C_9
REMARK    6  A    between atoms: N_11  and  C_12
REMARK    7  A    between atoms: C_15  and  N_18
REMARK    8  A    between atoms: C_19  and  C_21
REMARK    9  A    between atoms: S_22  and  C_23
REMARK   10  A    between atoms: C_23  and  C_24
REMARK                            x       y       z     vdW  Elec       q    Type
REMARK                         _______ _______ _______ _____ _____    ______ ____
ROOT
ATOM      1  C   UNL     1       0.704  -0.691  -1.299  0.00  0.00    +0.191 C 
ATOM      2  O   UNL     1       0.221  -0.364  -2.510  0.00  0.00    -0.290 OA
ATOM      3  C   UNL     1       1.959  -1.212  -1.184  0.00  0.00    +0.157 C 
ENDROOT
BRANCH   3   4
ATOM      4  C   UNL     1       2.549  -1.419   0.146  0.00  0.00    +0.262 C 
ATOM      5  O   UNL     1       1.899  -1.173   1.145  0.00  0.00    -0.269 OA
ATOM      6  N   UNL     1       3.810  -1.882   0.259  0.00  0.00    -0.281 N 
ATOM      7  H   UNL     1       4.313  -2.117  -0.536  0.00  0.00    +0.155 HD
BRANCH   6   8
ATOM      8  C   UNL     1       4.393  -2.024   1.524  0.00  0.00    +0.034 A 
ATOM      9  C   UNL     1       3.619  -2.426   2.604  0.00  0.00    +0.025 A 
ATOM     10  C   UNL     1       4.193  -2.566   3.852  0.00  0.00    +0.025 A 
ATOM     11  C   UNL     1       5.546  -2.304   4.026  0.00  0.00    +0.033 A 
ATOM     12  C   UNL     1       6.320  -1.901   2.946  0.00  0.00    +0.025 A 
ATOM     13  C   UNL     1       5.747  -1.767   1.697  0.00  0.00    +0.025 A 
BRANCH  11  14
ATOM     14  N   UNL     1       6.129  -2.445   5.292  0.00  0.00    -0.286 N 
ATOM     15  C   UNL     1       7.146  -1.641   5.659  0.00  0.00    +0.214 C 
ATOM     16  O   UNL     1       7.488  -0.727   4.937  0.00  0.00    -0.276 OA
ATOM     17  C   UNL     1       7.860  -1.876   6.965  0.00  0.00    +0.109 C 
ATOM     18  H   UNL     1       5.801  -3.122   5.904  0.00  0.00    +0.155 HD
ENDBRANCH  11  14
ENDBRANCH   6   8
ENDBRANCH   3   4
BRANCH   1  20
ATOM     19  C   UNL     1       0.223   0.860   0.575  0.00  0.00    +0.027 C 
ATOM     20  C   UNL     1      -0.140  -0.480  -0.069  0.00  0.00    +0.115 C 
BRANCH  20  21
ATOM     21  S   UNL     1      -1.894  -0.472  -0.533  0.00  0.00    -0.145 S 
BRANCH  21  22
ATOM     22  C   UNL     1      -2.767  -0.365   1.053  0.00  0.00    +0.104 C 
BRANCH  22  23
ATOM     23  C   UNL     1      -4.254  -0.350   0.808  0.00  0.00    -0.038 A 
ATOM     24  C   UNL     1      -4.912   0.851   0.622  0.00  0.00    +0.004 A 
ATOM     25  C   UNL     1      -6.276   0.865   0.397  0.00  0.00    +0.000 A 
ATOM     26  C   UNL     1      -6.982  -0.323   0.358  0.00  0.00    +0.000 A 
ATOM     27  C   UNL     1      -6.324  -1.525   0.543  0.00  0.00    +0.000 A 
ATOM     28  C   UNL     1      -4.959  -1.539   0.764  0.00  0.00    +0.004 A 
ENDBRANCH  22  23
ENDBRANCH  21  22
ENDBRANCH  20  21
ENDBRANCH   1  20
BRANCH   3  29
ATOM     29  C   UNL     1       2.701  -1.558  -2.359  0.00  0.00    +0.108 C 
ATOM     30  N   UNL     1       3.290  -1.832  -3.291  0.00  0.00    -0.191 NA
ENDBRANCH   3  29
TORSDOF 8
