REMARK  Name = ZINC67593483
REMARK  9 active torsions:
REMARK  status: ('A' for Active; 'I' for Inactive)
REMARK    1  A    between atoms: C_1  and  C_2
REMARK    2  A    between atoms: N_5  and  C_8
REMARK    3  A    between atoms: C_8  and  C_10
REMARK    4  A    between atoms: C_8  and  C_11
REMARK    5  A    between atoms: C_11  and  N_12
REMARK    6  A    between atoms: C_13  and  C_15
REMARK    7  A    between atoms: C_15  and  N_16
REMARK    8  A    between atoms: N_16  and  C_17
REMARK    9  A    between atoms: N_16  and  C_18
REMARK                            x       y       z     vdW  Elec       q    Type
REMARK                         _______ _______ _______ _____ _____    ______ ____
ROOT
ATOM      1  N   UNL     1       1.955  -3.921   2.403  0.00  0.00    -0.318 N 
ATOM      2  C   UNL     1       2.600  -4.105   3.572  0.00  0.00    +0.196 C 
ATOM      3  O   UNL     1       3.700  -4.617   3.584  0.00  0.00    -0.278 OA
ATOM      4  H   UNL     1       1.076  -3.512   2.393  0.00  0.00    +0.149 HD
ENDROOT
BRANCH   1   5
ATOM      5  C   UNL     1       2.582  -4.341   1.147  0.00  0.00    +0.088 C 
BRANCH   5   6
ATOM      6  C   UNL     1       1.710  -3.900  -0.030  0.00  0.00    -0.054 C 
ATOM      7  C   UNL     1       2.420  -4.233  -1.344  0.00  0.00    -0.012 C 
BRANCH   6  12
ATOM      8  C   UNL     1       1.235   1.728  -0.822  0.00  0.00    +0.007 C 
ATOM      9  C   UNL     1       1.521   0.239  -1.027  0.00  0.00    -0.018 C 
ATOM     10  C   UNL     1       2.531  -0.238   0.020  0.00  0.00    -0.016 C 
ATOM     11  C   UNL     1       2.752  -1.744  -0.140  0.00  0.00    -0.078 C 
ATOM     12  N   UNL     1       1.479  -2.451   0.048  0.00  0.00    +0.382 N 
ATOM     13  C   UNL     1       0.528  -2.052  -0.997  0.00  0.00    -0.078 C 
ATOM     14  C   UNL     1       0.223  -0.558  -0.869  0.00  0.00    -0.016 C 
ATOM     15  H   UNL     1       1.099  -2.221   0.953  0.00  0.00    -0.081 HD
ENDBRANCH   6  12
ENDBRANCH   5   6
ENDBRANCH   1   5
BRANCH   2  16
ATOM     16  C   UNL     1       1.956  -3.673   4.864  0.00  0.00    +0.019 C 
BRANCH  16  17
ATOM     17  N   UNL     1       2.854  -3.979   5.986  0.00  0.00    +0.387 N 
ATOM     18  C   UNL     1       4.075  -3.170   5.871  0.00  0.00    -0.095 C 
ATOM     19  H   UNL     1       3.097  -4.959   5.965  0.00  0.00    -0.081 HD
BRANCH  17  20
ATOM     20  C   UNL     1       2.179  -3.669   7.253  0.00  0.00    -0.046 C 
ATOM     21  C   UNL     1       3.101  -4.020   8.432  0.00  0.00    +0.009 C 
ATOM     22  C   UNL     1       2.296  -4.003   9.754  0.00  0.00    +0.164 C 
ATOM     23  S   UNL     1       0.596  -4.427   9.198  0.00  0.00    -0.033 S 
ATOM     24  O   UNL     1      -0.268  -3.333   9.472  0.00  0.00    -0.174 OA
ATOM     25  O   UNL     1       0.260  -5.721   9.681  0.00  0.00    -0.174 OA
ATOM     26  C   UNL     1       0.884  -4.522   7.380  0.00  0.00    +0.151 C 
ENDBRANCH  17  20
ENDBRANCH  16  17
ENDBRANCH   2  16
TORSDOF 6
