REMARK  Name = ZINC11726400
REMARK  7 active torsions:
REMARK  status: ('A' for Active; 'I' for Inactive)
REMARK    1  A    between atoms: C_1  and  C_2
REMARK    2  A    between atoms: C_2  and  N_3
REMARK    3  A    between atoms: N_12  and  C_13
REMARK    4  A    between atoms: C_13  and  C_15
REMARK    5  A    between atoms: C_18  and  S_21
REMARK    6  A    between atoms: S_21  and  N_24
REMARK    7  A    between atoms: C_29  and  C_31
REMARK                            x       y       z     vdW  Elec       q    Type
REMARK                         _______ _______ _______ _____ _____    ______ ____
ROOT
ATOM      1  C   UNL     1      -4.911  -1.198  -0.763  0.00  0.00    +0.039 A 
ATOM      2  C   UNL     1      -5.870  -2.148  -0.410  0.00  0.00    +0.015 A 
ATOM      3  C   UNL     1      -7.187  -1.767  -0.249  0.00  0.00    +0.029 A 
ATOM      4  C   UNL     1      -7.558  -0.450  -0.447  0.00  0.00    +0.106 A 
ATOM      5  C   UNL     1      -6.612   0.496  -0.803  0.00  0.00    +0.029 A 
ATOM      6  C   UNL     1      -5.292   0.129  -0.962  0.00  0.00    +0.015 A 
ENDROOT
BRANCH   4   7
ATOM      7  S   UNL     1      -9.242   0.027  -0.247  0.00  0.00    +0.061 S 
ATOM      8  O   UNL     1      -9.876  -1.018   0.479  0.00  0.00    -0.153 OA
ATOM      9  O   UNL     1      -9.232   1.373   0.208  0.00  0.00    -0.153 OA
BRANCH   7  10
ATOM     10  N   UNL     1      -9.930   0.042  -1.754  0.00  0.00    -0.174 NA
ATOM     11  C   UNL     1     -10.083   1.301  -2.494  0.00  0.00    +0.110 C 
ATOM     12  C   UNL     1     -11.548   1.451  -2.915  0.00  0.00    +0.017 C 
ATOM     13  C   UNL     1     -11.981   0.207  -3.694  0.00  0.00    +0.003 C 
ATOM     14  C   UNL     1     -11.859  -1.027  -2.797  0.00  0.00    +0.020 C 
ATOM     15  C   UNL     1     -10.392  -1.206  -2.377  0.00  0.00    +0.077 C 
ATOM     16  C   UNL     1     -10.280  -2.354  -1.373  0.00  0.00    +0.026 C 
ENDBRANCH   7  10
ENDBRANCH   4   7
BRANCH   1  17
ATOM     17  C   UNL     1      -3.495  -1.599  -0.933  0.00  0.00    +0.269 C 
ATOM     18  O   UNL     1      -2.660  -0.769  -1.246  0.00  0.00    -0.268 OA
BRANCH  17  28
ATOM     19  N   UNL     1      -1.312  -4.466  -0.744  0.00  0.00    -0.321 N 
ATOM     20  C   UNL     1       0.044  -4.649  -0.946  0.00  0.00    +0.058 A 
ATOM     21  C   UNL     1       0.788  -5.835  -0.839  0.00  0.00    +0.030 A 
ATOM     22  C   UNL     1       2.142  -5.840  -1.077  0.00  0.00    +0.040 A 
ATOM     23  C   UNL     1       2.814  -4.679  -1.428  0.00  0.00    +0.125 A 
ATOM     24  C   UNL     1       2.103  -3.494  -1.541  0.00  0.00    +0.055 A 
ATOM     25  C   UNL     1       0.749  -3.490  -1.303  0.00  0.00    +0.042 A 
ATOM     26  S   UNL     1      -0.508  -2.238  -1.324  0.00  0.00    -0.052 S 
ATOM     27  C   UNL     1      -1.863  -3.231  -0.894  0.00  0.00    +0.167 A 
ATOM     28  N   UNL     1      -3.133  -2.872  -0.742  0.00  0.00    -0.152 NA
ATOM     29  F   UNL     1       4.145  -4.702  -1.658  0.00  0.00    -0.205 F 
BRANCH  19  31
ATOM     30  C   UNL     1      -3.223  -5.139   0.626  0.00  0.00    +0.027 C 
ATOM     31  C   UNL     1      -2.156  -5.603  -0.367  0.00  0.00    +0.121 C 
ENDBRANCH  19  31
ENDBRANCH  17  28
ENDBRANCH   1  17
TORSDOF 5
