REMARK  Name = ZINC04010301
REMARK  8 active torsions:
REMARK  status: ('A' for Active; 'I' for Inactive)
REMARK    1  A    between atoms: C_1  and  C_2
REMARK    2  A    between atoms: C_2  and  C_33
REMARK    3  A    between atoms: C_6  and  C_18
REMARK    4  A    between atoms: C_21  and  O_26
REMARK    5  A    between atoms: C_22  and  O_24
REMARK    6  A    between atoms: O_24  and  C_25
REMARK    7  A    between atoms: O_26  and  C_27
REMARK    8  A    between atoms: C_27  and  C_28
REMARK                            x       y       z     vdW  Elec       q    Type
REMARK                         _______ _______ _______ _____ _____    ______ ____
ROOT
ATOM      1  C   UNL     1       0.481   5.941  -3.468  0.00  0.00    +0.011 C 
ATOM      2  C   UNL     1       1.920   6.431  -3.638  0.00  0.00    -0.023 C 
ATOM      3  C   UNL     1       2.328   7.260  -2.418  0.00  0.00    +0.058 C 
ATOM      4  C   UNL     1       2.266   6.402  -1.179  0.00  0.00    +0.017 C 
ATOM      5  C   UNL     1       2.504   5.075  -1.239  0.00  0.00    +0.024 C 
ATOM      6  C   UNL     1       2.447   4.220   0.001  0.00  0.00    +0.093 C 
ATOM      7  C   UNL     1       2.529   5.058   1.243  0.00  0.00    +0.069 A 
ATOM      8  C   UNL     1       2.285   6.396   1.203  0.00  0.00    +0.135 A 
ATOM      9  N   UNL     1       2.360   7.135   2.359  0.00  0.00    -0.207 NA
ATOM     10  C   UNL     1       2.676   6.542   3.525  0.00  0.00    +0.182 A 
ATOM     11  S   UNL     1       2.763   7.482   4.953  0.00  0.00    -0.011 S 
ATOM     12  N   UNL     1       2.927   5.221   3.585  0.00  0.00    -0.301 N 
ATOM     13  H   UNL     1       3.186   4.754   4.546  0.00  0.00    +0.171 HD
ATOM     14  C   UNL     1       2.862   4.461   2.474  0.00  0.00    +0.258 A 
ATOM     15  O   UNL     1       3.091   3.265   2.535  0.00  0.00    -0.267 OA
ATOM     16  N   UNL     1       1.966   7.003   0.014  0.00  0.00    -0.302 N 
ATOM     17  C   UNL     1       2.811   4.449  -2.461  0.00  0.00    +0.162 C 
ATOM     18  O   UNL     1       3.036   3.255  -2.479  0.00  0.00    -0.292 OA
ATOM     19  C   UNL     1       2.864   5.229  -3.745  0.00  0.00    +0.086 C 
ATOM     20  C   UNL     1       2.025   7.288  -4.901  0.00  0.00    +0.011 C 
ATOM     21  H   UNL     1       1.463   7.981   0.026  0.00  0.00    +0.153 HD
ENDROOT
BRANCH   6  22
ATOM     22  C   UNL     1       1.153   3.449   0.010  0.00  0.00    -0.032 A 
ATOM     23  C   UNL     1      -0.053   4.125   0.025  0.00  0.00    +0.008 A 
ATOM     24  C   UNL     1      -1.243   3.422   0.032  0.00  0.00    +0.050 A 
ATOM     25  C   UNL     1      -1.230   2.037   0.019  0.00  0.00    +0.162 A 
ATOM     26  C   UNL     1      -0.016   1.356   0.009  0.00  0.00    +0.162 A 
ATOM     27  C   UNL     1       1.173   2.066   0.002  0.00  0.00    +0.054 A 
BRANCH  26  28
ATOM     28  O   UNL     1       0.002  -0.004   0.002  0.00  0.00    -0.491 OA
ATOM     29  C   UNL     1       1.284  -0.635  -0.014  0.00  0.00    +0.277 C 
ENDBRANCH  26  28
BRANCH  25  30
ATOM     30  O   UNL     1      -2.400   1.344   0.021  0.00  0.00    -0.484 OA
BRANCH  30  31
ATOM     31  C   UNL     1      -3.607   2.109   0.031  0.00  0.00    +0.256 C 
BRANCH  31  32
ATOM     32  C   UNL     1      -4.792   1.177   0.031  0.00  0.00    +0.006 C 
ATOM     33  C   UNL     1      -5.799   1.399   0.839  0.00  0.00    +0.007 C 
ENDBRANCH  31  32
ENDBRANCH  30  31
ENDBRANCH  25  30
ENDBRANCH   6  22
TORSDOF 5
