REMARK  Name = ZINC40588458
REMARK  9 active torsions:
REMARK  status: ('A' for Active; 'I' for Inactive)
REMARK    1  A    between atoms: C_1  and  C_2
REMARK    2  A    between atoms: C_3  and  N_9
REMARK    3  A    between atoms: C_11  and  N_27
REMARK    4  A    between atoms: C_12  and  N_16
REMARK    5  A    between atoms: N_16  and  C_17
REMARK    6  A    between atoms: C_19  and  C_25
REMARK    7  A    between atoms: C_19  and  C_26
REMARK    8  A    between atoms: C_21  and  C_23
REMARK    9  A    between atoms: C_21  and  C_24
REMARK                            x       y       z     vdW  Elec       q    Type
REMARK                         _______ _______ _______ _____ _____    ______ ____
ROOT
ATOM      1  N   UNL     1      -0.187  -0.396  -2.708  0.00  0.00    -0.297 N 
ATOM      2  C   UNL     1       0.098  -1.072  -3.886  0.00  0.00    +0.159 A 
ATOM      3  C   UNL     1       0.190  -0.383  -5.091  0.00  0.00    +0.205 A 
ATOM      4  C   UNL     1       0.477  -1.107  -6.244  0.00  0.00    +0.155 A 
ATOM      5  N   UNL     1       0.652  -2.424  -6.154  0.00  0.00    -0.218 NA
ATOM      6  C   UNL     1       0.556  -3.041  -4.993  0.00  0.00    +0.225 A 
ATOM      7  N   UNL     1       0.291  -2.390  -3.879  0.00  0.00    -0.218 NA
ATOM      8  H   UNL     1      -0.408   0.548  -2.732  0.00  0.00    +0.154 HD
ENDROOT
BRANCH   1  11
ATOM      9  C   UNL     1      -1.601   0.726  -0.509  0.00  0.00    +0.047 C 
ATOM     10  C   UNL     1      -0.831  -0.563  -0.388  0.00  0.00    -0.011 A 
ATOM     11  C   UNL     1      -0.154  -1.075  -1.487  0.00  0.00    +0.037 A 
ATOM     12  C   UNL     1       0.555  -2.264  -1.371  0.00  0.00    +0.023 A 
ATOM     13  C   UNL     1       0.586  -2.934  -0.163  0.00  0.00    +0.003 A 
ATOM     14  C   UNL     1      -0.089  -2.422   0.930  0.00  0.00    +0.020 A 
ATOM     15  C   UNL     1      -0.792  -1.235   0.820  0.00  0.00    +0.046 A 
ATOM     16 CL   UNL     1      -1.632  -0.593   2.197  0.00  0.00    -0.083 Cl
ENDBRANCH   1  11
BRANCH   3  17
ATOM     17  N   UNL     1      -0.012   1.083  -5.145  0.00  0.00    +0.063 N 
ATOM     18  O   UNL     1       0.930   1.828  -5.004  0.00  0.00    -0.126 OA
ATOM     19  O   UNL     1      -1.118   1.534  -5.330  0.00  0.00    -0.126 OA
ENDBRANCH   3  17
BRANCH   4  20
ATOM     20  N   UNL     1       0.580  -0.466  -7.470  0.00  0.00    -0.324 N 
ATOM     21  H   UNL     1       0.451   0.493  -7.527  0.00  0.00    +0.148 HD
BRANCH  20  22
ATOM     22  C   UNL     1       0.883  -1.241  -8.680  0.00  0.00    +0.069 C 
ATOM     23  C   UNL     1       2.401  -1.372  -8.825  0.00  0.00    +0.009 C 
ATOM     24  C   UNL     1       2.733  -2.166 -10.088  0.00  0.00    -0.072 C 
ATOM     25  N   UNL     1       2.106  -1.599 -11.273  0.00  0.00    +0.386 N 
ATOM     26  C   UNL     1       0.700  -1.240 -11.186  0.00  0.00    -0.072 C 
ATOM     27  C   UNL     1       0.347  -0.496  -9.902  0.00  0.00    +0.009 C 
ATOM     28  C   UNL     1       0.390  -0.288 -12.366  0.00  0.00    -0.010 C 
ATOM     29  C   UNL     1      -0.208  -2.462 -11.348  0.00  0.00    -0.010 C 
ATOM     30  C   UNL     1       4.265  -2.088 -10.288  0.00  0.00    -0.010 C 
ATOM     31  C   UNL     1       2.376  -3.639  -9.896  0.00  0.00    -0.010 C 
ATOM     32  H   UNL     1       2.635  -0.767 -11.549  0.00  0.00    -0.084 HD
ATOM     33  H   UNL     1       2.223  -2.260 -12.045  0.00  0.00    -0.084 HD
ENDBRANCH  20  22
ENDBRANCH   4  20
TORSDOF 4
