REMARK  Name = ZINC15002964
REMARK  3 active torsions:
REMARK  status: ('A' for Active; 'I' for Inactive)
REMARK    1  A    between atoms: C_16  and  N_58
REMARK    2  A    between atoms: N_22  and  C_25
REMARK    3  A    between atoms: C_25  and  C_26
REMARK                            x       y       z     vdW  Elec       q    Type
REMARK                         _______ _______ _______ _____ _____    ______ ____
ROOT
ATOM      1  C   UNL     1       0.385   3.583   4.450  0.00  0.00    -0.067 C 
ATOM      2  C   UNL     1       1.847   3.395   4.089  0.00  0.00    -0.006 C 
ATOM      3  C   UNL     1       2.329   4.519   3.170  0.00  0.00    +0.094 C 
ATOM      4  C   UNL     1       1.982   4.154   1.742  0.00  0.00    +0.216 C 
ATOM      5  O   UNL     1       2.862   3.842   0.967  0.00  0.00    -0.276 OA
ATOM      6  N   UNL     1       0.713   4.173   1.333  0.00  0.00    -0.297 N 
ATOM      7  C   UNL     1      -0.363   4.562   2.259  0.00  0.00    +0.106 C 
ATOM      8  C   UNL     1      -0.561   3.427   3.273  0.00  0.00    +0.004 C 
ENDROOT
BRANCH   1  22
ATOM      9  C   UNL     1      -3.376   3.152   8.523  0.00  0.00    +0.007 A 
ATOM     10  C   UNL     1      -1.990   2.962   8.562  0.00  0.00    +0.022 A 
ATOM     11  C   UNL     1      -1.397   2.034   7.765  0.00  0.00    +0.023 A 
ATOM     12  N   UNL     1      -2.141   1.240   6.961  0.00  0.00    -0.312 N 
ATOM     13  C   UNL     1      -3.475   1.456   6.850  0.00  0.00    +0.251 A 
ATOM     14  O   UNL     1      -4.124   0.816   6.037  0.00  0.00    -0.268 OA
ATOM     15  C   UNL     1      -4.118   2.405   7.656  0.00  0.00    +0.070 A 
ATOM     16  C   UNL     1      -1.586   0.122   6.198  0.00  0.00    +0.126 C 
ATOM     17  C   UNL     1      -0.075   0.204   6.065  0.00  0.00    -0.007 C 
ATOM     18  C   UNL     1       0.540   0.517   7.432  0.00  0.00    +0.011 C 
ATOM     19  C   UNL     1       0.112   1.938   7.816  0.00  0.00    +0.020 C 
ATOM     20  C   UNL     1       0.671   2.904   6.758  0.00  0.00    -0.069 C 
ATOM     21  C   UNL     1       0.350   1.235   5.031  0.00  0.00    -0.073 C 
ATOM     22  N   UNL     1      -0.006   2.596   5.478  0.00  0.00    +0.382 N 
ATOM     23  H   UNL     1      -1.022   2.646   5.618  0.00  0.00    -0.081 HD
ENDBRANCH   1  22
BRANCH   6  24
ATOM     24  C   UNL     1       0.388   3.811  -0.049  0.00  0.00    +0.143 C 
BRANCH  24  25
ATOM     25  C   UNL     1       0.130   2.329  -0.133  0.00  0.00    -0.027 A 
ATOM     26  C   UNL     1       1.173   1.460  -0.394  0.00  0.00    +0.008 A 
ATOM     27  C   UNL     1       0.939   0.100  -0.471  0.00  0.00    +0.041 A 
ATOM     28  C   UNL     1      -0.341  -0.394  -0.286  0.00  0.00    +0.158 A 
ATOM     29  C   UNL     1      -1.387   0.477  -0.024  0.00  0.00    +0.159 A 
ATOM     30  C   UNL     1      -1.149   1.839   0.053  0.00  0.00    +0.046 A 
ATOM     31  F   UNL     1      -2.637  -0.002   0.158  0.00  0.00    -0.202 F 
ATOM     32  F   UNL     1      -0.570  -1.723  -0.361  0.00  0.00    -0.202 F 
ENDBRANCH  24  25
ENDBRANCH   6  24
TORSDOF 3
