REMARK  Name = ZINC35108027
REMARK  9 active torsions:
REMARK  status: ('A' for Active; 'I' for Inactive)
REMARK    1  A    between atoms: C_1  and  O_2
REMARK    2  A    between atoms: O_2  and  C_3
REMARK    3  A    between atoms: C_5  and  N_26
REMARK    4  A    between atoms: C_8  and  N_9
REMARK    5  A    between atoms: C_10  and  C_12
REMARK    6  A    between atoms: C_12  and  O_13
REMARK    7  A    between atoms: O_13  and  C_14
REMARK    8  A    between atoms: C_14  and  C_16
REMARK    9  A    between atoms: C_18  and  N_24
REMARK                            x       y       z     vdW  Elec       q    Type
REMARK                         _______ _______ _______ _____ _____    ______ ____
ROOT
ATOM      1  C   UNL     1      -0.648  -4.951   0.805  0.00  0.00    +0.328 C 
ENDROOT
BRANCH   1   3
ATOM      2  N   UNL     1       0.095  -2.777  -0.112  0.00  0.00    -0.280 N 
ATOM      3  C   UNL     1       0.060  -4.119  -0.233  0.00  0.00    +0.255 C 
ATOM      4  O   UNL     1       0.599  -4.658  -1.176  0.00  0.00    -0.272 OA
ATOM      5  H   UNL     1      -0.265  -2.352   0.681  0.00  0.00    +0.155 HD
BRANCH   2  11
ATOM      6  C   UNL     1       1.159  -0.731  -0.849  0.00  0.00    +0.143 A 
ATOM      7  C   UNL     1       1.713   0.034  -1.862  0.00  0.00    +0.080 A 
ATOM      8  C   UNL     1       1.756  -0.456  -3.154  0.00  0.00    +0.130 A 
ATOM      9  C   UNL     1       1.248  -1.710  -3.439  0.00  0.00    +0.035 A 
ATOM     10  C   UNL     1       0.694  -2.480  -2.434  0.00  0.00    +0.029 A 
ATOM     11  C   UNL     1       0.652  -1.997  -1.134  0.00  0.00    +0.076 A 
BRANCH   8  12
ATOM     12  N   UNL     1       2.348   0.364  -4.235  0.00  0.00    +0.057 N 
ATOM     13  O   UNL     1       2.793   1.461  -3.987  0.00  0.00    -0.126 OA
ATOM     14  O   UNL     1       2.387  -0.063  -5.365  0.00  0.00    -0.126 OA
ENDBRANCH   8  12
BRANCH   6  16
ATOM     15  C   UNL     1       1.653   1.055   0.641  0.00  0.00    +0.277 C 
ATOM     16  O   UNL     1       1.115  -0.250   0.422  0.00  0.00    -0.493 OA
ENDBRANCH   6  16
ENDBRANCH   2  11
ENDBRANCH   1   3
BRANCH   1  17
ATOM     17  O   UNL     1      -0.547  -6.333   0.459  0.00  0.00    -0.451 OA
BRANCH  17  18
ATOM     18  C   UNL     1      -1.132  -7.217   1.291  0.00  0.00    +0.360 C 
ATOM     19  O   UNL     1      -1.713  -6.824   2.283  0.00  0.00    -0.243 OA
BRANCH  18  20
ATOM     20  C   UNL     1      -1.068  -8.665   0.996  0.00  0.00    +0.169 A 
ATOM     21  C   UNL     1      -1.680  -9.572   1.856  0.00  0.00    +0.095 A 
ATOM     22  C   UNL     1      -1.610 -10.934   1.563  0.00  0.00    +0.067 A 
ATOM     23  C   UNL     1      -0.927 -11.330   0.415  0.00  0.00    +0.100 A 
ATOM     24  C   UNL     1      -0.344 -10.367  -0.392  0.00  0.00    +0.150 A 
ATOM     25  N   UNL     1      -0.431  -9.088  -0.092  0.00  0.00    -0.226 NA
ATOM     26 CL   UNL     1       0.509 -10.853  -1.824  0.00  0.00    -0.060 Cl
ATOM     27 CL   UNL     1      -0.808 -13.012   0.001  0.00  0.00    -0.078 Cl
ATOM     28 CL   UNL     1      -2.516  -9.016   3.273  0.00  0.00    -0.079 Cl
BRANCH  22  29
ATOM     29  N   UNL     1      -2.209 -11.876   2.399  0.00  0.00    -0.356 N 
ATOM     30  H   UNL     1      -2.681 -11.587   3.195  0.00  0.00    +0.142 HD
ATOM     31  H   UNL     1      -2.153 -12.820   2.183  0.00  0.00    +0.142 HD
ENDBRANCH  22  29
ENDBRANCH  18  20
ENDBRANCH  17  18
ENDBRANCH   1  17
TORSDOF 8
