REMARK  Name = ZINC10969487
REMARK  6 active torsions:
REMARK  status: ('A' for Active; 'I' for Inactive)
REMARK    1  A    between atoms: C_1  and  C_2
REMARK    2  A    between atoms: C_5  and  C_8
REMARK    3  A    between atoms: N_15  and  C_16
REMARK    4  A    between atoms: C_16  and  C_17
REMARK    5  A    between atoms: N_27  and  C_32
REMARK    6  A    between atoms: N_30  and  C_31
REMARK                            x       y       z     vdW  Elec       q    Type
REMARK                         _______ _______ _______ _____ _____    ______ ____
ROOT
ATOM      1  C   UNL     1      -1.686   3.603   6.902  0.00  0.00    +0.171 A 
ATOM      2  N   UNL     1      -1.846   4.901   7.034  0.00  0.00    -0.127 NA
ATOM      3  N   UNL     1      -1.220   5.519   6.097  0.00  0.00    -0.110 NA
ATOM      4  C   UNL     1      -0.620   4.654   5.307  0.00  0.00    +0.239 A 
ATOM      5  N   UNL     1      -0.896   3.406   5.792  0.00  0.00    -0.244 N 
ATOM      6  C   UNL     1      -0.283   2.476   4.988  0.00  0.00    +0.155 A 
ATOM      7  C   UNL     1       0.379   3.144   3.997  0.00  0.00    +0.152 A 
ATOM      8  N   UNL     1       0.171   4.511   4.192  0.00  0.00    -0.298 N 
ATOM      9  C   UNL     1       1.102   2.407   3.031  0.00  0.00    +0.282 A 
ATOM     10  O   UNL     1       1.703   2.982   2.142  0.00  0.00    -0.265 OA
ATOM     11  N   UNL     1       1.115   1.060   3.102  0.00  0.00    -0.262 N 
ATOM     12  C   UNL     1       0.457   0.420   4.086  0.00  0.00    +0.333 A 
ATOM     13  O   UNL     1       0.487  -0.794   4.132  0.00  0.00    -0.246 OA
ATOM     14  N   UNL     1      -0.234   1.099   5.020  0.00  0.00    -0.281 N 
ATOM     15  C   UNL     1      -0.940   0.369   6.076  0.00  0.00    +0.155 C 
ATOM     16  C   UNL     1       1.857   0.287   2.103  0.00  0.00    +0.157 C 
ENDROOT
BRANCH   1  21
ATOM     17  C   UNL     1      -3.876  -0.479  10.314  0.00  0.00    +0.044 C 
ATOM     18  C   UNL     1      -3.302   0.590   9.421  0.00  0.00    -0.050 A 
ATOM     19  C   UNL     1      -2.502   1.582   9.960  0.00  0.00    +0.004 A 
ATOM     20  C   UNL     1      -1.974   2.564   9.147  0.00  0.00    +0.012 A 
ATOM     21  C   UNL     1      -2.248   2.555   7.778  0.00  0.00    +0.020 A 
ATOM     22  C   UNL     1      -3.061   1.554   7.242  0.00  0.00    +0.012 A 
ATOM     23  C   UNL     1      -3.578   0.575   8.065  0.00  0.00    +0.004 A 
ENDBRANCH   1  21
BRANCH   8  24
ATOM     24  C   UNL     1       0.700   5.594   3.359  0.00  0.00    +0.163 C 
BRANCH  24  25
ATOM     25  C   UNL     1      -0.393   6.115   2.461  0.00  0.00    +0.009 A 
ATOM     26  C   UNL     1      -0.492   5.662   1.158  0.00  0.00    +0.047 A 
ATOM     27  C   UNL     1      -1.499   6.136   0.336  0.00  0.00    +0.020 A 
ATOM     28  C   UNL     1      -2.397   7.073   0.812  0.00  0.00    +0.003 A 
ATOM     29  C   UNL     1      -2.295   7.530   2.112  0.00  0.00    +0.020 A 
ATOM     30  C   UNL     1      -1.292   7.052   2.938  0.00  0.00    +0.047 A 
ATOM     31 CL   UNL     1      -1.164   7.627   4.571  0.00  0.00    -0.083 Cl
ATOM     32 CL   UNL     1       0.640   4.492   0.557  0.00  0.00    -0.083 Cl
ENDBRANCH  24  25
ENDBRANCH   8  24
TORSDOF 3
