REMARK  Name = ZINC36813346
REMARK  4 active torsions:
REMARK  status: ('A' for Active; 'I' for Inactive)
REMARK    1  A    between atoms: C_1  and  C_2
REMARK    2  A    between atoms: C_5  and  S_7
REMARK    3  A    between atoms: S_7  and  C_8
REMARK    4  A    between atoms: C_17  and  N_18
REMARK                            x       y       z     vdW  Elec       q    Type
REMARK                         _______ _______ _______ _____ _____    ______ ____
ROOT
ATOM      1  C   UNL     1       0.075  -4.723   1.726  0.00  0.00    +0.046 A 
ATOM      2  C   UNL     1      -1.128  -5.397   1.416  0.00  0.00    +0.017 A 
ATOM      3  C   UNL     1      -2.377  -4.823   1.693  0.00  0.00    +0.026 A 
ATOM      4  C   UNL     1      -3.516  -5.504   1.380  0.00  0.00    +0.019 A 
ATOM      5  C   UNL     1      -3.454  -6.764   0.788  0.00  0.00    +0.017 A 
ATOM      6  C   UNL     1      -2.258  -7.349   0.507  0.00  0.00    +0.029 A 
ATOM      7  C   UNL     1      -1.062  -6.678   0.815  0.00  0.00    +0.072 A 
ATOM      8  N   UNL     1       0.126  -7.232   0.547  0.00  0.00    -0.253 NA
ATOM      9  C   UNL     1       1.253  -6.619   0.827  0.00  0.00    +0.135 A 
ATOM     10  C   UNL     1       1.275  -5.356   1.415  0.00  0.00    +0.057 A 
ATOM     11 BR   UNL     1      -5.200  -4.728   1.753  0.00  0.00    -0.050 Br
ENDROOT
BRANCH  10  12
ATOM     12  N   UNL     1       2.497  -4.730   1.696  0.00  0.00    -0.356 N 
ATOM     13  H   UNL     1       2.508  -3.851   2.107  0.00  0.00    +0.142 HD
ATOM     14  H   UNL     1       3.331  -5.174   1.478  0.00  0.00    +0.142 HD
ENDBRANCH  10  12
BRANCH   1  15
ATOM     15  S   UNL     1       0.057  -3.128   2.474  0.00  0.00    -0.060 S 
BRANCH  15  20
ATOM     16  C   UNL     1      -0.018   1.503   0.010  0.00  0.00    +0.066 C 
ATOM     17  C   UNL     1       0.002  -0.004   0.002  0.00  0.00    +0.047 A 
ATOM     18  C   UNL     1       0.006  -0.705  -1.158  0.00  0.00    +0.070 A 
ATOM     19  S   UNL     1       0.032  -2.379  -0.535  0.00  0.00    -0.069 S 
ATOM     20  C   UNL     1       0.035  -2.016   1.108  0.00  0.00    +0.140 A 
ATOM     21  N   UNL     1       0.023  -0.700   1.124  0.00  0.00    -0.238 NA
ENDBRANCH  15  20
ENDBRANCH   1  15
TORSDOF 3
