REMARK  Name = ZINC38737979
REMARK  10 active torsions:
REMARK  status: ('A' for Active; 'I' for Inactive)
REMARK    1  A    between atoms: C_1  and  C_2
REMARK    2  A    between atoms: C_2  and  C_3
REMARK    3  A    between atoms: C_2  and  C_4
REMARK    4  A    between atoms: C_7  and  O_34
REMARK    5  A    between atoms: C_8  and  C_10
REMARK    6  A    between atoms: C_10  and  N_11
REMARK    7  A    between atoms: C_16  and  C_18
REMARK    8  A    between atoms: C_23  and  C_26
REMARK    9  A    between atoms: C_23  and  O_33
REMARK   10  A    between atoms: O_34  and  C_35
REMARK                            x       y       z     vdW  Elec       q    Type
REMARK                         _______ _______ _______ _____ _____    ______ ____
ROOT
ATOM      1  N   UNL     1      -3.600  -3.911  -1.946  0.00  0.00    +0.390 N 
ATOM      2  C   UNL     1      -2.244  -4.439  -1.757  0.00  0.00    -0.077 C 
ATOM      3  C   UNL     1      -2.302  -5.715  -0.914  0.00  0.00    -0.019 C 
ATOM      4  C   UNL     1      -3.162  -6.758  -1.634  0.00  0.00    -0.003 C 
ATOM      5  C   UNL     1      -4.552  -6.168  -1.892  0.00  0.00    -0.006 C 
ATOM      6  C   UNL     1      -4.411  -4.876  -2.699  0.00  0.00    +0.020 C 
ATOM      7  H   UNL     1      -4.024  -3.748  -1.045  0.00  0.00    -0.080 HD
ENDROOT
BRANCH   6   8
ATOM      8  C   UNL     1      -5.776  -4.292  -2.955  0.00  0.00    +0.202 C 
ATOM      9  O   UNL     1      -6.245  -3.484  -2.183  0.00  0.00    -0.277 OA
ATOM     10  N   UNL     1      -6.476  -4.669  -4.044  0.00  0.00    -0.303 N 
ATOM     11  C   UNL     1      -5.976  -5.733  -4.925  0.00  0.00    +0.111 C 
ATOM     12  C   UNL     1      -7.067  -6.796  -5.082  0.00  0.00    +0.058 C 
ATOM     13  C   UNL     1      -8.356  -6.131  -5.571  0.00  0.00    +0.094 C 
ATOM     14  C   UNL     1      -8.826  -5.106  -4.536  0.00  0.00    +0.058 C 
ATOM     15  C   UNL     1      -7.758  -4.028  -4.368  0.00  0.00    +0.111 C 
BRANCH  13  16
ATOM     16  C   UNL     1      -9.422  -7.179  -5.760  0.00  0.00    -0.016 A 
ATOM     17  C   UNL     1      -9.423  -8.314  -4.970  0.00  0.00    +0.008 A 
ATOM     18  C   UNL     1     -10.400  -9.275  -5.143  0.00  0.00    +0.020 A 
ATOM     19  C   UNL     1     -11.378  -9.102  -6.107  0.00  0.00    +0.041 A 
ATOM     20  C   UNL     1     -11.377  -7.966  -6.896  0.00  0.00    +0.020 A 
ATOM     21  C   UNL     1     -10.402  -7.002  -6.718  0.00  0.00    +0.008 A 
ATOM     22 CL   UNL     1     -12.606 -10.310  -6.325  0.00  0.00    -0.084 Cl
ENDBRANCH  13  16
BRANCH  13  23
ATOM     23  O   UNL     1      -8.110  -5.472  -6.815  0.00  0.00    -0.384 OA
ATOM     24  H   UNL     1      -8.885  -5.027  -7.184  0.00  0.00    +0.211 HD
ENDBRANCH  13  23
ENDBRANCH   6   8
BRANCH   1  25
ATOM     25  C   UNL     1      -3.532  -2.646  -2.689  0.00  0.00    -0.038 C 
BRANCH  25  30
ATOM     26  C   UNL     1      -0.863  -0.307  -1.399  0.00  0.00    -0.044 A 
ATOM     27  C   UNL     1      -1.505   0.286  -0.328  0.00  0.00    +0.007 A 
ATOM     28  C   UNL     1      -2.804  -0.067  -0.018  0.00  0.00    +0.046 A 
ATOM     29  C   UNL     1      -3.465  -1.018  -0.783  0.00  0.00    +0.121 A 
ATOM     30  C   UNL     1      -2.818  -1.612  -1.857  0.00  0.00    -0.022 A 
ATOM     31  C   UNL     1      -1.521  -1.252  -2.166  0.00  0.00    +0.009 A 
BRANCH  26  33
ATOM     32  C   UNL     1       0.615   1.577  -2.044  0.00  0.00    +0.012 C 
ATOM     33  C   UNL     1       0.554   0.079  -1.735  0.00  0.00    +0.013 C 
ATOM     34  C   UNL     1       1.464  -0.233  -0.545  0.00  0.00    +0.012 C 
ENDBRANCH  26  33
BRANCH  29  35
ATOM     35  O   UNL     1      -4.742  -1.368  -0.479  0.00  0.00    -0.495 OA
ATOM     36  C   UNL     1      -5.345  -0.716   0.640  0.00  0.00    +0.277 C 
ENDBRANCH  29  35
ENDBRANCH  25  30
ENDBRANCH   1  25
TORSDOF 7
