REMARK  Name = ZINC05206089
REMARK  5 active torsions:
REMARK  status: ('A' for Active; 'I' for Inactive)
REMARK    1  A    between atoms: C_1  and  C_2
REMARK    2  A    between atoms: C_5  and  N_9
REMARK    3  A    between atoms: C_6  and  C_8
REMARK    4  A    between atoms: C_19  and  C_25
REMARK    5  A    between atoms: C_25  and  C_27
REMARK                            x       y       z     vdW  Elec       q    Type
REMARK                         _______ _______ _______ _____ _____    ______ ____
ROOT
ATOM      1  N   UNL     1       1.083   2.223   0.160  0.00  0.00    -0.210 N 
ATOM      2  C   UNL     1       0.684   3.483   0.531  0.00  0.00    +0.228 C 
ATOM      3  O   UNL     1       1.321   4.512   0.459  0.00  0.00    -0.275 OA
ATOM      4  C   UNL     1      -0.659   3.314   1.025  0.00  0.00    +0.073 C 
ATOM      5  C   UNL     1      -1.880   4.102   1.287  0.00  0.00    -0.055 C 
ATOM      6  C   UNL     1      -1.760   4.951   2.567  0.00  0.00    -0.016 C 
ATOM      7  C   UNL     1      -2.736   4.318   3.581  0.00  0.00    -0.020 C 
ATOM      8  C   UNL     1      -2.880   2.867   3.063  0.00  0.00    -0.077 C 
ATOM      9  C   UNL     1      -2.405   1.759   0.931  0.00  0.00    +0.017 C 
ATOM     10  C   UNL     1      -1.204   2.170   0.077  0.00  0.00    +0.080 C 
ATOM     11  C   UNL     1       0.046   1.335   0.104  0.00  0.00    +0.229 C 
ATOM     12  O   UNL     1       0.118   0.125   0.077  0.00  0.00    -0.275 OA
ATOM     13  N   UNL     1      -2.855   3.031   1.591  0.00  0.00    +0.389 N 
ATOM     14  H   UNL     1      -3.788   3.289   1.248  0.00  0.00    -0.080 HD
ENDROOT
BRANCH   1  19
ATOM     15  C   UNL     1       6.463   0.850  -1.016  0.00  0.00    +0.044 C 
ATOM     16  C   UNL     1       5.035   1.214  -0.704  0.00  0.00    -0.050 A 
ATOM     17  C   UNL     1       4.201   1.663  -1.712  0.00  0.00    +0.005 A 
ATOM     18  C   UNL     1       2.890   1.992  -1.430  0.00  0.00    +0.024 A 
ATOM     19  C   UNL     1       2.412   1.883  -0.131  0.00  0.00    +0.047 A 
ATOM     20  C   UNL     1       3.252   1.432   0.879  0.00  0.00    -0.028 A 
ATOM     21  C   UNL     1       4.560   1.099   0.589  0.00  0.00    +0.008 A 
ATOM     22  C   UNL     1       2.735   1.307   2.289  0.00  0.00    +0.046 C 
ENDBRANCH   1  19
BRANCH   9  23
ATOM     23  C   UNL     1      -1.985   0.768   1.985  0.00  0.00    +0.151 C 
ATOM     24  O   UNL     1      -0.908   0.883   2.531  0.00  0.00    -0.294 OA
BRANCH  23  25
ATOM     25  C   UNL     1      -2.880  -0.340   2.352  0.00  0.00    +0.016 A 
ATOM     26  C   UNL     1      -4.125  -0.474   1.728  0.00  0.00    +0.013 A 
ATOM     27  C   UNL     1      -4.956  -1.518   2.072  0.00  0.00    +0.020 A 
ATOM     28  C   UNL     1      -4.566  -2.427   3.042  0.00  0.00    +0.041 A 
ATOM     29  C   UNL     1      -3.337  -2.299   3.668  0.00  0.00    +0.020 A 
ATOM     30  C   UNL     1      -2.493  -1.263   3.330  0.00  0.00    +0.013 A 
ATOM     31 CL   UNL     1      -5.623  -3.735   3.475  0.00  0.00    -0.084 Cl
ENDBRANCH  23  25
ENDBRANCH   9  23
TORSDOF 3
