REMARK  Name = ZINC37444283
REMARK  6 active torsions:
REMARK  status: ('A' for Active; 'I' for Inactive)
REMARK    1  A    between atoms: C_1  and  C_2
REMARK    2  A    between atoms: C_6  and  C_9
REMARK    3  A    between atoms: C_7  and  N_8
REMARK    4  A    between atoms: N_17  and  C_18
REMARK    5  A    between atoms: C_18  and  C_19
REMARK    6  A    between atoms: C_18  and  C_20
REMARK                            x       y       z     vdW  Elec       q    Type
REMARK                         _______ _______ _______ _____ _____    ______ ____
ROOT
ATOM      1  C   UNL     1      -0.342  -3.146   3.082  0.00  0.00    +0.144 A 
ATOM      2  N   UNL     1      -0.456  -2.975   4.377  0.00  0.00    -0.227 NA
ATOM      3  C   UNL     1      -0.492  -4.181   4.995  0.00  0.00    +0.091 A 
ATOM      4  C   UNL     1      -0.602  -4.573   6.333  0.00  0.00    +0.030 A 
ATOM      5  C   UNL     1      -0.611  -5.900   6.657  0.00  0.00    +0.004 A 
ATOM      6  C   UNL     1      -0.512  -6.870   5.670  0.00  0.00    +0.022 A 
ATOM      7  C   UNL     1      -0.403  -6.508   4.342  0.00  0.00    +0.067 A 
ATOM      8  C   UNL     1      -0.393  -5.164   3.994  0.00  0.00    +0.088 A 
ATOM      9  N   UNL     1      -0.305  -4.484   2.794  0.00  0.00    -0.320 N 
ATOM     10 CL   UNL     1      -0.278  -7.728   3.114  0.00  0.00    -0.081 Cl
ENDROOT
BRANCH   1  16
ATOM     11  C   UNL     1       1.619   1.184   1.521  0.00  0.00    +0.045 C 
ATOM     12  C   UNL     1       0.670   0.029   1.327  0.00  0.00    -0.029 A 
ATOM     13  C   UNL     1      -0.141  -0.018   0.210  0.00  0.00    +0.005 A 
ATOM     14  C   UNL     1      -1.016  -1.075   0.024  0.00  0.00    +0.001 A 
ATOM     15  C   UNL     1      -1.086  -2.093   0.952  0.00  0.00    +0.013 A 
ATOM     16  C   UNL     1      -0.272  -2.060   2.085  0.00  0.00    +0.038 A 
ATOM     17  C   UNL     1       0.617  -0.990   2.268  0.00  0.00    +0.038 A 
BRANCH  17  18
ATOM     18  N   UNL     1       1.439  -0.949   3.391  0.00  0.00    -0.357 N 
ATOM     19  H   UNL     1       1.990  -0.168   3.561  0.00  0.00    +0.142 HD
ATOM     20  H   UNL     1       1.460  -1.700   4.005  0.00  0.00    +0.142 HD
ENDBRANCH  17  18
ENDBRANCH   1  16
BRANCH   9  21
ATOM     21  C   UNL     1      -0.189  -5.083   1.462  0.00  0.00    +0.083 C 
ATOM     22  C   UNL     1       1.069  -5.951   1.401  0.00  0.00    +0.030 C 
ATOM     23  C   UNL     1      -1.420  -5.949   1.184  0.00  0.00    +0.030 C 
ENDBRANCH   9  21
TORSDOF 3
