REMARK  Name = ZINC45473742
REMARK  19 active torsions:
REMARK  status: ('A' for Active; 'I' for Inactive)
REMARK    1  A    between atoms: C_1  and  C_2
REMARK    2  A    between atoms: C_2  and  C_3
REMARK    3  A    between atoms: C_3  and  C_4
REMARK    4  A    between atoms: C_4  and  O_5
REMARK    5  A    between atoms: O_5  and  C_6
REMARK    6  A    between atoms: C_6  and  C_7
REMARK    7  A    between atoms: C_7  and  O_8
REMARK    8  A    between atoms: O_8  and  C_9
REMARK    9  A    between atoms: C_9  and  C_10
REMARK   10  A    between atoms: C_10  and  C_11
REMARK   11  A    between atoms: C_11  and  C_12
REMARK   12  A    between atoms: C_12  and  C_13
REMARK   13  A    between atoms: C_12  and  C_14
REMARK   14  A    between atoms: C_12  and  N_18
REMARK   15  A    between atoms: C_14  and  O_16
REMARK   16  A    between atoms: O_16  and  C_17
REMARK   17  A    between atoms: N_18  and  C_19
REMARK   18  A    between atoms: C_19  and  C_20
REMARK   19  A    between atoms: C_20  and  C_21
REMARK                            x       y       z     vdW  Elec       q    Type
REMARK                         _______ _______ _______ _____ _____    ______ ____
ROOT
ATOM      1  C   UNL     1       1.056  -3.613   9.778  0.00  0.00    +0.028 C 
ATOM      2  C   UNL     1       0.869  -2.098   9.676  0.00  0.00    +0.001 C 
ENDROOT
BRANCH   1   3
ATOM      3  N   UNL     1       1.696  -3.942  11.059  0.00  0.00    +0.390 N 
ATOM      4  H   UNL     1       1.819  -4.941  11.127  0.00  0.00    -0.084 HD
ATOM      5  H   UNL     1       2.595  -3.488  11.113  0.00  0.00    -0.084 HD
BRANCH   3   6
ATOM      6  C   UNL     1       0.846  -3.478  12.164  0.00  0.00    -0.081 C 
BRANCH   6   7
ATOM      7  C   UNL     1       1.512  -3.820  13.498  0.00  0.00    -0.022 C 
ATOM      8  C   UNL     1       0.627  -3.336  14.649  0.00  0.00    +0.002 C 
ENDBRANCH   6   7
ENDBRANCH   3   6
ENDBRANCH   1   3
BRANCH   1   9
ATOM      9  C   UNL     1      -0.287  -4.292   9.699  0.00  0.00    +0.295 C 
ATOM     10  O   UNL     1      -1.208  -3.744   9.142  0.00  0.00    -0.252 OA
BRANCH   9  11
ATOM     11  O   UNL     1      -0.459  -5.505  10.246  0.00  0.00    -0.469 OA
ATOM     12  C   UNL     1      -1.758  -6.090  10.133  0.00  0.00    +0.280 C 
ENDBRANCH   9  11
ENDBRANCH   1   9
BRANCH   1  13
ATOM     13  C   UNL     1       1.942  -4.097   8.628  0.00  0.00    +0.001 C 
BRANCH  13  14
ATOM     14  C   UNL     1       1.276  -3.755   7.294  0.00  0.00    +0.027 C 
BRANCH  14  15
ATOM     15  C   UNL     1       2.160  -4.238   6.143  0.00  0.00    +0.160 C 
BRANCH  15  16
ATOM     16  O   UNL     1       1.538  -3.919   4.897  0.00  0.00    -0.377 OA
BRANCH  16  17
ATOM     17  C   UNL     1       2.287  -4.330   3.751  0.00  0.00    +0.188 C 
BRANCH  17  18
ATOM     18  C   UNL     1       1.531  -3.938   2.480  0.00  0.00    +0.188 C 
BRANCH  18  19
ATOM     19  O   UNL     1       1.454  -2.514   2.391  0.00  0.00    -0.377 OA
BRANCH  19  20
ATOM     20  C   UNL     1       0.763  -2.041   1.233  0.00  0.00    +0.160 C 
BRANCH  20  21
ATOM     21  C   UNL     1       0.742  -0.511   1.242  0.00  0.00    +0.028 C 
BRANCH  21  23
ATOM     22  C   UNL     1      -0.019   1.526   0.010  0.00  0.00    +0.004 C 
ATOM     23  C   UNL     1       0.002  -0.004   0.002  0.00  0.00    -0.001 C 
ENDBRANCH  21  23
ENDBRANCH  20  21
ENDBRANCH  19  20
ENDBRANCH  18  19
ENDBRANCH  17  18
ENDBRANCH  16  17
ENDBRANCH  15  16
ENDBRANCH  14  15
ENDBRANCH  13  14
ENDBRANCH   1  13
TORSDOF 15
