REMARK  Name = ZINC38688375
REMARK  6 active torsions:
REMARK  status: ('A' for Active; 'I' for Inactive)
REMARK    1  A    between atoms: C_9  and  C_12
REMARK    2  A    between atoms: C_12  and  O_14
REMARK    3  A    between atoms: O_14  and  C_15
REMARK    4  A    between atoms: C_22  and  N_33
REMARK    5  A    between atoms: C_23  and  C_31
REMARK    6  A    between atoms: C_24  and  C_26
REMARK                            x       y       z     vdW  Elec       q    Type
REMARK                         _______ _______ _______ _____ _____    ______ ____
ROOT
ATOM      1  C   UNL     1       6.287  -4.553  -0.117  0.00  0.00    +0.135 A 
ATOM      2  C   UNL     1       7.287  -3.853  -0.778  0.00  0.00    +0.047 A 
ATOM      3  C   UNL     1       8.450  -4.497  -1.150  0.00  0.00    +0.012 A 
ATOM      4  C   UNL     1       8.625  -5.839  -0.866  0.00  0.00    +0.008 A 
ATOM      5  C   UNL     1       7.631  -6.543  -0.205  0.00  0.00    +0.138 A 
ATOM      6  C   UNL     1       6.462  -5.895   0.175  0.00  0.00    +0.093 A 
ATOM      7  O   UNL     1       7.784  -7.859   0.083  0.00  0.00    -0.441 OA
ATOM      8  C   UNL     1       8.695  -8.589  -0.582  0.00  0.00    +0.199 C 
ATOM      9  C   UNL     1       9.725  -8.015  -1.249  0.00  0.00    +0.098 C 
ATOM     10  C   UNL     1       9.902  -6.523  -1.279  0.00  0.00    +0.105 C 
ENDROOT
BRANCH  10  11
ATOM     11  C   UNL     1      11.007  -6.132  -0.332  0.00  0.00    +0.002 A 
ATOM     12  C   UNL     1      12.175  -5.498  -0.599  0.00  0.00    +0.012 A 
ATOM     13  C   UNL     1      13.049  -5.239   0.440  0.00  0.00    +0.008 A 
ATOM     14  C   UNL     1      12.713  -5.626   1.694  0.00  0.00    +0.045 A 
ATOM     15  S   UNL     1      11.114  -6.377   1.433  0.00  0.00    -0.101 S 
ENDBRANCH  10  11
BRANCH   8  16
ATOM     16  N   UNL     1       8.580  -9.957  -0.585  0.00  0.00    -0.328 N 
ATOM     17  H   UNL     1       7.848 -10.383  -0.111  0.00  0.00    +0.145 HD
ATOM     18  H   UNL     1       9.230 -10.497  -1.060  0.00  0.00    +0.145 HD
ENDBRANCH   8  16
BRANCH   9  19
ATOM     19  C   UNL     1      10.664  -8.847  -1.940  0.00  0.00    +0.101 C 
ATOM     20  N   UNL     1      11.409  -9.507  -2.487  0.00  0.00    -0.191 NA
ENDBRANCH   9  19
BRANCH   1  21
ATOM     21  O   UNL     1       5.142  -3.920   0.250  0.00  0.00    -0.423 OA
BRANCH  21  22
ATOM     22  C   UNL     1       4.222  -3.681  -0.699  0.00  0.00    +0.357 C 
ATOM     23  O   UNL     1       4.463  -3.944  -1.853  0.00  0.00    -0.246 OA
BRANCH  22  32
ATOM     24  C   UNL     1      -1.905  -2.052  -1.010  0.00  0.00    +0.004 A 
ATOM     25  C   UNL     1      -1.273  -1.730  -2.196  0.00  0.00    +0.004 A 
ATOM     26  C   UNL     1       0.073  -1.995  -2.359  0.00  0.00    +0.049 A 
ATOM     27  C   UNL     1       0.795  -2.583  -1.331  0.00  0.00    +0.163 A 
ATOM     28  C   UNL     1       0.160  -2.904  -0.137  0.00  0.00    +0.162 A 
ATOM     29  C   UNL     1      -1.192  -2.638   0.019  0.00  0.00    +0.049 A 
ATOM     30  O   UNL     1       0.851  -3.475   0.888  0.00  0.00    -0.484 OA
ATOM     31  C   UNL     1       2.114  -4.066   0.562  0.00  0.00    +0.285 C 
ATOM     32  C   UNL     1       2.890  -3.084  -0.325  0.00  0.00    +0.319 C 
ATOM     33  O   UNL     1       2.120  -2.841  -1.506  0.00  0.00    -0.470 OA
ENDBRANCH  22  32
ENDBRANCH  21  22
ENDBRANCH   1  21
TORSDOF 6
