REMARK  Name = ZINC09047138
REMARK  4 active torsions:
REMARK  status: ('A' for Active; 'I' for Inactive)
REMARK    1  A    between atoms: C_1  and  C_2
REMARK    2  A    between atoms: C_7  and  C_8
REMARK    3  A    between atoms: C_24  and  C_29
REMARK    4  A    between atoms: C_26  and  C_28
REMARK                            x       y       z     vdW  Elec       q    Type
REMARK                         _______ _______ _______ _____ _____    ______ ____
ROOT
ATOM      1  C   UNL     1       0.243   0.049   2.492  0.00  0.00    +0.031 C 
ATOM      2  C   UNL     1       1.617  -0.209   3.107  0.00  0.00    +0.045 C 
ATOM      3  C   UNL     1       1.724   0.403   4.473  0.00  0.00    -0.019 A 
ATOM      4  C   UNL     1       0.592   0.694   5.242  0.00  0.00    +0.040 A 
ATOM      5  C   UNL     1       0.748   1.259   6.513  0.00  0.00    +0.124 A 
ATOM      6  N   UNL     1       1.944   1.523   6.994  0.00  0.00    -0.235 NA
ATOM      7  C   UNL     1       3.049   1.268   6.303  0.00  0.00    +0.159 A 
ATOM      8  C   UNL     1       2.969   0.697   5.016  0.00  0.00    +0.089 A 
ATOM      9  C   UNL     1       4.352   0.546   4.535  0.00  0.00    +0.284 A 
ATOM     10  O   UNL     1       4.699   0.089   3.463  0.00  0.00    -0.265 OA
ATOM     11  N   UNL     1       5.160   1.012   5.509  0.00  0.00    -0.182 N 
ATOM     12  N   UNL     1       4.384   1.453   6.585  0.00  0.00    -0.270 N 
ATOM     13  H   UNL     1       4.733   1.831   7.407  0.00  0.00    +0.189 HD
ATOM     14  C   UNL     1       6.546   1.049   5.452  0.00  0.00    +0.253 A 
ATOM     15  N   UNL     1       7.160   0.603   4.367  0.00  0.00    -0.216 NA
ATOM     16  C   UNL     1       8.480   0.624   4.280  0.00  0.00    +0.044 A 
ATOM     17  C   UNL     1       9.220   1.120   5.343  0.00  0.00    +0.046 A 
ATOM     18  C   UNL     1       8.544   1.578   6.463  0.00  0.00    +0.044 A 
ATOM     19  N   UNL     1       7.223   1.533   6.483  0.00  0.00    -0.216 NA
ATOM     20  C   UNL     1       9.307   2.125   7.643  0.00  0.00    +0.066 C 
ATOM     21  C   UNL     1       9.171   0.115   3.042  0.00  0.00    +0.066 C 
ATOM     22  C   UNL     1      -0.751   0.411   4.712  0.00  0.00    +0.165 C 
ATOM     23  O   UNL     1      -1.745   0.840   5.258  0.00  0.00    -0.292 OA
ATOM     24  C   UNL     1      -0.847  -0.434   3.458  0.00  0.00    +0.088 C 
ENDROOT
BRANCH   1  31
ATOM     25  C   UNL     1      -0.470   1.460   0.074  0.00  0.00    +0.044 C 
ATOM     26  C   UNL     1      -0.214  -0.025   0.033  0.00  0.00    -0.047 A 
ATOM     27  C   UNL     1      -0.315  -0.710  -1.164  0.00  0.00    +0.003 A 
ATOM     28  C   UNL     1      -0.080  -2.072  -1.202  0.00  0.00    +0.000 A 
ATOM     29  C   UNL     1       0.256  -2.748  -0.044  0.00  0.00    +0.000 A 
ATOM     30  C   UNL     1       0.358  -2.062   1.152  0.00  0.00    +0.004 A 
ATOM     31  C   UNL     1       0.127  -0.700   1.189  0.00  0.00    -0.041 A 
ENDBRANCH   1  31
TORSDOF 1
