REMARK  Name = ZINC05135305
REMARK  7 active torsions:
REMARK  status: ('A' for Active; 'I' for Inactive)
REMARK    1  A    between atoms: C_1  and  C_2
REMARK    2  A    between atoms: C_10  and  C_21
REMARK    3  A    between atoms: C_16  and  N_20
REMARK    4  A    between atoms: C_17  and  C_18
REMARK    5  A    between atoms: C_25  and  C_30
REMARK    6  A    between atoms: C_25  and  C_31
REMARK    7  A    between atoms: C_27  and  C_29
REMARK                            x       y       z     vdW  Elec       q    Type
REMARK                         _______ _______ _______ _____ _____    ______ ____
ROOT
ATOM      1  C   UNL     1      -0.018   1.503   0.010  0.00  0.00    +0.044 C 
ATOM      2  C   UNL     1       0.002  -0.004   0.002  0.00  0.00    -0.050 A 
ATOM      3  C   UNL     1       0.005  -0.665  -1.218  0.00  0.00    +0.009 A 
ATOM      4  C   UNL     1       0.025  -2.038  -1.271  0.00  0.00    -0.022 A 
ATOM      5  C   UNL     1       0.043  -2.715  -0.052  0.00  0.00    +0.045 A 
ATOM      6  C   UNL     1       0.037  -2.058   1.171  0.00  0.00    -0.001 A 
ATOM      7  C   UNL     1       0.023  -0.681   1.220  0.00  0.00    +0.010 A 
ATOM      8  C   UNL     1       0.057  -3.143   2.196  0.00  0.00    +0.145 C 
ATOM      9  C   UNL     1       1.281  -3.061   3.063  0.00  0.00    +0.061 A 
ATOM     10  C   UNL     1       2.613  -3.278   2.741  0.00  0.00    +0.068 A 
ATOM     11  N   UNL     1       3.331  -3.091   3.823  0.00  0.00    -0.176 NA
ATOM     12  N   UNL     1       2.467  -2.746   4.874  0.00  0.00    -0.246 N 
ATOM     13  H   UNL     1       2.729  -2.552   5.787  0.00  0.00    +0.192 HD
ATOM     14  C   UNL     1       1.215  -2.733   4.391  0.00  0.00    +0.223 A 
ATOM     15  O   UNL     1       0.044  -2.459   5.018  0.00  0.00    -0.423 OA
ATOM     16  C   UNL     1      -1.102  -2.771   4.380  0.00  0.00    +0.201 C 
ATOM     17  C   UNL     1      -1.167  -3.098   3.069  0.00  0.00    +0.110 C 
ATOM     18  C   UNL     1       3.143  -3.662   1.383  0.00  0.00    +0.068 C 
ATOM     19  C   UNL     1       0.074  -4.434   1.395  0.00  0.00    +0.241 C 
ATOM     20  O   UNL     1       0.090  -5.559   1.847  0.00  0.00    -0.273 OA
ATOM     21  N   UNL     1       0.067  -4.100   0.095  0.00  0.00    -0.264 N 
ATOM     22  C   UNL     1       0.085  -4.971  -1.093  0.00  0.00    +0.037 C 
ATOM     23  C   UNL     1       0.738  -4.202  -2.248  0.00  0.00    +0.033 C 
ATOM     24  C   UNL     1       0.028  -2.872  -2.518  0.00  0.00    +0.020 C 
ATOM     25  C   UNL     1       0.762  -2.121  -3.631  0.00  0.00    +0.012 C 
ATOM     26  C   UNL     1       0.895  -6.235  -0.793  0.00  0.00    +0.032 C 
ATOM     27  C   UNL     1      -1.347  -5.354  -1.473  0.00  0.00    +0.032 C 
ENDROOT
BRANCH  16  28
ATOM     28  N   UNL     1      -2.270  -2.753   5.102  0.00  0.00    -0.328 N 
ATOM     29  H   UNL     1      -2.255  -2.521   6.044  0.00  0.00    +0.145 HD
ATOM     30  H   UNL     1      -3.110  -2.973   4.670  0.00  0.00    +0.145 HD
ENDBRANCH  16  28
BRANCH  17  31
ATOM     31  C   UNL     1      -2.441  -3.412   2.494  0.00  0.00    +0.102 C 
ATOM     32  N   UNL     1      -3.451  -3.660   2.038  0.00  0.00    -0.191 NA
ENDBRANCH  17  31
TORSDOF 2
