REMARK  Name = ZINC16070193
REMARK  6 active torsions:
REMARK  status: ('A' for Active; 'I' for Inactive)
REMARK    1  A    between atoms: C_1  and  C_2
REMARK    2  A    between atoms: C_2  and  C_4
REMARK    3  A    between atoms: C_2  and  S_14
REMARK    4  A    between atoms: N_6  and  C_7
REMARK    5  A    between atoms: S_14  and  C_15
REMARK    6  A    between atoms: N_20  and  C_21
REMARK                            x       y       z     vdW  Elec       q    Type
REMARK                         _______ _______ _______ _____ _____    ______ ____
ROOT
ATOM      1  S   UNL     1      -1.702  -0.608   0.010  0.00  0.00    -0.084 S 
ENDROOT
BRANCH   1   2
ATOM      2  C   UNL     1      -2.337  -0.073   1.564  0.00  0.00    +0.161 A 
ATOM      3  N   UNL     1      -1.743   0.623   2.515  0.00  0.00    -0.133 NA
ATOM      4  N   UNL     1      -2.432   0.937   3.664  0.00  0.00    -0.125 NA
ATOM      5  C   UNL     1      -3.681   0.541   3.810  0.00  0.00    +0.183 A 
ATOM      6  S   UNL     1      -3.959  -0.321   2.270  0.00  0.00    -0.025 S 
ATOM      7  N   UNL     1      -4.551   0.745   4.874  0.00  0.00    -0.319 N 
ATOM      8  H   UNL     1      -5.452   0.389   4.839  0.00  0.00    +0.148 HD
BRANCH   7   9
ATOM      9  C   UNL     1      -4.106   1.497   6.050  0.00  0.00    +0.072 C 
ATOM     10  C   UNL     1      -3.381   0.556   7.014  0.00  0.00    +0.022 C 
ATOM     11  C   UNL     1      -2.916   1.342   8.242  0.00  0.00    +0.002 C 
ATOM     12  C   UNL     1      -4.129   1.955   8.944  0.00  0.00    +0.000 C 
ATOM     13  C   UNL     1      -4.855   2.896   7.980  0.00  0.00    +0.002 C 
ATOM     14  C   UNL     1      -5.319   2.110   6.752  0.00  0.00    +0.022 C 
ENDBRANCH   7   9
ENDBRANCH   1   2
BRANCH   1  16
ATOM     15  C   UNL     1      -0.011   1.543  -0.006  0.00  0.00    +0.029 C 
ATOM     16  C   UNL     1       0.003   0.013  -0.005  0.00  0.00    +0.136 C 
BRANCH  16  17
ATOM     17  C   UNL     1       0.708  -0.484  -1.240  0.00  0.00    +0.230 C 
ATOM     18  O   UNL     1       0.067  -0.780  -2.227  0.00  0.00    -0.274 OA
ATOM     19  N   UNL     1       2.051  -0.601  -1.250  0.00  0.00    -0.283 N 
ATOM     20  H   UNL     1       2.568  -0.303  -0.485  0.00  0.00    +0.155 HD
BRANCH  19  21
ATOM     21  C   UNL     1       2.698  -1.150  -2.362  0.00  0.00    +0.052 A 
ATOM     22  C   UNL     1       2.199  -0.926  -3.639  0.00  0.00    +0.025 A 
ATOM     23  C   UNL     1       2.841  -1.469  -4.735  0.00  0.00    +0.002 A 
ATOM     24  C   UNL     1       3.978  -2.236  -4.563  0.00  0.00    +0.002 A 
ATOM     25  C   UNL     1       4.478  -2.462  -3.293  0.00  0.00    +0.022 A 
ATOM     26  C   UNL     1       3.845  -1.916  -2.193  0.00  0.00    +0.062 A 
ATOM     27 CL   UNL     1       4.477  -2.194  -0.600  0.00  0.00    -0.082 Cl
ENDBRANCH  19  21
ENDBRANCH  16  17
ENDBRANCH   1  16
TORSDOF 5
