REMARK  Name = ZINC12809642
REMARK  9 active torsions:
REMARK  status: ('A' for Active; 'I' for Inactive)
REMARK    1  A    between atoms: C_1  and  C_2
REMARK    2  A    between atoms: C_3  and  C_29
REMARK    3  A    between atoms: C_7  and  S_12
REMARK    4  A    between atoms: C_9  and  C_11
REMARK    5  A    between atoms: S_12  and  C_13
REMARK    6  A    between atoms: C_13  and  C_14
REMARK    7  A    between atoms: N_16  and  C_17
REMARK    8  A    between atoms: C_17  and  C_18
REMARK    9  A    between atoms: C_18  and  C_19
REMARK                            x       y       z     vdW  Elec       q    Type
REMARK                         _______ _______ _______ _____ _____    ______ ____
ROOT
ATOM      1  C   UNL     1       6.045  -1.895  -2.696  0.00  0.00    +0.223 C 
ATOM      2  O   UNL     1       5.494  -1.606  -3.738  0.00  0.00    -0.275 OA
ATOM      3  N   UNL     1       5.488  -1.543  -1.520  0.00  0.00    -0.314 N 
ATOM      4  H   UNL     1       5.929  -1.774  -0.687  0.00  0.00    +0.149 HD
ENDROOT
BRANCH   1   5
ATOM      5  C   UNL     1       7.350  -2.646  -2.717  0.00  0.00    +0.171 C 
BRANCH   5   6
ATOM      6  S   UNL     1       7.833  -2.970  -4.432  0.00  0.00    -0.096 S 
BRANCH   6  13
ATOM      7  C   UNL     1       8.610  -3.494  -7.191  0.00  0.00    +0.045 C 
ATOM      8  C   UNL     1       9.850  -4.193  -6.694  0.00  0.00    -0.029 A 
ATOM      9  C   UNL     1      10.725  -4.720  -7.563  0.00  0.00    -0.008 A 
ATOM     10  S   UNL     1      11.986  -5.416  -6.513  0.00  0.00    -0.074 S 
ATOM     11  C   UNL     1      11.303  -4.980  -4.935  0.00  0.00    +0.113 A 
ATOM     12  C   UNL     1      10.110  -4.303  -5.270  0.00  0.00    +0.043 A 
ATOM     13  C   UNL     1       9.346  -3.833  -4.166  0.00  0.00    +0.109 A 
ATOM     14  N   UNL     1       9.788  -4.048  -2.937  0.00  0.00    -0.225 NA
ATOM     15  C   UNL     1      10.915  -4.694  -2.698  0.00  0.00    +0.128 A 
ATOM     16  N   UNL     1      11.666  -5.154  -3.680  0.00  0.00    -0.225 NA
ATOM     17  C   UNL     1      11.354  -4.907  -1.272  0.00  0.00    +0.088 C 
ATOM     18  C   UNL     1      10.658  -4.724  -9.069  0.00  0.00    +0.052 C 
ENDBRANCH   6  13
ENDBRANCH   5   6
ENDBRANCH   1   5
BRANCH   3  19
ATOM     19  C   UNL     1       4.219  -0.812  -1.500  0.00  0.00    +0.109 C 
BRANCH  19  20
ATOM     20  C   UNL     1       3.811  -0.538  -0.051  0.00  0.00    +0.054 C 
BRANCH  20  21
ATOM     21  C   UNL     1       2.505   0.213  -0.030  0.00  0.00    -0.042 A 
ATOM     22  C   UNL     1       1.310  -0.480   0.008  0.00  0.00    +0.007 A 
ATOM     23  C   UNL     1       0.110   0.205   0.026  0.00  0.00    +0.050 A 
ATOM     24  C   UNL     1       0.102   1.592   0.007  0.00  0.00    +0.162 A 
ATOM     25  C   UNL     1       1.304   2.290  -0.028  0.00  0.00    +0.162 A 
ATOM     26  C   UNL     1       2.504   1.595  -0.048  0.00  0.00    +0.053 A 
ATOM     27  O   UNL     1       1.319   3.651  -0.040  0.00  0.00    -0.485 OA
ATOM     28  C   UNL     1       0.097   4.305  -0.397  0.00  0.00    +0.270 C 
ATOM     29  C   UNL     1      -1.049   3.639   0.377  0.00  0.00    +0.270 C 
ATOM     30  O   UNL     1      -1.087   2.254   0.016  0.00  0.00    -0.485 OA
ENDBRANCH  20  21
ENDBRANCH  19  20
ENDBRANCH   3  19
TORSDOF 6
