REMARK  Name = ZINC13262910
REMARK  5 active torsions:
REMARK  status: ('A' for Active; 'I' for Inactive)
REMARK    1  A    between atoms: C_2  and  C_22
REMARK    2  A    between atoms: C_4  and  N_9
REMARK    3  A    between atoms: C_6  and  C_7
REMARK    4  A    between atoms: N_9  and  S_10
REMARK    5  A    between atoms: S_10  and  C_13
REMARK                            x       y       z     vdW  Elec       q    Type
REMARK                         _______ _______ _______ _____ _____    ______ ____
ROOT
ATOM      1  N   UNL     1      -1.841   2.495   1.632  0.00  0.00    -0.216 N 
ATOM      2  H   UNL     1      -2.515   1.969   2.090  0.00  0.00    +0.174 HD
ENDROOT
BRANCH   1   6
ATOM      3  C   UNL     1       0.608   5.101   3.806  0.00  0.00    +0.030 A 
ATOM      4  C   UNL     1      -0.768   5.089   4.026  0.00  0.00    +0.066 A 
ATOM      5  C   UNL     1      -1.583   4.218   3.299  0.00  0.00    +0.039 A 
ATOM      6  C   UNL     1      -1.023   3.366   2.358  0.00  0.00    +0.050 A 
ATOM      7  C   UNL     1       0.347   3.372   2.140  0.00  0.00    +0.039 A 
ATOM      8  C   UNL     1       1.166   4.243   2.860  0.00  0.00    +0.066 A 
BRANCH   8   9
ATOM      9  C   UNL     1       2.625   4.253   2.623  0.00  0.00    +0.387 C 
ATOM     10  O   UNL     1       3.111   3.505   1.798  0.00  0.00    -0.241 OA
ATOM     11  O   UNL     1       3.416   5.090   3.322  0.00  0.00    -0.241 OA
ENDBRANCH   8   9
BRANCH   4  12
ATOM     12  C   UNL     1      -1.365   5.997   5.028  0.00  0.00    +0.387 C 
ATOM     13  O   UNL     1      -2.564   5.986   5.219  0.00  0.00    -0.241 OA
ATOM     14  O   UNL     1      -0.579   6.836   5.729  0.00  0.00    -0.241 OA
ENDBRANCH   4  12
ENDBRANCH   1   6
BRANCH   1  15
ATOM     15  S   UNL     1      -1.658   2.362  -0.008  0.00  0.00    +0.075 S 
ATOM     16  O   UNL     1      -2.664   1.464  -0.457  0.00  0.00    -0.150 OA
ATOM     17  O   UNL     1      -0.276   2.138  -0.246  0.00  0.00    -0.150 OA
BRANCH  15  18
ATOM     18  C   UNL     1      -2.041   3.935  -0.704  0.00  0.00    +0.145 A 
ATOM     19  C   UNL     1      -3.359   4.287  -0.935  0.00  0.00    +0.070 A 
ATOM     20  C   UNL     1      -3.659   5.519  -1.487  0.00  0.00    +0.037 A 
ATOM     21  C   UNL     1      -2.642   6.399  -1.809  0.00  0.00    +0.021 A 
ATOM     22  C   UNL     1      -1.324   6.047  -1.578  0.00  0.00    +0.037 A 
ATOM     23  C   UNL     1      -1.024   4.815  -1.026  0.00  0.00    +0.070 A 
ATOM     24 CL   UNL     1       0.630   4.373  -0.737  0.00  0.00    -0.081 Cl
ATOM     25 BR   UNL     1      -3.052   8.084  -2.563  0.00  0.00    -0.050 Br
ATOM     26 CL   UNL     1      -4.636   3.182  -0.532  0.00  0.00    -0.081 Cl
ENDBRANCH  15  18
ENDBRANCH   1  15
TORSDOF 5
