REMARK  Name = ZINC12494940
REMARK  8 active torsions:
REMARK  status: ('A' for Active; 'I' for Inactive)
REMARK    1  A    between atoms: C_3  and  N_28
REMARK    2  A    between atoms: C_6  and  C_7
REMARK    3  A    between atoms: N_9  and  C_10
REMARK    4  A    between atoms: C_10  and  N_12
REMARK    5  A    between atoms: N_12  and  C_13
REMARK    6  A    between atoms: C_16  and  S_19
REMARK    7  A    between atoms: S_19  and  N_22
REMARK    8  A    between atoms: N_22  and  C_23
REMARK                            x       y       z     vdW  Elec       q    Type
REMARK                         _______ _______ _______ _____ _____    ______ ____
ROOT
ATOM      1  N   UNL     1      -2.378  -4.151   0.003  0.00  0.00    -0.297 N 
ATOM      2  H   UNL     1      -1.652  -4.390  -0.594  0.00  0.00    +0.154 HD
ENDROOT
BRANCH   1   3
ATOM      3  C   UNL     1      -3.526  -4.948   0.061  0.00  0.00    +0.033 A 
ATOM      4  C   UNL     1      -4.784  -4.358   0.046  0.00  0.00    +0.025 A 
ATOM      5  C   UNL     1      -5.916  -5.148   0.103  0.00  0.00    +0.031 A 
ATOM      6  C   UNL     1      -5.798  -6.524   0.176  0.00  0.00    +0.111 A 
ATOM      7  C   UNL     1      -4.548  -7.114   0.192  0.00  0.00    +0.031 A 
ATOM      8  C   UNL     1      -3.412  -6.330   0.129  0.00  0.00    +0.025 A 
BRANCH   6   9
ATOM      9  S   UNL     1      -7.245  -7.527   0.249  0.00  0.00    +0.093 S 
ATOM     10  O   UNL     1      -6.860  -8.750   0.862  0.00  0.00    -0.148 OA
ATOM     11  O   UNL     1      -8.282  -6.707   0.770  0.00  0.00    -0.148 OA
BRANCH   9  12
ATOM     12  N   UNL     1      -7.667  -7.891  -1.310  0.00  0.00    -0.070 NA
BRANCH  12  13
ATOM     13  C   UNL     1      -8.781  -8.678  -1.561  0.00  0.00    +0.201 A 
ATOM     14  N   UNL     1      -9.616  -9.213  -0.696  0.00  0.00    -0.231 NA
ATOM     15  C   UNL     1     -10.640  -9.944  -1.099  0.00  0.00    +0.120 A 
ATOM     16  C   UNL     1     -10.787 -10.115  -2.435  0.00  0.00    +0.068 A 
ATOM     17  S   UNL     1      -9.398  -9.174  -3.046  0.00  0.00    -0.058 S 
ENDBRANCH  12  13
ENDBRANCH   9  12
ENDBRANCH   6   9
ENDBRANCH   1   3
BRANCH   1  18
ATOM     18  C   UNL     1      -2.281  -3.052   0.777  0.00  0.00    +0.141 C 
ATOM     19  S   UNL     1      -3.604  -2.570   1.750  0.00  0.00    -0.018 S 
BRANCH  18  22
ATOM     20  C   UNL     1      -1.044  -1.234   1.559  0.00  0.00    +0.250 C 
ATOM     21  O   UNL     1      -1.983  -0.891   2.250  0.00  0.00    -0.270 OA
ATOM     22  N   UNL     1      -1.141  -2.333   0.785  0.00  0.00    -0.264 N 
ATOM     23  H   UNL     1      -0.391  -2.606   0.234  0.00  0.00    +0.157 HD
BRANCH  20  29
ATOM     24  C   UNL     1       0.310   0.695   2.369  0.00  0.00    +0.015 A 
ATOM     25  C   UNL     1       1.480   1.426   2.372  0.00  0.00    +0.033 A 
ATOM     26  C   UNL     1       2.548   1.034   1.585  0.00  0.00    +0.126 A 
ATOM     27  C   UNL     1       2.451  -0.094   0.789  0.00  0.00    +0.033 A 
ATOM     28  C   UNL     1       1.287  -0.835   0.776  0.00  0.00    +0.015 A 
ATOM     29  C   UNL     1       0.206  -0.445   1.568  0.00  0.00    +0.037 A 
BRANCH  26  30
ATOM     30  N   UNL     1       3.799   1.824   1.594  0.00  0.00    +0.056 N 
ATOM     31  O   UNL     1       3.886   2.810   2.288  0.00  0.00    -0.126 OA
ATOM     32  O   UNL     1       4.734   1.483   0.907  0.00  0.00    -0.126 OA
ENDBRANCH  26  30
ENDBRANCH  20  29
ENDBRANCH  18  22
ENDBRANCH   1  18
TORSDOF 8
