REMARK  Name = ZINC20000842
REMARK  8 active torsions:
REMARK  status: ('A' for Active; 'I' for Inactive)
REMARK    1  A    between atoms: C_1  and  C_2
REMARK    2  A    between atoms: C_2  and  C_3
REMARK    3  A    between atoms: C_3  and  C_4
REMARK    4  A    between atoms: C_13  and  C_21
REMARK    5  A    between atoms: C_14  and  N_20
REMARK    6  A    between atoms: C_15  and  C_16
REMARK    7  A    between atoms: C_15  and  C_18
REMARK    8  A    between atoms: C_23  and  C_25
REMARK                            x       y       z     vdW  Elec       q    Type
REMARK                         _______ _______ _______ _____ _____    ______ ____
ROOT
ATOM      1  C   UNL     1      -0.042   0.980   2.505  0.00  0.00    +0.038 C 
ATOM      2  C   UNL     1      -0.769   1.464   3.760  0.00  0.00    +0.043 C 
ATOM      3  C   UNL     1      -0.506   2.928   4.033  0.00  0.00    +0.116 C 
ATOM      4  N   UNL     1      -1.664   3.752   3.669  0.00  0.00    -0.297 N 
ATOM      5  C   UNL     1      -2.967   3.372   4.243  0.00  0.00    +0.135 C 
ATOM      6  C   UNL     1      -3.216   1.934   3.867  0.00  0.00    -0.003 C 
ATOM      7  C   UNL     1      -2.219   1.103   3.636  0.00  0.00    -0.026 C 
ATOM      8  C   UNL     1      -2.527  -0.276   3.170  0.00  0.00    +0.074 C 
ATOM      9  C   UNL     1      -1.545  -1.022   2.606  0.00  0.00    +0.054 C 
ATOM     10  C   UNL     1      -0.134  -0.545   2.438  0.00  0.00    +0.184 C 
ATOM     11  C   UNL     1      -1.541   4.811   2.845  0.00  0.00    +0.213 C 
ATOM     12  O   UNL     1      -0.477   5.043   2.310  0.00  0.00    -0.276 OA
ATOM     13  C   UNL     1      -2.725   5.708   2.588  0.00  0.00    +0.109 C 
ENDROOT
BRANCH   9  14
ATOM     14  N   UNL     1      -1.859  -2.277   2.165  0.00  0.00    -0.358 N 
ATOM     15  H   UNL     1      -1.086  -2.907   1.703  0.00  0.00    +0.142 HD
ATOM     16  H   UNL     1      -2.886  -2.657   2.274  0.00  0.00    +0.142 HD
ENDBRANCH   9  14
BRANCH  10  17
ATOM     17  C   UNL     1       0.375  -1.000   1.133  0.00  0.00    +0.091 C 
ATOM     18  N   UNL     1       0.767  -1.351   0.127  0.00  0.00    -0.195 NA
ENDBRANCH  10  17
BRANCH  10  19
ATOM     19  C   UNL     1       0.699  -1.124   3.504  0.00  0.00    +0.091 C 
ATOM     20  N   UNL     1       1.341  -1.571   4.328  0.00  0.00    -0.195 NA
ENDBRANCH  10  19
BRANCH   8  21
ATOM     21  C   UNL     1      -3.848  -0.810   3.317  0.00  0.00    +0.101 C 
ATOM     22  N   UNL     1      -4.895  -1.234   3.433  0.00  0.00    -0.191 NA
ENDBRANCH   8  21
BRANCH   1  23
ATOM     23  C   UNL     1      -0.700   1.588   1.264  0.00  0.00    +0.007 C 
BRANCH  23  25
ATOM     24  C   UNL     1      -0.352   2.210  -1.130  0.00  0.00    +0.004 C 
ATOM     25  C   UNL     1       0.281   1.540   0.091  0.00  0.00    -0.003 C 
ENDBRANCH  23  25
ENDBRANCH   1  23
TORSDOF 6
