REMARK  Name = ZINC64057913
REMARK  8 active torsions:
REMARK  status: ('A' for Active; 'I' for Inactive)
REMARK    1  A    between atoms: C_1  and  O_2
REMARK    2  A    between atoms: O_2  and  C_3
REMARK    3  A    between atoms: C_8  and  C_13
REMARK    4  A    between atoms: C_13  and  N_14
REMARK    5  A    between atoms: C_15  and  C_17
REMARK    6  A    between atoms: N_20  and  C_23
REMARK    7  A    between atoms: C_23  and  C_24
REMARK    8  A    between atoms: C_23  and  C_30
REMARK                            x       y       z     vdW  Elec       q    Type
REMARK                         _______ _______ _______ _____ _____    ______ ____
ROOT
ATOM      1  C   UNL     1       2.174  -4.896  -8.684  0.00  0.00    +0.233 C 
ATOM      2  C   UNL     1       3.296  -5.944  -8.843  0.00  0.00    +0.166 C 
ATOM      3  N   UNL     1       2.840  -6.719 -10.013  0.00  0.00    -0.223 N 
ATOM      4  N   UNL     1       1.630  -6.165 -10.435  0.00  0.00    -0.082 NA
ATOM      5  N   UNL     1       1.238  -5.206  -9.772  0.00  0.00    -0.157 NA
ENDROOT
BRANCH   1   7
ATOM      6  N   UNL     1       2.051  -4.499  -6.245  0.00  0.00    -0.311 N 
ATOM      7  C   UNL     1       1.498  -5.046  -7.345  0.00  0.00    +0.241 C 
ATOM      8  O   UNL     1       0.455  -5.660  -7.259  0.00  0.00    -0.273 OA
ATOM      9  H   UNL     1       2.885  -4.009  -6.315  0.00  0.00    +0.149 HD
BRANCH   6  10
ATOM     10  C   UNL     1       1.393  -4.645  -4.944  0.00  0.00    +0.133 C 
BRANCH  10  16
ATOM     11  C   UNL     1       0.606  -0.607  -1.056  0.00  0.00    +0.121 A 
ATOM     12  C   UNL     1       1.172   0.195  -2.062  0.00  0.00    +0.047 A 
ATOM     13  C   UNL     1       1.790  -0.325  -3.144  0.00  0.00    +0.029 A 
ATOM     14  C   UNL     1       1.886  -1.780  -3.299  0.00  0.00    +0.043 A 
ATOM     15  N   UNL     1       2.419  -2.528  -4.232  0.00  0.00    -0.376 N 
ATOM     16  C   UNL     1       2.222  -3.937  -3.871  0.00  0.00    +0.120 C 
ATOM     17  C   UNL     1       1.476  -3.927  -2.555  0.00  0.00    +0.009 C 
ATOM     18  C   UNL     1       1.290  -2.626  -2.239  0.00  0.00    -0.001 A 
ATOM     19  C   UNL     1       0.646  -1.960  -1.102  0.00  0.00    +0.055 A 
ATOM     20  H   UNL     1       2.869  -2.205  -5.029  0.00  0.00    +0.160 HD
BRANCH  11  22
ATOM     21  C   UNL     1      -0.017   1.425   0.010  0.00  0.00    +0.277 C 
ATOM     22  O   UNL     1       0.002  -0.004   0.002  0.00  0.00    -0.495 OA
ENDBRANCH  11  22
ENDBRANCH  10  16
ENDBRANCH   6  10
ENDBRANCH   1   7
BRANCH   3  23
ATOM     23  C   UNL     1       3.530  -7.859 -10.622  0.00  0.00    +0.154 C 
BRANCH  23  24
ATOM     24  C   UNL     1       2.639  -9.073 -10.568  0.00  0.00    -0.021 A 
ATOM     25  C   UNL     1       1.285  -8.948 -10.819  0.00  0.00    +0.006 A 
ATOM     26  C   UNL     1       0.467 -10.061 -10.770  0.00  0.00    +0.000 A 
ATOM     27  C   UNL     1       1.003 -11.300 -10.470  0.00  0.00    +0.000 A 
ATOM     28  C   UNL     1       2.357 -11.425 -10.220  0.00  0.00    +0.000 A 
ATOM     29  C   UNL     1       3.175 -10.312 -10.273  0.00  0.00    +0.006 A 
ENDBRANCH  23  24
BRANCH  23  30
ATOM     30  C   UNL     1       3.858  -7.539 -12.057  0.00  0.00    -0.021 A 
ATOM     31  C   UNL     1       2.946  -6.855 -12.839  0.00  0.00    +0.006 A 
ATOM     32  C   UNL     1       3.247  -6.562 -14.156  0.00  0.00    +0.000 A 
ATOM     33  C   UNL     1       4.460  -6.954 -14.691  0.00  0.00    +0.000 A 
ATOM     34  C   UNL     1       5.372  -7.637 -13.909  0.00  0.00    +0.000 A 
ATOM     35  C   UNL     1       5.073  -7.926 -12.591  0.00  0.00    +0.006 A 
ENDBRANCH  23  30
ENDBRANCH   3  23
TORSDOF 7
