REMARK  Name = ZINC03841110
REMARK  11 active torsions:
REMARK  status: ('A' for Active; 'I' for Inactive)
REMARK    1  A    between atoms: C_1  and  C_2
REMARK    2  A    between atoms: C_5  and  O_37
REMARK    3  A    between atoms: C_7  and  C_34
REMARK    4  A    between atoms: C_7  and  C_35
REMARK    5  A    between atoms: C_17  and  C_19
REMARK    6  A    between atoms: C_24  and  C_26
REMARK    7  A    between atoms: C_26  and  C_27
REMARK    8  A    between atoms: N_29  and  C_30
REMARK    9  A    between atoms: N_29  and  C_31
REMARK   10  A    between atoms: C_31  and  C_32
REMARK   11  A    between atoms: C_35  and  O_36
REMARK                            x       y       z     vdW  Elec       q    Type
REMARK                         _______ _______ _______ _____ _____    ______ ____
ROOT
ATOM      1  C   UNL     1      -0.345   1.003  -0.084  0.00  0.00    +0.012 C 
ATOM      2  C   UNL     1      -0.965   1.321   1.278  0.00  0.00    -0.019 C 
ATOM      3  C   UNL     1      -0.546   2.728   1.718  0.00  0.00    +0.010 C 
ATOM      4  C   UNL     1      -1.091   3.769   0.730  0.00  0.00    +0.032 C 
ATOM      5  C   UNL     1      -2.620   3.687   0.712  0.00  0.00    +0.123 C 
ATOM      6  C   UNL     1      -3.031   2.296   0.232  0.00  0.00    +0.021 C 
ATOM      7  C   UNL     1      -2.490   1.224   1.183  0.00  0.00    +0.011 C 
ATOM      8  C   UNL     1      -2.876  -0.135   0.587  0.00  0.00    +0.049 C 
ATOM      9  C   UNL     1      -2.088  -1.202   1.261  0.00  0.00    +0.015 A 
ATOM     10  C   UNL     1      -0.991  -1.053   2.047  0.00  0.00    +0.058 A 
ATOM     11  N   UNL     1      -0.465  -2.175   2.532  0.00  0.00    -0.229 NA
ATOM     12  C   UNL     1      -0.975  -3.361   2.270  0.00  0.00    +0.165 A 
ATOM     13  S   UNL     1      -2.325  -2.959   1.251  0.00  0.00    -0.057 S 
ATOM     14  N   UNL     1      -0.546  -4.610   2.698  0.00  0.00    -0.260 N 
ATOM     15  C   UNL     1      -1.211  -5.719   2.317  0.00  0.00    +0.256 C 
ATOM     16  O   UNL     1      -2.189  -5.624   1.598  0.00  0.00    -0.269 OA
ATOM     17  C   UNL     1      -0.436   0.335   2.327  0.00  0.00    +0.054 C 
ATOM     18  C   UNL     1      -4.558   2.210   0.189  0.00  0.00    +0.016 C 
ATOM     19  H   UNL     1       0.233  -4.685   3.271  0.00  0.00    +0.157 HD
ENDROOT
BRANCH  15  20
ATOM     20  C   UNL     1      -0.758  -7.037   2.769  0.00  0.00    +0.074 A 
ATOM     21  C   UNL     1      -1.297  -8.286   2.500  0.00  0.00    +0.021 A 
ATOM     22  C   UNL     1      -0.665  -9.371   3.052  0.00  0.00    +0.008 A 
ATOM     23  C   UNL     1       0.431  -9.175   3.832  0.00  0.00    +0.046 A 
ATOM     24  S   UNL     1       0.626  -7.453   3.814  0.00  0.00    -0.092 S 
ENDBRANCH  15  20
BRANCH   5  25
ATOM     25  O   UNL     1      -3.143   4.675  -0.178  0.00  0.00    -0.391 OA
ATOM     26  H   UNL     1      -2.920   5.583   0.067  0.00  0.00    +0.210 HD
ENDBRANCH   5  25
BRANCH  17  27
ATOM     27  C   UNL     1       1.092   0.294   2.264  0.00  0.00    +0.106 C 
BRANCH  27  28
ATOM     28  C   UNL     1       1.622  -0.516   3.419  0.00  0.00    +0.216 C 
ATOM     29  O   UNL     1       0.853  -1.013   4.214  0.00  0.00    -0.276 OA
ATOM     30  N   UNL     1       2.950  -0.689   3.567  0.00  0.00    -0.301 N 
ATOM     31  C   UNL     1       3.879  -0.089   2.607  0.00  0.00    +0.132 C 
BRANCH  30  32
ATOM     32  C   UNL     1       3.465  -1.477   4.690  0.00  0.00    +0.134 C 
BRANCH  32  33
ATOM     33  C   UNL     1       3.577  -2.923   4.279  0.00  0.00    -0.016 C 
ATOM     34  C   UNL     1       4.721  -3.551   4.399  0.00  0.00    +0.005 C 
ENDBRANCH  32  33
ENDBRANCH  30  32
ENDBRANCH  27  28
ENDBRANCH  17  27
BRANCH   6  35
ATOM     35  C   UNL     1      -2.470   2.058  -1.171  0.00  0.00    +0.165 C 
BRANCH  35  36
ATOM     36  O   UNL     1      -3.096   2.954  -2.092  0.00  0.00    -0.394 OA
ATOM     37  H   UNL     1      -2.789   2.859  -3.004  0.00  0.00    +0.209 HD
ENDBRANCH  35  36
ENDBRANCH   6  35
TORSDOF 8
