REMARK  Name = ZINC08241112
REMARK  7 active torsions:
REMARK  status: ('A' for Active; 'I' for Inactive)
REMARK    1  A    between atoms: C_1  and  C_2
REMARK    2  A    between atoms: C_2  and  C_4
REMARK    3  A    between atoms: C_2  and  N_42
REMARK    4  A    between atoms: C_12  and  C_13
REMARK    5  A    between atoms: C_12  and  N_42
REMARK    6  A    between atoms: N_15  and  C_16
REMARK    7  A    between atoms: C_21  and  N_22
REMARK                            x       y       z     vdW  Elec       q    Type
REMARK                         _______ _______ _______ _____ _____    ______ ____
ROOT
ATOM      1  C   UNL     1       3.655   1.272   0.753  0.00  0.00    +0.200 C 
ATOM      2  O   UNL     1       3.889   2.290   0.137  0.00  0.00    -0.278 OA
ATOM      3  N   UNL     1       4.651   0.629   1.395  0.00  0.00    -0.285 N 
ATOM      4  H   UNL     1       4.454  -0.148   1.941  0.00  0.00    +0.155 HD
ENDROOT
BRANCH   3   5
ATOM      5  C   UNL     1       5.970   1.082   1.272  0.00  0.00    +0.060 A 
ATOM      6  C   UNL     1       6.232   2.441   1.170  0.00  0.00    +0.045 A 
ATOM      7  C   UNL     1       7.536   2.886   1.054  0.00  0.00    +0.043 A 
ATOM      8  C   UNL     1       8.581   1.979   1.029  0.00  0.00    +0.022 A 
ATOM      9  C   UNL     1       8.328   0.624   1.126  0.00  0.00    +0.031 A 
ATOM     10  C   UNL     1       7.023   0.169   1.248  0.00  0.00    +0.088 A 
ATOM     11 CL   UNL     1       7.862   4.587   0.931  0.00  0.00    -0.083 Cl
BRANCH  10  12
ATOM     12  N   UNL     1       6.765  -1.206   1.345  0.00  0.00    -0.218 N 
ATOM     13  C   UNL     1       7.675  -2.195   1.429  0.00  0.00    +0.225 A 
ATOM     14  N   UNL     1       7.032  -3.332   1.508  0.00  0.00    -0.222 NA
ATOM     15  C   UNL     1       5.718  -3.112   1.468  0.00  0.00    +0.245 A 
ATOM     16  N   UNL     1       5.505  -1.826   1.369  0.00  0.00    -0.153 NA
ENDBRANCH  10  12
ENDBRANCH   3   5
BRANCH   1  17
ATOM     17  C   UNL     1       2.252   0.725   0.801  0.00  0.00    +0.016 C 
BRANCH  17  18
ATOM     18  N   UNL     1       1.362   1.609   0.025  0.00  0.00    +0.389 N 
ATOM     19  H   UNL     1       1.383   2.552   0.430  0.00  0.00    -0.084 HD
ATOM     20  H   UNL     1       1.688   1.648  -0.948  0.00  0.00    -0.084 HD
BRANCH  18  22
ATOM     21  C   UNL     1      -0.725   1.601   1.316  0.00  0.00    -0.009 C 
ATOM     22  C   UNL     1      -0.021   1.098   0.054  0.00  0.00    -0.041 C 
BRANCH  22  23
ATOM     23  C   UNL     1      -0.758   1.593  -1.163  0.00  0.00    -0.026 A 
ATOM     24  C   UNL     1      -0.287   2.692  -1.857  0.00  0.00    +0.007 A 
ATOM     25  C   UNL     1      -0.961   3.147  -2.973  0.00  0.00    +0.039 A 
ATOM     26  C   UNL     1      -2.111   2.503  -3.399  0.00  0.00    +0.126 A 
ATOM     27  C   UNL     1      -2.583   1.402  -2.706  0.00  0.00    +0.076 A 
ATOM     28  C   UNL     1      -1.903   0.943  -1.591  0.00  0.00    +0.128 A 
ATOM     29  F   UNL     1      -2.360  -0.135  -0.917  0.00  0.00    -0.205 F 
ATOM     30  F   UNL     1      -2.770   2.948  -4.491  0.00  0.00    -0.205 F 
ENDBRANCH  22  23
ENDBRANCH  18  22
ENDBRANCH  17  18
ENDBRANCH   1  17
TORSDOF 6
