REMARK  Name = ZINC15672492
REMARK  10 active torsions:
REMARK  status: ('A' for Active; 'I' for Inactive)
REMARK    1  A    between atoms: C_1  and  C_2
REMARK    2  A    between atoms: C_4  and  C_30
REMARK    3  A    between atoms: C_6  and  C_8
REMARK    4  A    between atoms: C_17  and  C_19
REMARK    5  A    between atoms: C_19  and  O_20
REMARK    6  A    between atoms: O_20  and  C_21
REMARK    7  A    between atoms: N_23  and  C_24
REMARK    8  A    between atoms: C_33  and  N_36
REMARK    9  A    between atoms: N_36  and  C_37
REMARK   10  A    between atoms: N_36  and  C_38
REMARK                            x       y       z     vdW  Elec       q    Type
REMARK                         _______ _______ _______ _____ _____    ______ ____
ROOT
ATOM      1  C   UNL     1      -0.832   0.398   1.701  0.00  0.00    +0.024 C 
ATOM      2  C   UNL     1      -2.009   1.085   2.398  0.00  0.00    -0.068 C 
ATOM      3  N   UNL     1      -2.750   1.894   1.421  0.00  0.00    +0.384 N 
ATOM      4  C   UNL     1      -3.311   1.052   0.356  0.00  0.00    -0.078 C 
ATOM      5  C   UNL     1      -2.166   0.362  -0.403  0.00  0.00    -0.015 C 
ATOM      6  C   UNL     1      -0.832   0.794   0.219  0.00  0.00    -0.007 C 
ATOM      7  C   UNL     1      -0.720   2.321   0.120  0.00  0.00    -0.008 C 
ATOM      8  C   UNL     1      -1.901   2.954   0.862  0.00  0.00    -0.030 C 
ATOM      9  H   UNL     1      -3.587   2.374   1.949  0.00  0.00    -0.081 HD
ENDROOT
BRANCH   1  15
ATOM     10  C   UNL     1       1.570   2.096   5.607  0.00  0.00    +0.088 C 
ATOM     11  C   UNL     1       1.601   1.636   4.172  0.00  0.00    +0.127 A 
ATOM     12  N   UNL     1       2.749   1.632   3.527  0.00  0.00    -0.232 NA
ATOM     13  C   UNL     1       2.813   1.231   2.258  0.00  0.00    +0.075 A 
ATOM     14  C   UNL     1       1.641   0.814   1.621  0.00  0.00    +0.052 A 
ATOM     15  C   UNL     1       0.460   0.837   2.341  0.00  0.00    +0.047 A 
ATOM     16  N   UNL     1       0.478   1.253   3.598  0.00  0.00    -0.237 NA
BRANCH  13  17
ATOM     17  C   UNL     1       4.106   1.228   1.534  0.00  0.00    +0.001 A 
ATOM     18  C   UNL     1       4.135   1.008   0.157  0.00  0.00    +0.012 A 
ATOM     19  C   UNL     1       5.337   1.011  -0.516  0.00  0.00    +0.024 A 
ATOM     20  C   UNL     1       6.523   1.222   0.180  0.00  0.00    +0.029 A 
ATOM     21  C   UNL     1       6.498   1.437   1.554  0.00  0.00    +0.024 A 
ATOM     22  C   UNL     1       5.297   1.440   2.229  0.00  0.00    +0.012 A 
BRANCH  20  23
ATOM     23  N   UNL     1       7.739   1.219  -0.502  0.00  0.00    -0.336 N 
ATOM     24  C   UNL     1       8.975   1.570   0.203  0.00  0.00    +0.129 C 
ATOM     25  C   UNL     1       7.782   0.866  -1.923  0.00  0.00    +0.129 C 
ENDBRANCH  20  23
ENDBRANCH  13  17
ENDBRANCH   1  15
BRANCH   8  26
ATOM     26  C   UNL     1      -1.377   3.840   1.994  0.00  0.00    +0.219 C 
BRANCH  26  27
ATOM     27  O   UNL     1      -2.489   4.534   2.619  0.00  0.00    -0.452 OA
BRANCH  27  28
ATOM     28  C   UNL     1      -2.193   5.389   3.617  0.00  0.00    +0.404 C 
ATOM     29  O   UNL     1      -1.033   5.612   3.901  0.00  0.00    -0.226 OA
ATOM     30  N   UNL     1      -3.184   5.997   4.299  0.00  0.00    -0.251 N 
ATOM     31  H   UNL     1      -4.232   5.723   4.108  0.00  0.00    +0.158 HD
BRANCH  30  32
ATOM     32  C   UNL     1      -2.879   6.976   5.251  0.00  0.00    +0.036 A 
ATOM     33  C   UNL     1      -1.779   7.804   5.069  0.00  0.00    +0.023 A 
ATOM     34  C   UNL     1      -1.484   8.774   6.008  0.00  0.00    +0.002 A 
ATOM     35  C   UNL     1      -2.275   8.912   7.134  0.00  0.00    +0.000 A 
ATOM     36  C   UNL     1      -3.368   8.085   7.320  0.00  0.00    +0.002 A 
ATOM     37  C   UNL     1      -3.671   7.117   6.383  0.00  0.00    +0.023 A 
ENDBRANCH  30  32
ENDBRANCH  27  28
ENDBRANCH  26  27
ENDBRANCH   8  26
TORSDOF 7
