REMARK  Name = ZINC50650545
REMARK  4 active torsions:
REMARK  status: ('A' for Active; 'I' for Inactive)
REMARK    1  A    between atoms: C_1  and  C_2
REMARK    2  A    between atoms: C_5  and  N_9
REMARK    3  A    between atoms: N_9  and  S_10
REMARK    4  A    between atoms: S_10  and  C_13
REMARK                            x       y       z     vdW  Elec       q    Type
REMARK                         _______ _______ _______ _____ _____    ______ ____
ROOT
ATOM      1  S   UNL     1       0.200  -5.004   1.403  0.00  0.00    +0.093 S 
ATOM      2  O   UNL     1       1.446  -4.625   1.972  0.00  0.00    -0.148 OA
ATOM      3  O   UNL     1      -1.032  -4.845   2.092  0.00  0.00    -0.148 OA
ENDROOT
BRANCH   1   4
ATOM      4  C   UNL     1       0.333  -6.713   0.994  0.00  0.00    +0.126 A 
ATOM      5  C   UNL     1      -0.808  -7.498   0.883  0.00  0.00    +0.033 A 
ATOM      6  C   UNL     1      -0.660  -8.834   0.561  0.00  0.00    +0.043 A 
ATOM      7  C   UNL     1       0.619  -9.344   0.360  0.00  0.00    +0.094 A 
ATOM      8  N   UNL     1       1.682  -8.563   0.474  0.00  0.00    -0.348 N 
ATOM      9  C   UNL     1       1.570  -7.283   0.775  0.00  0.00    +0.113 A 
ATOM     10  N   UNL     1       0.782 -10.686   0.035  0.00  0.00    -0.345 N 
ATOM     11  H   UNL     1       0.007 -11.262  -0.049  0.00  0.00    +0.144 HD
ATOM     12  H   UNL     1       1.672 -11.046  -0.106  0.00  0.00    +0.144 HD
ATOM     13  H   UNL     1       2.564  -8.940   0.330  0.00  0.00    +0.167 HD
ENDBRANCH   1   4
BRANCH   1  14
ATOM     14  N   UNL     1       0.057  -4.170  -0.021  0.00  0.00    -0.096 NA
BRANCH  14  19
ATOM     15  C   UNL     1       0.564   1.480  -0.063  0.00  0.00    +0.044 C 
ATOM     16  C   UNL     1       0.429  -0.020  -0.052  0.00  0.00    -0.048 A 
ATOM     17  C   UNL     1       1.405  -0.805  -0.638  0.00  0.00    +0.020 A 
ATOM     18  C   UNL     1       1.285  -2.182  -0.630  0.00  0.00    +0.044 A 
ATOM     19  C   UNL     1       0.182  -2.777  -0.031  0.00  0.00    +0.102 A 
ATOM     20  C   UNL     1      -0.796  -1.986   0.558  0.00  0.00    +0.044 A 
ATOM     21  C   UNL     1      -0.667  -0.610   0.551  0.00  0.00    +0.020 A 
ATOM     22 BR   UNL     1      -2.300  -2.791   1.375  0.00  0.00    -0.048 Br
ATOM     23 BR   UNL     1       2.620  -3.253  -1.434  0.00  0.00    -0.048 Br
ENDBRANCH  14  19
ENDBRANCH   1  14
TORSDOF 3
