REMARK  Name = ZINC20836378
REMARK  9 active torsions:
REMARK  status: ('A' for Active; 'I' for Inactive)
REMARK    1  A    between atoms: C_1  and  C_2
REMARK    2  A    between atoms: C_2  and  C_28
REMARK    3  A    between atoms: C_4  and  N_10
REMARK    4  A    between atoms: C_6  and  C_8
REMARK    5  A    between atoms: C_6  and  C_9
REMARK    6  A    between atoms: C_11  and  C_13
REMARK    7  A    between atoms: C_13  and  S_14
REMARK    8  A    between atoms: S_14  and  C_15
REMARK    9  A    between atoms: N_20  and  N_21
REMARK                            x       y       z     vdW  Elec       q    Type
REMARK                         _______ _______ _______ _____ _____    ______ ____
ROOT
ATOM      1  C   UNL     1       3.663   2.739   0.868  0.00  0.00    +0.173 C 
ENDROOT
BRANCH   1   3
ATOM      2  N   UNL     1       6.018   3.408   1.223  0.00  0.00    -0.312 N 
ATOM      3  C   UNL     1       5.133   2.424   0.966  0.00  0.00    +0.224 C 
ATOM      4  O   UNL     1       5.521   1.285   0.813  0.00  0.00    -0.275 OA
ATOM      5  H   UNL     1       5.667   4.441   1.362  0.00  0.00    +0.149 HD
BRANCH   2   9
ATOM      6  C   UNL     1      10.211   3.255  -0.112  0.00  0.00    -0.010 C 
ATOM      7  C   UNL     1       9.753   4.071   1.103  0.00  0.00    -0.072 C 
ATOM      8  C   UNL     1       8.258   4.356   0.992  0.00  0.00    +0.009 C 
ATOM      9  C   UNL     1       7.451   3.100   1.318  0.00  0.00    +0.070 C 
ATOM     10  C   UNL     1       7.779   2.669   2.747  0.00  0.00    +0.009 C 
ATOM     11  C   UNL     1       9.270   2.365   2.881  0.00  0.00    -0.072 C 
ATOM     12  N   UNL     1      10.112   3.412   2.342  0.00  0.00    +0.386 N 
ATOM     13  C   UNL     1       9.577   1.013   2.226  0.00  0.00    -0.010 C 
ATOM     14  C   UNL     1       9.581   2.224   4.388  0.00  0.00    -0.010 C 
ATOM     15  C   UNL     1      10.491   5.427   1.047  0.00  0.00    -0.010 C 
ATOM     16  H   UNL     1      11.093   2.928   2.229  0.00  0.00    -0.084 HD
ATOM     17  H   UNL     1      10.160   4.154   3.152  0.00  0.00    -0.084 HD
ENDBRANCH   2   9
ENDBRANCH   1   3
BRANCH   1  18
ATOM     18  S   UNL     1       2.740   1.218   0.516  0.00  0.00    -0.075 S 
BRANCH  18  19
ATOM     19  C   UNL     1       1.062   1.747   0.433  0.00  0.00    +0.211 A 
ATOM     20  N   UNL     1      -0.020   0.950   0.188  0.00  0.00    -0.186 NA
ATOM     21  C   UNL     1      -1.137   1.738   0.200  0.00  0.00    +0.232 A 
ATOM     22  N   UNL     1      -0.762   2.968   0.452  0.00  0.00    -0.245 N 
ATOM     23  N   UNL     1       0.631   2.975   0.597  0.00  0.00    -0.144 NA
ATOM     24  N   UNL     1      -2.441   1.310  -0.013  0.00  0.00    -0.205 N 
ATOM     25  H   UNL     1      -2.645   0.248  -0.215  0.00  0.00    +0.177 HD
ATOM     26  H   UNL     1      -1.512   3.770   0.514  0.00  0.00    +0.192 HD
BRANCH  24  27
ATOM     27  N   UNL     1      -3.496   2.230   0.029  0.00  0.00    -0.189 NA
ATOM     28  C   UNL     1      -4.706   1.822  -0.065  0.00  0.00    +0.037 C 
ATOM     29  C   UNL     1      -5.026   0.344  -0.080  0.00  0.00    +0.052 C 
ATOM     30  C   UNL     1      -6.106   0.073   0.979  0.00  0.00    +0.006 C 
ATOM     31  C   UNL     1      -7.309   0.981   0.719  0.00  0.00    +0.001 C 
ATOM     32  C   UNL     1      -6.900   2.445   0.887  0.00  0.00    +0.006 C 
ATOM     33  C   UNL     1      -5.851   2.805  -0.170  0.00  0.00    +0.052 C 
ENDBRANCH  24  27
ENDBRANCH  18  19
ENDBRANCH   1  18
TORSDOF 5
