REMARK  Name = ZINC08925974
REMARK  6 active torsions:
REMARK  status: ('A' for Active; 'I' for Inactive)
REMARK    1  A    between atoms: C_1  and  N_2
REMARK    2  A    between atoms: N_2  and  C_3
REMARK    3  A    between atoms: C_15  and  N_71
REMARK    4  A    between atoms: N_25  and  C_26
REMARK    5  A    between atoms: C_29  and  O_32
REMARK    6  A    between atoms: O_32  and  C_33
REMARK                            x       y       z     vdW  Elec       q    Type
REMARK                         _______ _______ _______ _____ _____    ______ ____
ROOT
ATOM      1  C   UNL     1      -3.752   5.696   0.326  0.00  0.00    +0.132 C 
ATOM      2  N   UNL     1      -2.482   4.995   0.121  0.00  0.00    -0.306 N 
ATOM      3  C   UNL     1      -1.252   5.759  -0.102  0.00  0.00    +0.132 C 
ATOM      4  C   UNL     1      -2.445   3.616   0.138  0.00  0.00    +0.223 A 
ATOM      5  N   UNL     1      -1.280   2.981   0.051  0.00  0.00    -0.181 NA
ATOM      6  C   UNL     1      -1.244   1.653   0.061  0.00  0.00    +0.225 A 
ATOM      7  N   UNL     1      -2.373   0.958   0.170  0.00  0.00    -0.181 NA
ATOM      8  C   UNL     1      -3.537   1.593   0.264  0.00  0.00    +0.224 A 
ATOM      9  N   UNL     1      -3.573   2.922   0.247  0.00  0.00    -0.181 NA
ATOM     10  N   UNL     1      -4.708   0.872   0.377  0.00  0.00    -0.303 N 
ATOM     11  C   UNL     1      -5.454   1.264   1.582  0.00  0.00    +0.089 C 
ATOM     12  C   UNL     1      -6.780   0.501   1.629  0.00  0.00    -0.059 C 
ATOM     13  C   UNL     1      -5.766  -1.335   0.421  0.00  0.00    -0.059 C 
ATOM     14  C   UNL     1      -4.440  -0.573   0.374  0.00  0.00    +0.089 C 
ATOM     15  N   UNL     1      -0.034   0.993  -0.036  0.00  0.00    -0.283 N 
ATOM     16  H   UNL     1       0.000   0.028   0.052  0.00  0.00    +0.155 HD
ATOM     17  N   UNL     1      -6.495  -0.949   1.648  0.00  0.00    +0.385 N 
ATOM     18  H   UNL     1      -5.911  -1.164   2.465  0.00  0.00    -0.081 HD
ENDROOT
BRANCH  17  19
ATOM     19  C   UNL     1      -7.758  -1.711   1.746  0.00  0.00    -0.065 C 
ATOM     20  C   UNL     1      -8.637  -1.452   0.521  0.00  0.00    -0.009 C 
ATOM     21  C   UNL     1      -9.935  -2.252   0.646  0.00  0.00    -0.012 C 
ATOM     22  C   UNL     1     -10.682  -1.817   1.909  0.00  0.00    +0.007 C 
ATOM     23  C   UNL     1      -9.803  -2.075   3.135  0.00  0.00    -0.012 C 
ATOM     24  C   UNL     1      -8.505  -1.276   3.009  0.00  0.00    -0.009 C 
ATOM     25  C   UNL     1      -9.477  -3.567   3.224  0.00  0.00    +0.007 C 
ATOM     26  C   UNL     1      -8.731  -4.002   1.961  0.00  0.00    -0.012 C 
ATOM     27  C   UNL     1      -9.610  -3.744   0.735  0.00  0.00    +0.007 C 
ATOM     28  C   UNL     1      -7.433  -3.203   1.835  0.00  0.00    -0.009 C 
ENDBRANCH  17  19
BRANCH  15  29
ATOM     29  C   UNL     1       1.141   1.718  -0.268  0.00  0.00    +0.034 A 
ATOM     30  C   UNL     1       1.129   2.804  -1.134  0.00  0.00    +0.027 A 
ATOM     31  C   UNL     1       2.287   3.521  -1.358  0.00  0.00    +0.048 A 
ATOM     32  C   UNL     1       3.466   3.151  -0.727  0.00  0.00    +0.130 A 
ATOM     33  C   UNL     1       3.481   2.063   0.133  0.00  0.00    +0.048 A 
ATOM     34  C   UNL     1       2.322   1.348   0.363  0.00  0.00    +0.027 A 
BRANCH  32  35
ATOM     35  O   UNL     1       4.607   3.855  -0.953  0.00  0.00    -0.406 OA
BRANCH  35  36
ATOM     36  C   UNL     1       4.519   4.963  -1.850  0.00  0.00    +0.575 C 
ATOM     37  F   UNL     1       3.596   5.891  -1.357  0.00  0.00    -0.133 F 
ATOM     38  F   UNL     1       5.775   5.570  -1.966  0.00  0.00    -0.133 F 
ATOM     39  F   UNL     1       4.101   4.513  -3.107  0.00  0.00    -0.133 F 
ENDBRANCH  35  36
ENDBRANCH  32  35
ENDBRANCH  15  29
TORSDOF 4
