REMARK  Name = ZINC64064609
REMARK  7 active torsions:
REMARK  status: ('A' for Active; 'I' for Inactive)
REMARK    1  A    between atoms: C_1  and  C_2
REMARK    2  A    between atoms: C_2  and  C_3
REMARK    3  A    between atoms: C_2  and  C_4
REMARK    4  A    between atoms: C_6  and  C_18
REMARK    5  A    between atoms: N_10  and  C_11
REMARK    6  A    between atoms: N_20  and  N_21
REMARK    7  A    between atoms: C_22  and  C_24
REMARK                            x       y       z     vdW  Elec       q    Type
REMARK                         _______ _______ _______ _____ _____    ______ ____
ROOT
ATOM      1  C   UNL     1      -2.295   1.337   1.751  0.00  0.00    +0.259 C 
ATOM      2  O   UNL     1      -3.308   1.894   1.368  0.00  0.00    -0.269 OA
ATOM      3  N   UNL     1      -1.398   2.010   2.498  0.00  0.00    -0.230 N 
ATOM      4  H   UNL     1      -0.629   1.547   2.865  0.00  0.00    +0.173 HD
ENDROOT
BRANCH   1   6
ATOM      5  C   UNL     1      -1.643  -0.544   0.055  0.00  0.00    +0.133 C 
ATOM      6  C   UNL     1      -2.061  -0.015   1.411  0.00  0.00    +0.053 C 
ATOM      7  H   UNL     1      -1.885  -3.115   2.005  0.00  0.00    +0.169 HD
ATOM      8  C   UNL     1      -2.164  -1.078   2.231  0.00  0.00    +0.098 C 
ATOM      9  N   UNL     1      -1.869  -2.239   1.590  0.00  0.00    -0.270 N 
ATOM     10  N   UNL     1      -1.540  -2.001   0.246  0.00  0.00    -0.246 N 
BRANCH  10  11
ATOM     11  C   UNL     1      -1.185  -2.951  -0.715  0.00  0.00    +0.048 A 
ATOM     12  C   UNL     1      -0.879  -2.550  -2.010  0.00  0.00    +0.026 A 
ATOM     13  C   UNL     1      -0.529  -3.491  -2.958  0.00  0.00    +0.022 A 
ATOM     14  C   UNL     1      -0.481  -4.832  -2.619  0.00  0.00    +0.041 A 
ATOM     15  C   UNL     1      -0.785  -5.234  -1.330  0.00  0.00    +0.022 A 
ATOM     16  C   UNL     1      -1.132  -4.297  -0.377  0.00  0.00    +0.026 A 
ATOM     17 CL   UNL     1      -0.041  -6.012  -3.813  0.00  0.00    -0.084 Cl
ENDBRANCH  10  11
BRANCH   5  19
ATOM     18  C   UNL     1      -0.443   1.536  -0.633  0.00  0.00    +0.009 C 
ATOM     19  C   UNL     1      -0.290   0.040  -0.354  0.00  0.00    +0.010 C 
ATOM     20  C   UNL     1       0.718  -0.168   0.779  0.00  0.00    +0.009 C 
ENDBRANCH   5  19
ENDBRANCH   1   6
BRANCH   3  21
ATOM     21  N   UNL     1      -1.576   3.377   2.745  0.00  0.00    -0.230 N 
ATOM     22  C   UNL     1      -0.679   4.050   3.493  0.00  0.00    +0.258 C 
ATOM     23  O   UNL     1       0.286   3.469   3.953  0.00  0.00    -0.269 OA
ATOM     24  H   UNL     1      -2.345   3.840   2.378  0.00  0.00    +0.173 HD
BRANCH  22  25
ATOM     25  C   UNL     1      -0.865   5.481   3.751  0.00  0.00    +0.044 C 
ATOM     26  C   UNL     1      -0.044   6.309   4.484  0.00  0.00    +0.008 A 
ATOM     27  C   UNL     1       1.167   6.087   5.189  0.00  0.00    +0.010 A 
ATOM     28  C   UNL     1       1.773   7.104   5.837  0.00  0.00    +0.001 A 
ATOM     29  C   UNL     1       1.251   8.408   5.850  0.00  0.00    +0.002 A 
ATOM     30  C   UNL     1       0.104   8.725   5.211  0.00  0.00    +0.026 A 
ATOM     31  C   UNL     1      -0.622   7.675   4.479  0.00  0.00    +0.043 A 
ATOM     32  N   UNL     1      -1.728   7.700   3.789  0.00  0.00    -0.380 N 
ATOM     33  C   UNL     1      -1.997   6.359   3.262  0.00  0.00    +0.154 C 
ATOM     34  H   UNL     1      -2.282   8.482   3.645  0.00  0.00    +0.160 HD
ENDBRANCH  22  25
ENDBRANCH   3  21
TORSDOF 5
