REMARK  Name = ZINC08781475
REMARK  6 active torsions:
REMARK  status: ('A' for Active; 'I' for Inactive)
REMARK    1  A    between atoms: C_1  and  O_2
REMARK    2  A    between atoms: O_2  and  C_3
REMARK    3  A    between atoms: C_3  and  C_5
REMARK    4  A    between atoms: C_5  and  C_31
REMARK    5  A    between atoms: C_10  and  C_12
REMARK    6  A    between atoms: N_21  and  C_24
REMARK                            x       y       z     vdW  Elec       q    Type
REMARK                         _______ _______ _______ _____ _____    ______ ____
ROOT
ATOM      1  C   UNL     1       1.688   2.574   1.311  0.00  0.00    +0.070 C 
ATOM      2  C   UNL     1       1.347   1.618   0.149  0.00  0.00    +0.090 C 
ATOM      3  C   UNL     1       2.300   0.406   0.338  0.00  0.00    +0.078 C 
ATOM      4  C   UNL     1       3.127   0.746   1.596  0.00  0.00    -0.026 C 
ATOM      5  C   UNL     1       1.357  -0.733   0.655  0.00  0.00    +0.229 C 
ATOM      6  O   UNL     1       1.690  -1.877   0.877  0.00  0.00    -0.275 OA
ATOM      7  N   UNL     1       0.098  -0.281   0.652  0.00  0.00    -0.210 N 
ATOM      8  C   UNL     1      -0.024   1.024   0.380  0.00  0.00    +0.229 C 
ATOM      9  O   UNL     1      -1.070   1.633   0.322  0.00  0.00    -0.275 OA
ATOM     10  N   UNL     1       2.287   1.700   2.320  0.00  0.00    +0.398 N 
ATOM     11  H   UNL     1       1.554   1.205   2.840  0.00  0.00    -0.083 HD
ATOM     12  H   UNL     1       2.857   2.251   2.973  0.00  0.00    -0.083 HD
ENDROOT
BRANCH   4  13
ATOM     13  C   UNL     1       3.376  -0.497   2.411  0.00  0.00    -0.059 A 
ATOM     14  C   UNL     1       4.592  -1.149   2.322  0.00  0.00    +0.002 A 
ATOM     15  C   UNL     1       4.821  -2.289   3.070  0.00  0.00    +0.002 A 
ATOM     16  C   UNL     1       3.835  -2.778   3.907  0.00  0.00    +0.020 A 
ATOM     17  C   UNL     1       2.619  -2.125   3.996  0.00  0.00    +0.041 A 
ATOM     18  C   UNL     1       2.392  -0.981   3.252  0.00  0.00    +0.022 A 
ATOM     19 CL   UNL     1       1.380  -2.738   5.046  0.00  0.00    -0.084 Cl
ENDBRANCH   4  13
BRANCH   7  20
ATOM     20  C   UNL     1      -1.005  -1.107   0.914  0.00  0.00    +0.044 A 
ATOM     21  C   UNL     1      -1.752  -0.925   2.070  0.00  0.00    +0.025 A 
ATOM     22  C   UNL     1      -2.840  -1.736   2.323  0.00  0.00    +0.022 A 
ATOM     23  C   UNL     1      -3.181  -2.737   1.430  0.00  0.00    +0.041 A 
ATOM     24  C   UNL     1      -2.435  -2.924   0.279  0.00  0.00    +0.022 A 
ATOM     25  C   UNL     1      -1.349  -2.112   0.019  0.00  0.00    +0.025 A 
ATOM     26 CL   UNL     1      -4.545  -3.760   1.754  0.00  0.00    -0.084 Cl
ENDBRANCH   7  20
BRANCH   1  27
ATOM     27  C   UNL     1       0.439   3.240   1.827  0.00  0.00    -0.047 A 
ATOM     28  C   UNL     1      -0.240   4.146   1.033  0.00  0.00    +0.003 A 
ATOM     29  C   UNL     1      -1.390   4.752   1.504  0.00  0.00    +0.000 A 
ATOM     30  C   UNL     1      -1.854   4.462   2.773  0.00  0.00    +0.000 A 
ATOM     31  C   UNL     1      -1.172   3.561   3.569  0.00  0.00    +0.000 A 
ATOM     32  C   UNL     1      -0.026   2.950   3.096  0.00  0.00    +0.003 A 
ENDBRANCH   1  27
BRANCH   1  33
ATOM     33  C   UNL     1       2.687   3.610   0.862  0.00  0.00    +0.301 C 
ATOM     34  O   UNL     1       2.766   3.907  -0.307  0.00  0.00    -0.252 OA
BRANCH  33  36
ATOM     35  C   UNL     1       4.426   5.191   1.257  0.00  0.00    +0.280 C 
ATOM     36  O   UNL     1       3.488   4.203   1.761  0.00  0.00    -0.469 OA
ENDBRANCH  33  36
ENDBRANCH   1  33
TORSDOF 5
