REMARK  Name = ZINC58886442
REMARK  8 active torsions:
REMARK  status: ('A' for Active; 'I' for Inactive)
REMARK    1  A    between atoms: C_4  and  C_7
REMARK    2  A    between atoms: C_7  and  C_9
REMARK    3  A    between atoms: C_7  and  O_27
REMARK    4  A    between atoms: C_9  and  C_10
REMARK    5  A    between atoms: C_10  and  C_11
REMARK    6  A    between atoms: N_13  and  N_14
REMARK    7  A    between atoms: C_15  and  C_16
REMARK    8  A    between atoms: C_18  and  N_24
REMARK                            x       y       z     vdW  Elec       q    Type
REMARK                         _______ _______ _______ _____ _____    ______ ____
ROOT
ATOM      1  C   UNL     1       5.835  -2.040  -2.932  0.00  0.00    +0.232 C 
ATOM      2  O   UNL     1       5.057  -1.802  -3.832  0.00  0.00    -0.274 OA
ATOM      3  N   UNL     1       7.024  -2.614  -3.203  0.00  0.00    -0.207 N 
ATOM      4  H   UNL     1       7.646  -2.804  -2.483  0.00  0.00    +0.177 HD
ENDROOT
BRANCH   3   5
ATOM      5  N   UNL     1       7.361  -2.936  -4.524  0.00  0.00    -0.188 NA
ATOM      6  C   UNL     1       8.506  -3.488  -4.785  0.00  0.00    +0.138 C 
BRANCH   6   7
ATOM      7  C   UNL     1       8.861  -3.827  -6.175  0.00  0.00    -0.002 A 
ATOM      8  C   UNL     1      10.091  -4.428  -6.458  0.00  0.00    +0.046 A 
ATOM      9  C   UNL     1      10.419  -4.742  -7.758  0.00  0.00    +0.174 A 
ATOM     10  C   UNL     1       9.530  -4.464  -8.788  0.00  0.00    +0.222 A 
ATOM     11  C   UNL     1       8.306  -3.866  -8.512  0.00  0.00    +0.063 A 
ATOM     12  C   UNL     1       7.967  -3.554  -7.213  0.00  0.00    +0.027 A 
ATOM     13  I   UNL     1       6.971  -3.449 -10.072  0.00  0.00    -0.040 I 
ATOM     14  O   UNL     1       9.858  -4.776 -10.069  0.00  0.00    -0.284 OA
BRANCH   9  15
ATOM     15  N   UNL     1      11.722  -5.378  -8.059  0.00  0.00    +0.060 N 
ATOM     16  O   UNL     1      12.497  -5.621  -7.163  0.00  0.00    -0.126 OA
ATOM     17  O   UNL     1      12.010  -5.655  -9.200  0.00  0.00    -0.126 OA
ENDBRANCH   9  15
ENDBRANCH   6   7
ENDBRANCH   3   5
BRANCH   1  18
ATOM     18  C   UNL     1       5.471  -1.694  -1.511  0.00  0.00    +0.100 C 
BRANCH  18  19
ATOM     19  C   UNL     1       4.080  -1.059  -1.480  0.00  0.00    +0.045 C 
BRANCH  19  20
ATOM     20  C   UNL     1       3.711  -0.707  -0.038  0.00  0.00    +0.145 C 
BRANCH  20  24
ATOM     21  C   UNL     1      -0.017   1.378   0.010  0.00  0.00    +0.000 A 
ATOM     22  C   UNL     1       1.171   2.086   0.002  0.00  0.00    +0.000 A 
ATOM     23  C   UNL     1       2.377   1.411  -0.013  0.00  0.00    +0.006 A 
ATOM     24  C   UNL     1       2.396   0.029  -0.020  0.00  0.00    -0.019 A 
ATOM     25  C   UNL     1       1.208  -0.679  -0.012  0.00  0.00    +0.006 A 
ATOM     26  C   UNL     1       0.002  -0.004   0.002  0.00  0.00    +0.000 A 
ENDBRANCH  20  24
BRANCH  20  27
ATOM     27  O   UNL     1       3.596  -1.907   0.731  0.00  0.00    -0.387 OA
ATOM     28  H   UNL     1       2.922  -2.519   0.405  0.00  0.00    +0.210 HD
ENDBRANCH  20  27
ENDBRANCH  19  20
ENDBRANCH  18  19
ENDBRANCH   1  18
TORSDOF 8
