REMARK  Name = ZINC27534613
REMARK  7 active torsions:
REMARK  status: ('A' for Active; 'I' for Inactive)
REMARK    1  A    between atoms: C_1  and  O_2
REMARK    2  A    between atoms: O_2  and  C_3
REMARK    3  A    between atoms: C_5  and  O_35
REMARK    4  A    between atoms: C_8  and  N_9
REMARK    5  A    between atoms: C_10  and  C_12
REMARK    6  A    between atoms: C_15  and  N_22
REMARK    7  A    between atoms: O_35  and  C_36
REMARK                            x       y       z     vdW  Elec       q    Type
REMARK                         _______ _______ _______ _____ _____    ______ ____
ROOT
ATOM      1  C   UNL     1       1.601   0.249   8.490  0.00  0.00    +0.063 A 
ATOM      2  C   UNL     1       2.749  -0.534   8.554  0.00  0.00    +0.126 A 
ATOM      3  N   UNL     1       3.331  -0.810   9.706  0.00  0.00    -0.239 NA
ATOM      4  C   UNL     1       2.885  -0.378  10.871  0.00  0.00    +0.129 A 
ATOM      5  C   UNL     1       1.726   0.428  10.948  0.00  0.00    +0.023 A 
ATOM      6  C   UNL     1       1.056   0.767   9.747  0.00  0.00    -0.001 A 
ATOM      7  C   UNL     1      -0.088   1.566   9.792  0.00  0.00    +0.009 A 
ATOM      8  C   UNL     1      -0.545   2.017  10.997  0.00  0.00    +0.001 A 
ATOM      9  C   UNL     1       0.114   1.689  12.178  0.00  0.00    +0.001 A 
ATOM     10  C   UNL     1       1.228   0.903  12.168  0.00  0.00    +0.012 A 
ENDROOT
BRANCH   4  11
ATOM     11  N   UNL     1       3.557  -0.715  12.026  0.00  0.00    -0.312 N 
ATOM     12  C   UNL     1       4.867  -0.052  12.086  0.00  0.00    +0.125 C 
ATOM     13  C   UNL     1       5.546  -0.388  13.415  0.00  0.00    +0.125 C 
ATOM     14  N   UNL     1       5.691  -1.846  13.533  0.00  0.00    -0.314 N 
ATOM     15  C   UNL     1       4.381  -2.509  13.473  0.00  0.00    +0.125 C 
ATOM     16  C   UNL     1       3.702  -2.173  12.144  0.00  0.00    +0.125 C 
ATOM     17  C   UNL     1       6.369  -2.186  14.698  0.00  0.00    +0.099 A 
ATOM     18  C   UNL     1       7.633  -1.657  14.940  0.00  0.00    +0.042 A 
ATOM     19  C   UNL     1       8.296  -2.005  16.102  0.00  0.00    +0.005 A 
ATOM     20  C   UNL     1       7.671  -2.873  16.988  0.00  0.00    +0.018 A 
ATOM     21  C   UNL     1       6.416  -3.360  16.685  0.00  0.00    +0.084 A 
ATOM     22  N   UNL     1       5.804  -3.007  15.570  0.00  0.00    -0.350 N 
ATOM     23  H   UNL     1       4.801  -3.413  15.373  0.00  0.00    +0.166 HD
ENDBRANCH   4  11
BRANCH   1  25
ATOM     24  N   UNL     1       1.484   0.069   6.058  0.00  0.00    -0.278 N 
ATOM     25  C   UNL     1       0.960   0.552   7.202  0.00  0.00    +0.250 C 
ATOM     26  O   UNL     1      -0.043   1.240   7.169  0.00  0.00    -0.270 OA
ATOM     27  H   UNL     1       2.347  -0.612   6.093  0.00  0.00    +0.155 HD
BRANCH  24  33
ATOM     28  C   UNL     1       1.750   0.594   3.709  0.00  0.00    +0.145 A 
ATOM     29  C   UNL     1       1.198   0.955   2.491  0.00  0.00    +0.094 A 
ATOM     30  C   UNL     1      -0.169   1.158   2.382  0.00  0.00    +0.142 A 
ATOM     31  C   UNL     1      -0.985   1.004   3.494  0.00  0.00    +0.084 A 
ATOM     32  C   UNL     1      -0.439   0.638   4.710  0.00  0.00    +0.050 A 
ATOM     33  C   UNL     1       0.929   0.435   4.823  0.00  0.00    +0.077 A 
ATOM     34 CL   UNL     1      -2.696   1.266   3.356  0.00  0.00    -0.080 Cl
BRANCH  28  36
ATOM     35  C   UNL     1       3.871   0.575   2.634  0.00  0.00    +0.277 C 
ATOM     36  O   UNL     1       3.091   0.394   3.818  0.00  0.00    -0.493 OA
ENDBRANCH  28  36
BRANCH  30  37
ATOM     37  O   UNL     1      -0.710   1.513   1.186  0.00  0.00    -0.494 OA
ATOM     38  C   UNL     1       0.190   1.659   0.085  0.00  0.00    +0.277 C 
ENDBRANCH  30  37
ENDBRANCH  24  33
ENDBRANCH   1  25
TORSDOF 5
