REMARK  Name = ZINC39631585
REMARK  12 active torsions:
REMARK  status: ('A' for Active; 'I' for Inactive)
REMARK    1  A    between atoms: C_1  and  C_2
REMARK    2  A    between atoms: C_2  and  C_4
REMARK    3  A    between atoms: C_2  and  N_11
REMARK    4  A    between atoms: C_4  and  C_5
REMARK    5  A    between atoms: C_5  and  C_6
REMARK    6  A    between atoms: C_6  and  C_7
REMARK    7  A    between atoms: C_7  and  C_8
REMARK    8  A    between atoms: C_7  and  C_9
REMARK    9  A    between atoms: C_7  and  O_10
REMARK   10  A    between atoms: C_12  and  C_14
REMARK   11  A    between atoms: C_25  and  C_27
REMARK   12  A    between atoms: C_27  and  C_33
REMARK                            x       y       z     vdW  Elec       q    Type
REMARK                         _______ _______ _______ _____ _____    ______ ____
ROOT
ATOM      1  C   UNL     1      -3.450  -1.203   1.198  0.00  0.00    +0.100 C 
ATOM      2  C   UNL     1      -4.400  -0.173   0.546  0.00  0.00    +0.121 C 
ATOM      3  N   UNL     1      -5.639  -0.242   1.355  0.00  0.00    -0.300 N 
ATOM      4  C   UNL     1      -5.161  -0.392   2.750  0.00  0.00    +0.115 C 
ATOM      5  C   UNL     1      -3.953  -1.343   2.644  0.00  0.00    -0.004 C 
ATOM      6  C   UNL     1      -2.863  -0.922   3.626  0.00  0.00    -0.010 C 
ATOM      7  C   UNL     1      -3.366  -1.126   5.058  0.00  0.00    -0.082 C 
ATOM      8  N   UNL     1      -3.715  -2.537   5.260  0.00  0.00    +0.379 N 
ATOM      9  C   UNL     1      -4.828  -2.909   4.377  0.00  0.00    -0.082 C 
ATOM     10  C   UNL     1      -4.387  -2.781   2.916  0.00  0.00    -0.010 C 
ATOM     11  C   UNL     1      -6.914  -0.183   0.920  0.00  0.00    +0.222 C 
ATOM     12  O   UNL     1      -7.827  -0.170   1.718  0.00  0.00    -0.275 OA
ATOM     13  H   UNL     1      -2.915  -3.114   5.051  0.00  0.00    -0.086 HD
ATOM     14  H   UNL     1      -3.988  -2.680   6.221  0.00  0.00    -0.086 HD
ENDROOT
BRANCH  11  15
ATOM     15  C   UNL     1      -7.204  -0.132  -0.558  0.00  0.00    +0.044 C 
ATOM     16  C   UNL     1      -6.454   1.045  -1.185  0.00  0.00    +0.016 C 
ATOM     17  C   UNL     1      -6.913   2.350  -0.529  0.00  0.00    +0.001 C 
ATOM     18  C   UNL     1      -8.416   2.529  -0.748  0.00  0.00    +0.000 C 
ATOM     19  C   UNL     1      -9.167   1.352  -0.121  0.00  0.00    +0.001 C 
ATOM     20  C   UNL     1      -8.708   0.048  -0.776  0.00  0.00    +0.016 C 
ATOM     21  C   UNL     1      -6.746  -1.436  -1.213  0.00  0.00    +0.021 C 
ENDBRANCH  11  15
BRANCH   1  23
ATOM     22  N   UNL     1      -1.005  -1.557   1.303  0.00  0.00    -0.312 N 
ATOM     23  C   UNL     1      -2.033  -0.694   1.182  0.00  0.00    +0.218 C 
ATOM     24  O   UNL     1      -1.816   0.494   1.060  0.00  0.00    -0.275 OA
ATOM     25  H   UNL     1      -1.178  -2.506   1.401  0.00  0.00    +0.149 HD
BRANCH  22  27
ATOM     26  C   UNL     1       0.851  -0.925  -0.160  0.00  0.00    +0.028 C 
ATOM     27  C   UNL     1       0.374  -1.061   1.288  0.00  0.00    +0.070 C 
BRANCH  27  28
ATOM     28  C   UNL     1       1.278  -2.046   2.032  0.00  0.00    +0.022 C 
BRANCH  28  29
ATOM     29  C   UNL     1       0.879  -2.088   3.509  0.00  0.00    +0.005 C 
BRANCH  29  30
ATOM     30  C   UNL     1       1.784  -3.072   4.253  0.00  0.00    +0.034 C 
BRANCH  30  31
ATOM     31  C   UNL     1       1.385  -3.115   5.730  0.00  0.00    +0.061 C 
ATOM     32  C   UNL     1       2.366  -4.002   6.498  0.00  0.00    +0.041 C 
ATOM     33  C   UNL     1       1.419  -1.698   6.308  0.00  0.00    +0.041 C 
BRANCH  31  34
ATOM     34  O   UNL     1       0.065  -3.647   5.852  0.00  0.00    -0.389 OA
ATOM     35  H   UNL     1      -0.031  -4.545   5.505  0.00  0.00    +0.210 HD
ENDBRANCH  31  34
ENDBRANCH  30  31
ENDBRANCH  29  30
ENDBRANCH  28  29
ENDBRANCH  27  28
ENDBRANCH  22  27
ENDBRANCH   1  23
TORSDOF 8
