REMARK  Name = ZINC18257625
REMARK  5 active torsions:
REMARK  status: ('A' for Active; 'I' for Inactive)
REMARK    1  A    between atoms: C_1  and  C_2
REMARK    2  A    between atoms: C_4  and  C_27
REMARK    3  A    between atoms: C_9  and  S_11
REMARK    4  A    between atoms: S_11  and  C_12
REMARK    5  A    between atoms: C_12  and  C_13
REMARK                            x       y       z     vdW  Elec       q    Type
REMARK                         _______ _______ _______ _____ _____    ______ ____
ROOT
ATOM      1  C   UNL     1      -0.592   1.494   1.367  0.00  0.00    +0.143 A 
ATOM      2  N   UNL     1      -1.551   0.755   1.896  0.00  0.00    -0.216 NA
ATOM      3  C   UNL     1      -2.330   1.201   2.868  0.00  0.00    +0.128 A 
ATOM      4  C   UNL     1      -2.132   2.520   3.364  0.00  0.00    +0.051 A 
ATOM      5  C   UNL     1      -2.862   3.221   4.421  0.00  0.00    -0.025 A 
ATOM      6  C   UNL     1      -2.471   4.481   4.702  0.00  0.00    -0.004 A 
ATOM      7  S   UNL     1      -1.126   4.806   3.594  0.00  0.00    -0.073 S 
ATOM      8  C   UNL     1      -1.091   3.246   2.751  0.00  0.00    +0.114 A 
ATOM      9  N   UNL     1      -0.357   2.721   1.789  0.00  0.00    -0.224 NA
ATOM     10  C   UNL     1      -3.051   5.403   5.731  0.00  0.00    +0.043 C 
ATOM     11  C   UNL     1      -4.409   4.841   6.175  0.00  0.00    +0.005 C 
ATOM     12  C   UNL     1      -4.246   3.349   6.481  0.00  0.00    +0.005 C 
ATOM     13  C   UNL     1      -4.016   2.575   5.182  0.00  0.00    +0.037 C 
ATOM     14  N   UNL     1      -3.323   0.396   3.395  0.00  0.00    -0.343 N 
ATOM     15  H   UNL     1      -3.313  -0.559   3.227  0.00  0.00    +0.144 HD
ATOM     16  H   UNL     1      -4.029   0.786   3.933  0.00  0.00    +0.144 HD
ENDROOT
BRANCH   1  17
ATOM     17  C   UNL     1       0.257   0.920   0.262  0.00  0.00    +0.153 C 
BRANCH  17  18
ATOM     18  S   UNL     1      -0.506   1.292  -1.341  0.00  0.00    -0.076 S 
BRANCH  18  27
ATOM     19  C   UNL     1       5.063  -2.277  -5.010  0.00  0.00    +0.066 C 
ATOM     20  C   UNL     1       3.793  -1.498  -4.783  0.00  0.00    +0.044 A 
ATOM     21  C   UNL     1       3.020  -1.091  -5.876  0.00  0.00    +0.046 A 
ATOM     22  C   UNL     1       1.878  -0.389  -5.657  0.00  0.00    +0.045 A 
ATOM     23  N   UNL     1       1.517  -0.099  -4.379  0.00  0.00    -0.200 N 
ATOM     24  C   UNL     1       2.294  -0.511  -3.333  0.00  0.00    +0.254 A 
ATOM     25  N   UNL     1       3.417  -1.202  -3.559  0.00  0.00    -0.216 NA
ATOM     26  N   UNL     1       1.711  -0.090  -2.216  0.00  0.00    -0.183 NA
ATOM     27  C   UNL     1       0.590   0.564  -2.514  0.00  0.00    +0.211 A 
ATOM     28  N   UNL     1       0.430   0.588  -3.822  0.00  0.00    -0.137 NA
ATOM     29  C   UNL     1       1.024   0.062  -6.813  0.00  0.00    +0.066 C 
ENDBRANCH  18  27
ENDBRANCH  17  18
ENDBRANCH   1  17
TORSDOF 3
