REMARK  Name = ZINC15775919
REMARK  9 active torsions:
REMARK  status: ('A' for Active; 'I' for Inactive)
REMARK    1  A    between atoms: C_1  and  C_2
REMARK    2  A    between atoms: C_2  and  N_3
REMARK    3  A    between atoms: N_3  and  C_4
REMARK    4  A    between atoms: N_3  and  S_6
REMARK    5  A    between atoms: C_4  and  C_5
REMARK    6  A    between atoms: S_6  and  C_9
REMARK    7  A    between atoms: C_16  and  C_22
REMARK    8  A    between atoms: C_19  and  C_21
REMARK    9  A    between atoms: N_27  and  C_30
REMARK                            x       y       z     vdW  Elec       q    Type
REMARK                         _______ _______ _______ _____ _____    ______ ____
ROOT
ATOM      1  C   UNL     1      -4.954   0.969   2.917  0.00  0.00    +0.106 A 
ATOM      2  C   UNL     1      -5.327   0.215   1.819  0.00  0.00    +0.030 A 
ATOM      3  C   UNL     1      -4.535   0.193   0.691  0.00  0.00    +0.026 A 
ATOM      4  C   UNL     1      -3.351   0.932   0.648  0.00  0.00    +0.040 A 
ATOM      5  C   UNL     1      -2.986   1.684   1.753  0.00  0.00    -0.022 A 
ATOM      6  C   UNL     1      -3.783   1.702   2.882  0.00  0.00    +0.034 A 
ATOM      7  C   UNL     1      -1.679   2.381   1.451  0.00  0.00    +0.069 C 
ATOM      8  C   UNL     1      -1.325   1.938   0.022  0.00  0.00    +0.172 C 
ATOM      9  N   UNL     1      -2.415   1.048  -0.388  0.00  0.00    -0.259 N 
ATOM     10  C   UNL     1      -2.503   0.434  -1.584  0.00  0.00    +0.217 C 
ATOM     11  O   UNL     1      -3.396  -0.360  -1.794  0.00  0.00    -0.276 OA
ATOM     12  C   UNL     1      -1.492   0.733  -2.661  0.00  0.00    +0.109 C 
ENDROOT
BRANCH   8  13
ATOM     13  C   UNL     1      -0.014   1.195   0.014  0.00  0.00    +0.237 C 
ATOM     14  O   UNL     1      -0.004  -0.017   0.007  0.00  0.00    -0.274 OA
ATOM     15  N   UNL     1       1.148   1.879   0.009  0.00  0.00    -0.297 N 
ATOM     16  C   UNL     1       1.158   3.350   0.012  0.00  0.00    +0.127 C 
ATOM     17  C   UNL     1       2.080   3.824   1.146  0.00  0.00    +0.125 C 
ATOM     18  N   UNL     1       3.399   3.194   0.993  0.00  0.00    -0.314 N 
ATOM     19  C   UNL     1       3.311   1.734   1.125  0.00  0.00    +0.125 C 
ATOM     20  C   UNL     1       2.438   1.174  -0.004  0.00  0.00    +0.127 C 
BRANCH  18  21
ATOM     21  C   UNL     1       4.311   3.722   1.900  0.00  0.00    +0.099 A 
ATOM     22  C   UNL     1       4.541   5.094   1.927  0.00  0.00    +0.042 A 
ATOM     23  C   UNL     1       5.447   5.606   2.837  0.00  0.00    +0.005 A 
ATOM     24  C   UNL     1       6.104   4.724   3.686  0.00  0.00    +0.018 A 
ATOM     25  C   UNL     1       5.831   3.374   3.601  0.00  0.00    +0.084 A 
ATOM     26  N   UNL     1       4.943   2.836   2.723  0.00  0.00    -0.350 N 
ATOM     27  H   UNL     1       4.760   1.827   2.681  0.00  0.00    +0.166 HD
ENDBRANCH  18  21
ENDBRANCH   8  13
BRANCH   1  28
ATOM     28  S   UNL     1      -5.969   0.993   4.357  0.00  0.00    +0.061 S 
ATOM     29  O   UNL     1      -6.730  -0.207   4.338  0.00  0.00    -0.153 OA
ATOM     30  O   UNL     1      -5.123   1.341   5.444  0.00  0.00    -0.153 OA
BRANCH  28  31
ATOM     31  N   UNL     1      -7.045   2.239   4.177  0.00  0.00    -0.177 NA
BRANCH  31  33
ATOM     32  C   UNL     1      -9.398   1.726   4.604  0.00  0.00    +0.022 C 
ATOM     33  C   UNL     1      -8.339   2.001   3.534  0.00  0.00    +0.106 C 
ENDBRANCH  31  33
BRANCH  31  34
ATOM     34  C   UNL     1      -6.702   3.578   4.661  0.00  0.00    +0.106 C 
ATOM     35  C   UNL     1      -6.117   4.401   3.512  0.00  0.00    +0.022 C 
ENDBRANCH  31  34
ENDBRANCH  28  31
ENDBRANCH   1  28
TORSDOF 6
