REMARK  Name = ZINC16286503
REMARK  12 active torsions:
REMARK  status: ('A' for Active; 'I' for Inactive)
REMARK    1  A    between atoms: C_1  and  C_2
REMARK    2  A    between atoms: C_2  and  O_4
REMARK    3  A    between atoms: O_4  and  C_5
REMARK    4  A    between atoms: C_6  and  O_30
REMARK    5  A    between atoms: C_8  and  C_12
REMARK    6  A    between atoms: C_15  and  C_26
REMARK    7  A    between atoms: C_21  and  N_25
REMARK    8  A    between atoms: C_22  and  C_23
REMARK    9  A    between atoms: C_26  and  C_27
REMARK   10  A    between atoms: C_26  and  C_28
REMARK   11  A    between atoms: C_26  and  C_29
REMARK   12  A    between atoms: O_30  and  C_31
REMARK                            x       y       z     vdW  Elec       q    Type
REMARK                         _______ _______ _______ _____ _____    ______ ____
ROOT
ATOM      1  C   UNL     1      -1.163  -6.154  -0.073  0.00  0.00    +0.101 C 
ATOM      2  C   UNL     1      -0.872  -7.119   1.047  0.00  0.00    +0.050 A 
ATOM      3  C   UNL     1       0.194  -7.139   1.936  0.00  0.00    +0.076 A 
ATOM      4  N   UNL     1       0.034  -8.161   2.742  0.00  0.00    -0.175 NA
ATOM      5  N   UNL     1      -1.149  -8.826   2.385  0.00  0.00    -0.246 N 
ATOM      6  H   UNL     1      -1.512  -9.617   2.814  0.00  0.00    +0.192 HD
ATOM      7  C   UNL     1      -1.690  -8.174   1.343  0.00  0.00    +0.222 A 
ATOM      8  O   UNL     1      -2.826  -8.437   0.651  0.00  0.00    -0.423 OA
ATOM      9  C   UNL     1      -3.005  -7.796  -0.523  0.00  0.00    +0.200 C 
ATOM     10  C   UNL     1      -2.268  -6.734  -0.920  0.00  0.00    +0.098 C 
ENDROOT
BRANCH   1  14
ATOM     11  C   UNL     1      -2.410  -2.398   1.550  0.00  0.00    +0.187 A 
ATOM     12  C   UNL     1      -1.495  -2.435   0.502  0.00  0.00    +0.164 A 
ATOM     13  C   UNL     1      -1.094  -3.654  -0.022  0.00  0.00    +0.054 A 
ATOM     14  C   UNL     1      -1.601  -4.830   0.497  0.00  0.00    -0.030 A 
ATOM     15  C   UNL     1      -2.510  -4.795   1.538  0.00  0.00    +0.023 A 
ATOM     16  C   UNL     1      -2.911  -3.582   2.070  0.00  0.00    +0.064 A 
ATOM     17 BR   UNL     1      -4.148  -3.538   3.499  0.00  0.00    -0.046 Br
BRANCH  12  18
ATOM     18  O   UNL     1      -0.997  -1.277  -0.008  0.00  0.00    -0.491 OA
ATOM     19  C   UNL     1      -0.062  -1.391  -1.083  0.00  0.00    +0.277 C 
ENDBRANCH  12  18
BRANCH  11  20
ATOM     20  O   UNL     1      -2.807  -1.205   2.067  0.00  0.00    -0.421 OA
BRANCH  20  22
ATOM     21  C   UNL     1      -2.496   0.630   3.689  0.00  0.00    +0.136 C 
ATOM     22  C   UNL     1      -2.096  -0.690   3.083  0.00  0.00    +0.309 C 
ATOM     23  O   UNL     1      -1.135  -1.285   3.510  0.00  0.00    -0.251 OA
ENDBRANCH  20  22
ENDBRANCH  11  20
ENDBRANCH   1  14
BRANCH   3  24
ATOM     24  C   UNL     1       1.337  -6.157   1.969  0.00  0.00    +0.007 C 
ATOM     25  C   UNL     1       0.812  -4.778   2.375  0.00  0.00    +0.017 C 
ATOM     26  C   UNL     1       2.382  -6.624   2.983  0.00  0.00    +0.017 C 
ATOM     27  C   UNL     1       1.975  -6.071   0.581  0.00  0.00    +0.017 C 
ENDBRANCH   3  24
BRANCH   9  28
ATOM     28  N   UNL     1      -3.992  -8.249  -1.362  0.00  0.00    -0.328 N 
ATOM     29  H   UNL     1      -4.537  -9.009  -1.105  0.00  0.00    +0.145 HD
ATOM     30  H   UNL     1      -4.144  -7.809  -2.213  0.00  0.00    +0.145 HD
ENDBRANCH   9  28
BRANCH  10  31
ATOM     31  C   UNL     1      -2.547  -6.138  -2.192  0.00  0.00    +0.101 C 
ATOM     32  N   UNL     1      -2.768  -5.665  -3.201  0.00  0.00    -0.191 NA
ENDBRANCH  10  31
TORSDOF 7
