REMARK  Name = ZINC03386137
REMARK  9 active torsions:
REMARK  status: ('A' for Active; 'I' for Inactive)
REMARK    1  A    between atoms: C_1  and  C_2
REMARK    2  A    between atoms: C_7  and  N_8
REMARK    3  A    between atoms: C_9  and  C_30
REMARK    4  A    between atoms: C_12  and  S_13
REMARK    5  A    between atoms: S_13  and  C_14
REMARK    6  A    between atoms: C_14  and  C_15
REMARK    7  A    between atoms: N_17  and  C_18
REMARK    8  A    between atoms: C_20  and  C_27
REMARK    9  A    between atoms: C_22  and  C_24
REMARK                            x       y       z     vdW  Elec       q    Type
REMARK                         _______ _______ _______ _____ _____    ______ ____
ROOT
ATOM      1  C   UNL     1      -2.474   0.772   0.133  0.00  0.00    +0.173 C 
ENDROOT
BRANCH   1   2
ATOM      2  C   UNL     1      -1.209   1.583   0.017  0.00  0.00    +0.227 C 
ATOM      3  O   UNL     1      -1.269   2.792  -0.067  0.00  0.00    -0.275 OA
ATOM      4  N   UNL     1      -0.011   0.966   0.007  0.00  0.00    -0.285 N 
ATOM      5  H   UNL     1       0.035  -0.003   0.007  0.00  0.00    +0.155 HD
BRANCH   4   6
ATOM      6  C   UNL     1       1.166   1.723  -0.008  0.00  0.00    +0.035 A 
ATOM      7  C   UNL     1       1.211   2.919  -0.709  0.00  0.00    +0.036 A 
ATOM      8  C   UNL     1       2.381   3.679  -0.722  0.00  0.00    +0.039 A 
ATOM      9  C   UNL     1       3.510   3.230  -0.039  0.00  0.00    +0.026 A 
ATOM     10  C   UNL     1       3.463   2.025   0.659  0.00  0.00    +0.039 A 
ATOM     11  C   UNL     1       2.288   1.273   0.673  0.00  0.00    +0.036 A 
BRANCH  10  12
ATOM     12  C   UNL     1       4.658   1.544   1.386  0.00  0.00    +0.242 C 
ATOM     13  O   UNL     1       4.617   0.494   1.996  0.00  0.00    -0.270 OA
ATOM     14  N   UNL     1       5.793   2.272   1.372  0.00  0.00    -0.325 N 
ATOM     15  H   UNL     1       5.826   3.110   0.886  0.00  0.00    +0.145 HD
ATOM     16  H   UNL     1       6.577   1.956   1.849  0.00  0.00    +0.145 HD
ENDBRANCH  10  12
BRANCH   8  17
ATOM     17  C   UNL     1       2.426   4.957  -1.466  0.00  0.00    +0.242 C 
ATOM     18  O   UNL     1       1.441   5.348  -2.061  0.00  0.00    -0.270 OA
ATOM     19  N   UNL     1       3.558   5.687  -1.482  0.00  0.00    -0.325 N 
ATOM     20  H   UNL     1       4.344   5.375  -1.007  0.00  0.00    +0.145 HD
ATOM     21  H   UNL     1       3.588   6.525  -1.970  0.00  0.00    +0.145 HD
ENDBRANCH   8  17
ENDBRANCH   4   6
ENDBRANCH   1   2
BRANCH   1  22
ATOM     22  S   UNL     1      -3.905   1.880   0.118  0.00  0.00    -0.076 S 
BRANCH  22  27
ATOM     23  N   UNL     1      -6.545   0.972   0.309  0.00  0.00    -0.270 N 
ATOM     24  C   UNL     1      -7.168  -0.252   0.420  0.00  0.00    +0.169 A 
ATOM     25  N   UNL     1      -6.224  -1.164   0.443  0.00  0.00    -0.128 NA
ATOM     26  N   UNL     1      -5.071  -0.605   0.350  0.00  0.00    -0.122 NA
ATOM     27  C   UNL     1      -5.206   0.701   0.262  0.00  0.00    +0.197 A 
BRANCH  23  34
ATOM     28  C   UNL     1      -7.021   2.348   2.755  0.00  0.00    +0.046 C 
ATOM     29  C   UNL     1      -7.407   2.937   1.423  0.00  0.00    -0.026 A 
ATOM     30  C   UNL     1      -8.004   4.181   1.364  0.00  0.00    +0.005 A 
ATOM     31  C   UNL     1      -8.364   4.719   0.143  0.00  0.00    +0.000 A 
ATOM     32  C   UNL     1      -8.122   4.018  -1.024  0.00  0.00    +0.002 A 
ATOM     33  C   UNL     1      -7.519   2.776  -0.972  0.00  0.00    +0.026 A 
ATOM     34  C   UNL     1      -7.157   2.232   0.253  0.00  0.00    +0.053 A 
ENDBRANCH  23  34
BRANCH  24  35
ATOM     35  C   UNL     1      -8.624  -0.493   0.502  0.00  0.00    +0.022 A 
ATOM     36  C   UNL     1      -9.540   0.512   0.166  0.00  0.00    +0.031 A 
ATOM     37  C   UNL     1     -10.889   0.242   0.253  0.00  0.00    +0.111 A 
ATOM     38  N   UNL     1     -11.320  -0.938   0.657  0.00  0.00    -0.263 NA
ATOM     39  C   UNL     1     -10.491  -1.911   0.988  0.00  0.00    +0.111 A 
ATOM     40  C   UNL     1      -9.126  -1.730   0.926  0.00  0.00    +0.031 A 
ENDBRANCH  24  35
ENDBRANCH  22  27
ENDBRANCH   1  22
TORSDOF 8
