REMARK  Name = ZINC16000995
REMARK  4 active torsions:
REMARK  status: ('A' for Active; 'I' for Inactive)
REMARK    1  A    between atoms: C_1  and  C_2
REMARK    2  A    between atoms: N_24  and  C_27
REMARK    3  A    between atoms: C_32  and  O_33
REMARK    4  A    between atoms: O_33  and  C_34
REMARK                            x       y       z     vdW  Elec       q    Type
REMARK                         _______ _______ _______ _____ _____    ______ ____
ROOT
ATOM      1  C   UNL     1       2.722  -5.675  -2.448  0.00  0.00    +0.047 C 
ATOM      2  C   UNL     1       3.214  -4.320  -2.008  0.00  0.00    -0.011 A 
ATOM      3  C   UNL     1       4.469  -3.887  -2.388  0.00  0.00    +0.046 A 
ATOM      4  C   UNL     1       4.928  -2.644  -1.990  0.00  0.00    +0.020 A 
ATOM      5  C   UNL     1       4.126  -1.831  -1.208  0.00  0.00    +0.006 A 
ATOM      6  C   UNL     1       2.874  -2.260  -0.827  0.00  0.00    -0.027 A 
ATOM      7  C   UNL     1       2.401  -3.508  -1.221  0.00  0.00    +0.040 A 
ATOM      8  N   UNL     1       1.116  -3.719  -0.717  0.00  0.00    -0.286 N 
ATOM      9  C   UNL     1       0.677  -2.673   0.009  0.00  0.00    +0.212 C 
ATOM     10  O   UNL     1      -0.396  -2.578   0.566  0.00  0.00    -0.277 OA
ATOM     11  C   UNL     1       1.778  -1.646  -0.003  0.00  0.00    +0.053 C 
ATOM     12  C   UNL     1       2.255  -1.325   1.418  0.00  0.00    +0.089 C 
ATOM     13  C   UNL     1       2.579   0.194   1.392  0.00  0.00    +0.074 C 
ATOM     14  C   UNL     1       2.266   0.648  -0.045  0.00  0.00    -0.054 C 
ATOM     15  N   UNL     1       1.314  -0.373  -0.581  0.00  0.00    +0.395 N 
ATOM     16  C   UNL     1       0.002  -0.004   0.002  0.00  0.00    -0.076 C 
ATOM     17  C   UNL     1      -0.019   1.538   0.011  0.00  0.00    -0.020 C 
ATOM     18  C   UNL     1       1.463   1.961  -0.001  0.00  0.00    -0.016 C 
ATOM     19  C   UNL     1       1.559   0.784   2.339  0.00  0.00    +0.229 C 
ATOM     20  O   UNL     1       1.455   1.960   2.612  0.00  0.00    -0.275 OA
ATOM     21  N   UNL     1       0.789  -0.195   2.829  0.00  0.00    -0.206 N 
ATOM     22  C   UNL     1       1.093  -1.418   2.380  0.00  0.00    +0.230 C 
ATOM     23  O   UNL     1       0.524  -2.441   2.696  0.00  0.00    -0.275 OA
ATOM     24 CL   UNL     1       5.475  -4.906  -3.369  0.00  0.00    -0.083 Cl
ATOM     25  H   UNL     1       0.588  -4.659  -0.933  0.00  0.00    +0.155 HD
ATOM     26  H   UNL     1       1.248  -0.448  -1.676  0.00  0.00    -0.079 HD
ENDROOT
BRANCH  21  27
ATOM     27  C   UNL     1      -0.252   0.043   3.740  0.00  0.00    +0.087 A 
ATOM     28  C   UNL     1      -0.002   0.015   5.104  0.00  0.00    +0.047 A 
ATOM     29  C   UNL     1      -1.030   0.250   5.999  0.00  0.00    +0.043 A 
ATOM     30  C   UNL     1      -2.308   0.512   5.537  0.00  0.00    +0.024 A 
ATOM     31  C   UNL     1      -2.563   0.541   4.179  0.00  0.00    +0.049 A 
ATOM     32  C   UNL     1      -1.537   0.312   3.276  0.00  0.00    +0.142 A 
ATOM     33 CL   UNL     1      -0.716   0.215   7.706  0.00  0.00    -0.083 Cl
BRANCH  32  34
ATOM     34  O   UNL     1      -1.786   0.346   1.940  0.00  0.00    -0.493 OA
ATOM     35  C   UNL     1      -3.128   0.628   1.536  0.00  0.00    +0.277 C 
ENDBRANCH  32  34
ENDBRANCH  21  27
TORSDOF 2
