REMARK  Name = ZINC64651427
REMARK  9 active torsions:
REMARK  status: ('A' for Active; 'I' for Inactive)
REMARK    1  A    between atoms: C_1  and  O_2
REMARK    2  A    between atoms: O_2  and  C_3
REMARK    3  A    between atoms: C_6  and  C_10
REMARK    4  A    between atoms: N_24  and  C_25
REMARK    5  A    between atoms: C_25  and  C_26
REMARK    6  A    between atoms: C_29  and  O_32
REMARK    7  A    between atoms: O_32  and  C_33
REMARK    8  A    between atoms: C_33  and  C_34
REMARK    9  A    between atoms: C_34  and  O_35
REMARK                            x       y       z     vdW  Elec       q    Type
REMARK                         _______ _______ _______ _____ _____    ______ ____
ROOT
ATOM      1  C   UNL     1       2.576  -2.288  -4.249  0.00  0.00    +0.116 C 
ATOM      2  C   UNL     1       4.047  -2.593  -3.955  0.00  0.00    +0.128 C 
ATOM      3  C   UNL     1       4.581  -3.335  -5.175  0.00  0.00    -0.035 C 
ATOM      4  C   UNL     1       5.112  -4.463  -4.725  0.00  0.00    -0.001 A 
ATOM      5  C   UNL     1       5.850  -5.540  -5.405  0.00  0.00    +0.010 A 
ATOM      6  C   UNL     1       6.247  -6.580  -4.625  0.00  0.00    +0.001 A 
ATOM      7  C   UNL     1       5.987  -6.655  -3.253  0.00  0.00    +0.002 A 
ATOM      8  C   UNL     1       5.321  -5.709  -2.545  0.00  0.00    +0.026 A 
ATOM      9  C   UNL     1       4.858  -4.563  -3.255  0.00  0.00    +0.043 A 
ATOM     10  N   UNL     1       4.217  -3.496  -2.818  0.00  0.00    -0.376 N 
ATOM     11  C   UNL     1       4.376  -2.807  -6.574  0.00  0.00    +0.049 C 
ATOM     12  C   UNL     1       2.887  -2.431  -6.678  0.00  0.00    +0.090 C 
ATOM     13  N   UNL     1       2.497  -1.591  -5.543  0.00  0.00    -0.289 NA
ATOM     14  H   UNL     1       3.908  -3.334  -1.913  0.00  0.00    +0.160 HD
ENDROOT
BRANCH   1  18
ATOM     15  C   UNL     1       0.977   0.206  -1.167  0.00  0.00    +0.123 A 
ATOM     16  C   UNL     1       0.605  -1.129  -1.246  0.00  0.00    +0.046 A 
ATOM     17  C   UNL     1       1.123  -1.932  -2.243  0.00  0.00    +0.011 A 
ATOM     18  C   UNL     1       2.012  -1.409  -3.163  0.00  0.00    +0.007 A 
ATOM     19  C   UNL     1       2.386  -0.078  -3.087  0.00  0.00    +0.132 A 
ATOM     20  C   UNL     1       1.865   0.732  -2.093  0.00  0.00    +0.084 A 
ATOM     21  F   UNL     1       3.256   0.432  -3.986  0.00  0.00    -0.205 F 
BRANCH  15  23
ATOM     22  C   UNL     1      -0.441   0.388   0.732  0.00  0.00    +0.277 C 
ATOM     23  O   UNL     1       0.468   0.997  -0.186  0.00  0.00    -0.495 OA
ENDBRANCH  15  23
ENDBRANCH   1  18
BRANCH  13  24
ATOM     24  C   UNL     1       1.163  -1.012  -5.748  0.00  0.00    +0.120 C 
BRANCH  24  25
ATOM     25  C   UNL     1       1.222   0.003  -6.861  0.00  0.00    -0.033 A 
ATOM     26  C   UNL     1       1.504   1.326  -6.574  0.00  0.00    +0.008 A 
ATOM     27  C   UNL     1       1.558   2.258  -7.592  0.00  0.00    +0.046 A 
ATOM     28  C   UNL     1       1.329   1.866  -8.903  0.00  0.00    +0.121 A 
ATOM     29  C   UNL     1       1.046   0.538  -9.188  0.00  0.00    +0.046 A 
ATOM     30  C   UNL     1       0.999  -0.392  -8.167  0.00  0.00    +0.008 A 
BRANCH  28  31
ATOM     31  O   UNL     1       1.381   2.781  -9.907  0.00  0.00    -0.490 OA
BRANCH  31  32
ATOM     32  C   UNL     1       1.134   2.306 -11.232  0.00  0.00    +0.256 C 
BRANCH  32  33
ATOM     33  C   UNL     1       1.235   3.471 -12.218  0.00  0.00    +0.196 C 
BRANCH  33  34
ATOM     34  O   UNL     1       2.576   3.965 -12.237  0.00  0.00    -0.392 OA
ATOM     35  H   UNL     1       2.713   4.707 -12.842  0.00  0.00    +0.210 HD
ENDBRANCH  33  34
ENDBRANCH  32  33
ENDBRANCH  31  32
ENDBRANCH  28  31
ENDBRANCH  24  25
ENDBRANCH  13  24
TORSDOF 8
