REMARK  Name = ZINC34676753
REMARK  4 active torsions:
REMARK  status: ('A' for Active; 'I' for Inactive)
REMARK    1  A    between atoms: C_1  and  N_2
REMARK    2  A    between atoms: N_2  and  C_3
REMARK    3  A    between atoms: N_13  and  C_16
REMARK    4  A    between atoms: C_26  and  C_28
REMARK                            x       y       z     vdW  Elec       q    Type
REMARK                         _______ _______ _______ _____ _____    ______ ____
ROOT
ATOM      1  C   UNL     1       0.494  -0.561   0.320  0.00  0.00    +0.130 C 
ATOM      2  N   UNL     1      -0.304  -0.647  -0.906  0.00  0.00    -0.321 N 
ATOM      3  C   UNL     1       0.195  -0.051  -2.148  0.00  0.00    +0.130 C 
ATOM      4  C   UNL     1      -1.530  -1.292  -0.891  0.00  0.00    +0.131 A 
ATOM      5  C   UNL     1      -2.711  -0.564  -0.699  0.00  0.00    +0.029 A 
ATOM      6  C   UNL     1      -3.908  -1.237  -0.696  0.00  0.00    +0.028 A 
ATOM      7  N   UNL     1      -3.902  -2.558  -0.862  0.00  0.00    -0.331 N 
ATOM      8  C   UNL     1      -2.773  -3.223  -1.039  0.00  0.00    +0.198 A 
ATOM      9  N   UNL     1      -1.600  -2.606  -1.064  0.00  0.00    -0.201 NA
ATOM     10  N   UNL     1      -2.817  -4.596  -1.209  0.00  0.00    -0.298 N 
ATOM     11  C   UNL     1      -4.105  -5.294  -1.324  0.00  0.00    +0.127 C 
ATOM     12  C   UNL     1      -4.109  -6.103  -2.627  0.00  0.00    +0.124 C 
ATOM     13  N   UNL     1      -2.869  -6.888  -2.696  0.00  0.00    -0.327 N 
ATOM     14  C   UNL     1      -1.581  -6.190  -2.581  0.00  0.00    +0.124 C 
ATOM     15  C   UNL     1      -1.577  -5.381  -1.284  0.00  0.00    +0.127 C 
ATOM     16  C   UNL     1      -5.234  -0.546  -0.529  0.00  0.00    +0.072 C 
ATOM     17  C   UNL     1      -5.051   0.829   0.114  0.00  0.00    +0.114 C 
ATOM     18  N   UNL     1      -3.956   1.518  -0.588  0.00  0.00    -0.293 N 
ATOM     19  C   UNL     1      -2.617   0.925  -0.497  0.00  0.00    +0.148 C 
ATOM     20  C   UNL     1      -4.175   2.650  -1.288  0.00  0.00    +0.247 C 
ATOM     21  O   UNL     1      -5.279   3.159  -1.289  0.00  0.00    -0.270 OA
ATOM     22  H   UNL     1      -4.742  -3.042  -0.853  0.00  0.00    +0.168 HD
ENDROOT
BRANCH  20  23
ATOM     23  C   UNL     1      -3.074   3.270  -2.053  0.00  0.00    +0.037 A 
ATOM     24  C   UNL     1      -3.328   3.866  -3.289  0.00  0.00    +0.014 A 
ATOM     25  C   UNL     1      -2.296   4.444  -3.998  0.00  0.00    +0.021 A 
ATOM     26  C   UNL     1      -1.009   4.434  -3.486  0.00  0.00    +0.041 A 
ATOM     27  C   UNL     1      -0.751   3.845  -2.259  0.00  0.00    +0.021 A 
ATOM     28  C   UNL     1      -1.776   3.269  -1.538  0.00  0.00    +0.014 A 
ATOM     29 CL   UNL     1       0.285   5.162  -4.385  0.00  0.00    -0.084 Cl
ENDBRANCH  20  23
BRANCH  13  30
ATOM     30  C   UNL     1      -2.914  -8.274  -2.868  0.00  0.00    +0.030 A 
ATOM     31  C   UNL     1      -4.134  -8.937  -2.861  0.00  0.00    +0.023 A 
ATOM     32  C   UNL     1      -4.175 -10.307  -3.031  0.00  0.00    +0.002 A 
ATOM     33  C   UNL     1      -3.002 -11.018  -3.208  0.00  0.00    +0.000 A 
ATOM     34  C   UNL     1      -1.785 -10.361  -3.216  0.00  0.00    +0.002 A 
ATOM     35  C   UNL     1      -1.738  -8.991  -3.052  0.00  0.00    +0.023 A 
ENDBRANCH  13  30
TORSDOF 2
