REMARK  Name = ZINC08833343
REMARK  8 active torsions:
REMARK  status: ('A' for Active; 'I' for Inactive)
REMARK    1  A    between atoms: C_1  and  C_2
REMARK    2  A    between atoms: C_4  and  C_34
REMARK    3  A    between atoms: C_9  and  C_11
REMARK    4  A    between atoms: C_14  and  N_18
REMARK    5  A    between atoms: C_16  and  O_17
REMARK    6  A    between atoms: N_18  and  C_19
REMARK    7  A    between atoms: C_19  and  N_21
REMARK    8  A    between atoms: C_22  and  C_24
REMARK                            x       y       z     vdW  Elec       q    Type
REMARK                         _______ _______ _______ _____ _____    ______ ____
ROOT
ATOM      1  C   UNL     1       8.393  -6.319   0.029  0.00  0.00    +0.078 A 
ATOM      2  C   UNL     1       8.459  -4.923   0.062  0.00  0.00    +0.018 A 
ATOM      3  C   UNL     1       7.302  -4.179   0.026  0.00  0.00    +0.024 A 
ATOM      4  C   UNL     1       6.064  -4.812  -0.044  0.00  0.00    +0.036 A 
ATOM      5  C   UNL     1       5.989  -6.198  -0.072  0.00  0.00    +0.069 A 
ATOM      6  C   UNL     1       7.146  -6.955  -0.042  0.00  0.00    +0.131 A 
ENDROOT
BRANCH   1  15
ATOM      7  C   UNL     1      13.679 -11.466   0.158  0.00  0.00    +0.044 C 
ATOM      8  C   UNL     1      12.992 -10.124   0.155  0.00  0.00    -0.048 A 
ATOM      9  C   UNL     1      13.748  -8.963   0.215  0.00  0.00    +0.010 A 
ATOM     10  C   UNL     1      13.133  -7.727   0.214  0.00  0.00    -0.006 A 
ATOM     11  C   UNL     1      11.752  -7.643   0.152  0.00  0.00    +0.159 A 
ATOM     12  C   UNL     1      10.982  -8.816   0.091  0.00  0.00    +0.110 A 
ATOM     13  C   UNL     1      11.618 -10.060   0.093  0.00  0.00    +0.035 A 
ATOM     14  N   UNL     1       9.682  -8.428   0.041  0.00  0.00    -0.209 NA
ATOM     15  C   UNL     1       9.632  -7.119   0.067  0.00  0.00    +0.232 A 
ATOM     16  O   UNL     1      10.878  -6.611   0.130  0.00  0.00    -0.435 OA
ATOM     17  C   UNL     1      13.964  -6.472   0.279  0.00  0.00    +0.047 C 
ENDBRANCH   1  15
BRANCH   6  18
ATOM     18  O   UNL     1       7.075  -8.311  -0.074  0.00  0.00    -0.506 OA
ATOM     19  H   UNL     1       7.014  -8.722   0.799  0.00  0.00    +0.292 HD
ENDBRANCH   6  18
BRANCH   4  20
ATOM     20  N   UNL     1       4.895  -4.051  -0.080  0.00  0.00    -0.296 N 
ATOM     21  H   UNL     1       4.803  -3.275   0.495  0.00  0.00    +0.154 HD
BRANCH  20  22
ATOM     22  C   UNL     1       3.893  -4.394  -0.914  0.00  0.00    +0.141 C 
ATOM     23  S   UNL     1       4.108  -5.675  -2.029  0.00  0.00    -0.018 S 
BRANCH  22  24
ATOM     24  N   UNL     1       2.722  -3.728  -0.870  0.00  0.00    -0.264 N 
ATOM     25  C   UNL     1       1.720  -4.071  -1.704  0.00  0.00    +0.250 C 
ATOM     26  O   UNL     1       1.873  -4.981  -2.496  0.00  0.00    -0.270 OA
ATOM     27  H   UNL     1       2.600  -3.002  -0.238  0.00  0.00    +0.157 HD
BRANCH  25  28
ATOM     28  C   UNL     1       0.438  -3.342  -1.656  0.00  0.00    +0.041 A 
ATOM     29  C   UNL     1       0.260  -2.296  -0.747  0.00  0.00    +0.017 A 
ATOM     30  C   UNL     1      -0.938  -1.618  -0.704  0.00  0.00    +0.050 A 
ATOM     31  C   UNL     1      -1.973  -1.970  -1.562  0.00  0.00    +0.162 A 
ATOM     32  C   UNL     1      -1.801  -3.010  -2.473  0.00  0.00    +0.163 A 
ATOM     33  C   UNL     1      -0.602  -3.696  -2.520  0.00  0.00    +0.062 A 
ATOM     34  O   UNL     1      -2.803  -3.361  -3.326  0.00  0.00    -0.485 OA
ATOM     35  C   UNL     1      -4.118  -2.900  -2.998  0.00  0.00    +0.270 C 
ATOM     36  C   UNL     1      -4.027  -1.415  -2.621  0.00  0.00    +0.270 C 
ATOM     37  O   UNL     1      -3.150  -1.292  -1.496  0.00  0.00    -0.485 OA
ENDBRANCH  25  28
ENDBRANCH  22  24
ENDBRANCH  20  22
ENDBRANCH   4  20
TORSDOF 6
