REMARK  Name = ZINC13237439
REMARK  8 active torsions:
REMARK  status: ('A' for Active; 'I' for Inactive)
REMARK    1  A    between atoms: C_3  and  C_6
REMARK    2  A    between atoms: C_6  and  N_7
REMARK    3  A    between atoms: C_11  and  C_13
REMARK    4  A    between atoms: C_13  and  S_14
REMARK    5  A    between atoms: S_14  and  C_15
REMARK    6  A    between atoms: C_18  and  C_23
REMARK    7  A    between atoms: N_19  and  C_20
REMARK    8  A    between atoms: C_20  and  C_21
REMARK                            x       y       z     vdW  Elec       q    Type
REMARK                         _______ _______ _______ _____ _____    ______ ____
ROOT
ATOM      1  S   UNL     1      -1.771   4.933  -0.108  0.00  0.00    -0.077 S 
ENDROOT
BRANCH   1   2
ATOM      2  C   UNL     1      -0.718   3.522  -0.032  0.00  0.00    +0.193 A 
ATOM      3  N   UNL     1       0.596   3.530  -0.040  0.00  0.00    -0.122 NA
ATOM      4  N   UNL     1       1.044   2.327   0.027  0.00  0.00    -0.128 NA
ATOM      5  C   UNL     1       0.044   1.478   0.082  0.00  0.00    +0.165 A 
ATOM      6  N   UNL     1      -1.115   2.218   0.040  0.00  0.00    -0.291 N 
BRANCH   5   7
ATOM      7  C   UNL     1       0.145   0.006   0.166  0.00  0.00    +0.019 A 
ATOM      8  C   UNL     1      -0.943  -0.746   0.612  0.00  0.00    +0.013 A 
ATOM      9  C   UNL     1      -0.844  -2.120   0.685  0.00  0.00    +0.021 A 
ATOM     10  C   UNL     1       0.334  -2.752   0.326  0.00  0.00    +0.041 A 
ATOM     11  C   UNL     1       1.419  -2.011  -0.112  0.00  0.00    +0.021 A 
ATOM     12  C   UNL     1       1.331  -0.637  -0.194  0.00  0.00    +0.013 A 
ATOM     13 CL   UNL     1       0.453  -4.481   0.426  0.00  0.00    -0.084 Cl
ENDBRANCH   5   7
BRANCH   6  14
ATOM     14  C   UNL     1      -2.490   1.711   0.070  0.00  0.00    +0.250 C 
BRANCH  14  15
ATOM     15  C   UNL     1      -2.971   1.649   1.497  0.00  0.00    +0.375 C 
ATOM     16  O   UNL     1      -2.241   1.993   2.396  0.00  0.00    -0.244 OA
ATOM     17  O   UNL     1      -4.211   1.212   1.768  0.00  0.00    -0.244 OA
ENDBRANCH  14  15
ENDBRANCH   6  14
ENDBRANCH   1   2
BRANCH   1  18
ATOM     18  C   UNL     1      -0.530   6.248  -0.191  0.00  0.00    +0.173 C 
BRANCH  18  23
ATOM     19  N   UNL     1      -0.379  11.045  -0.470  0.00  0.00    -0.294 N 
ATOM     20  C   UNL     1      -1.108   9.914  -0.400  0.00  0.00    +0.306 C 
ATOM     21  O   UNL     1      -2.322   9.972  -0.396  0.00  0.00    -0.252 OA
ATOM     22  N   UNL     1      -0.491   8.717  -0.334  0.00  0.00    -0.239 N 
ATOM     23  C   UNL     1      -1.220   7.586  -0.264  0.00  0.00    +0.231 C 
ATOM     24  O   UNL     1      -2.431   7.644  -0.261  0.00  0.00    -0.274 OA
ATOM     25  H   UNL     1       0.590  10.998  -0.472  0.00  0.00    +0.151 HD
ATOM     26  H   UNL     1       0.478   8.670  -0.337  0.00  0.00    +0.159 HD
BRANCH  19  27
ATOM     27  C   UNL     1      -1.049  12.345  -0.541  0.00  0.00    +0.148 C 
BRANCH  27  30
ATOM     28  C   UNL     1       1.498  15.002  -1.523  0.00  0.00    +0.008 A 
ATOM     29  C   UNL     1       0.567  13.996  -1.701  0.00  0.00    +0.013 A 
ATOM     30  C   UNL     1      -0.016  13.440  -0.610  0.00  0.00    +0.007 A 
ATOM     31  S   UNL     1       0.763  14.337   0.722  0.00  0.00    -0.100 S 
ATOM     32  C   UNL     1       1.808  15.396  -0.264  0.00  0.00    +0.045 A 
ENDBRANCH  27  30
ENDBRANCH  19  27
ENDBRANCH  18  23
ENDBRANCH   1  18
TORSDOF 8
