REMARK  Name = ZINC22930609
REMARK  6 active torsions:
REMARK  status: ('A' for Active; 'I' for Inactive)
REMARK    1  A    between atoms: C_1  and  C_2
REMARK    2  A    between atoms: C_2  and  C_4
REMARK    3  A    between atoms: C_2  and  N_15
REMARK    4  A    between atoms: N_6  and  C_7
REMARK    5  A    between atoms: N_18  and  C_21
REMARK    6  A    between atoms: C_21  and  C_22
REMARK                            x       y       z     vdW  Elec       q    Type
REMARK                         _______ _______ _______ _____ _____    ______ ____
ROOT
ATOM      1  N   UNL     1      -0.797   3.050   1.247  0.00  0.00    -0.295 NA
ATOM      2  C   UNL     1      -0.752   1.581   1.260  0.00  0.00    +0.066 C 
ATOM      3  C   UNL     1      -0.033   1.084   0.004  0.00  0.00    -0.063 C 
ATOM      4  N   UNL     1      -0.737   1.577  -1.188  0.00  0.00    +0.387 N 
ATOM      5  C   UNL     1      -0.782   3.045  -1.201  0.00  0.00    -0.063 C 
ATOM      6  C   UNL     1      -1.502   3.542   0.055  0.00  0.00    +0.066 C 
ATOM      7  H   UNL     1      -1.772   1.206  -1.149  0.00  0.00    -0.081 HD
ENDROOT
BRANCH   1   9
ATOM      8  C   UNL     1      -2.926   3.333   2.424  0.00  0.00    +0.034 C 
ATOM      9  C   UNL     1      -1.415   3.568   2.475  0.00  0.00    +0.140 C 
BRANCH   9  10
ATOM     10  C   UNL     1      -1.139   5.045   2.591  0.00  0.00    +0.234 C 
ATOM     11  O   UNL     1      -0.574   5.629   1.690  0.00  0.00    -0.274 OA
ATOM     12  N   UNL     1      -1.521   5.717   3.695  0.00  0.00    -0.283 N 
ATOM     13  H   UNL     1      -1.949   5.173   4.550  0.00  0.00    +0.155 HD
BRANCH  12  14
ATOM     14  C   UNL     1      -1.371   7.107   3.755  0.00  0.00    +0.053 A 
ATOM     15  C   UNL     1      -1.335   7.854   2.585  0.00  0.00    +0.044 A 
ATOM     16  C   UNL     1      -1.187   9.227   2.647  0.00  0.00    +0.043 A 
ATOM     17  C   UNL     1      -1.076   9.857   3.874  0.00  0.00    +0.021 A 
ATOM     18  C   UNL     1      -1.112   9.117   5.041  0.00  0.00    +0.023 A 
ATOM     19  C   UNL     1      -1.265   7.744   4.985  0.00  0.00    +0.062 A 
ATOM     20 CL   UNL     1      -1.317   6.816   6.451  0.00  0.00    -0.082 Cl
ATOM     21 CL   UNL     1      -1.142  10.161   1.185  0.00  0.00    -0.083 Cl
ENDBRANCH  12  14
ENDBRANCH   9  10
ENDBRANCH   1   9
BRANCH   4  22
ATOM     22  C   UNL     1      -0.119   1.058  -2.416  0.00  0.00    +0.019 C 
BRANCH  22  23
ATOM     23  C   UNL     1      -1.002   1.377  -3.596  0.00  0.00    +0.199 C 
ATOM     24  O   UNL     1      -2.043   1.976  -3.429  0.00  0.00    -0.278 OA
ATOM     25  N   UNL     1      -0.634   0.995  -4.835  0.00  0.00    -0.303 N 
ATOM     26  C   UNL     1       0.615   0.286  -5.000  0.00  0.00    +0.107 C 
ATOM     27  C   UNL     1       1.764   1.292  -5.223  0.00  0.00    +0.019 C 
ATOM     28  C   UNL     1       1.654   1.906  -6.555  0.00  0.00    +0.002 C 
ATOM     29  C   UNL     1       0.385   2.726  -6.766  0.00  0.00    +0.002 C 
ATOM     30  C   UNL     1      -0.735   1.812  -7.198  0.00  0.00    +0.019 C 
ATOM     31  C   UNL     1      -1.522   1.322  -5.968  0.00  0.00    +0.107 C 
ENDBRANCH  22  23
ENDBRANCH   4  22
TORSDOF 5
