REMARK  Name = ZINC23448777
REMARK  5 active torsions:
REMARK  status: ('A' for Active; 'I' for Inactive)
REMARK    1  A    between atoms: C_1  and  C_2
REMARK    2  A    between atoms: C_2  and  C_25
REMARK    3  A    between atoms: N_5  and  C_9
REMARK    4  A    between atoms: C_9  and  C_10
REMARK    5  A    between atoms: N_15  and  C_18
REMARK                            x       y       z     vdW  Elec       q    Type
REMARK                         _______ _______ _______ _____ _____    ______ ____
ROOT
ATOM      1  C   UNL     1      -0.015   1.521   0.019  0.00  0.00    +0.047 C 
ATOM      2  C   UNL     1      -0.005  -0.008  -0.007  0.00  0.00    +0.136 C 
ATOM      3  C   UNL     1       0.808  -0.517  -1.180  0.00  0.00    +0.251 C 
ATOM      4  O   UNL     1       0.595  -0.324  -2.358  0.00  0.00    -0.272 OA
ATOM      5  N   UNL     1       1.819  -1.228  -0.642  0.00  0.00    -0.215 N 
ATOM      6  C   UNL     1       1.757  -1.239   0.695  0.00  0.00    +0.310 C 
ATOM      7  O   UNL     1       2.559  -1.815   1.403  0.00  0.00    -0.252 OA
ATOM      8  N   UNL     1       0.708  -0.542   1.167  0.00  0.00    -0.281 N 
ATOM      9  H   UNL     1       0.468  -0.415   2.098  0.00  0.00    +0.152 HD
ENDROOT
BRANCH   2  10
ATOM     10  C   UNL     1      -1.412  -0.545  -0.061  0.00  0.00    +0.003 A 
ATOM     11  C   UNL     1      -1.884  -1.351   0.958  0.00  0.00    +0.009 A 
ATOM     12  C   UNL     1      -3.175  -1.844   0.909  0.00  0.00    +0.020 A 
ATOM     13  C   UNL     1      -3.995  -1.529  -0.160  0.00  0.00    +0.042 A 
ATOM     14  C   UNL     1      -3.524  -0.722  -1.179  0.00  0.00    +0.040 A 
ATOM     15  C   UNL     1      -2.234  -0.226  -1.127  0.00  0.00    +0.048 A 
ATOM     16 CL   UNL     1      -1.643   0.793  -2.403  0.00  0.00    -0.083 Cl
ATOM     17 CL   UNL     1      -5.616  -2.149  -0.222  0.00  0.00    -0.083 Cl
ENDBRANCH   2  10
BRANCH   5  18
ATOM     18  C   UNL     1       2.856  -1.906  -1.424  0.00  0.00    +0.213 C 
BRANCH  18  19
ATOM     19  C   UNL     1       4.013  -0.965  -1.646  0.00  0.00    +0.234 C 
ATOM     20  O   UNL     1       3.974   0.160  -1.195  0.00  0.00    -0.274 OA
ATOM     21  N   UNL     1       5.090  -1.375  -2.345  0.00  0.00    -0.297 N 
ATOM     22  C   UNL     1       5.147  -2.734  -2.902  0.00  0.00    +0.126 C 
ATOM     23  C   UNL     1       5.411  -2.635  -4.409  0.00  0.00    +0.124 C 
ATOM     24  N   UNL     1       6.548  -1.730  -4.629  0.00  0.00    -0.327 N 
ATOM     25  C   UNL     1       6.490  -0.372  -4.072  0.00  0.00    +0.124 C 
ATOM     26  C   UNL     1       6.225  -0.469  -2.569  0.00  0.00    +0.126 C 
BRANCH  24  27
ATOM     27  C   UNL     1       7.665  -2.155  -5.354  0.00  0.00    +0.030 A 
ATOM     28  C   UNL     1       8.682  -1.258  -5.654  0.00  0.00    +0.026 A 
ATOM     29  C   UNL     1       9.786  -1.681  -6.370  0.00  0.00    +0.040 A 
ATOM     30  C   UNL     1       9.878  -2.997  -6.789  0.00  0.00    +0.124 A 
ATOM     31  C   UNL     1       8.865  -3.893  -6.492  0.00  0.00    +0.040 A 
ATOM     32  C   UNL     1       7.762  -3.477  -5.771  0.00  0.00    +0.026 A 
ATOM     33  F   UNL     1      10.957  -3.408  -7.490  0.00  0.00    -0.205 F 
ENDBRANCH  24  27
ENDBRANCH  18  19
ENDBRANCH   5  18
TORSDOF 4
