REMARK  Name = ZINC35379174
REMARK  7 active torsions:
REMARK  status: ('A' for Active; 'I' for Inactive)
REMARK    1  A    between atoms: C_1  and  C_2
REMARK    2  A    between atoms: C_5  and  N_9
REMARK    3  A    between atoms: C_10  and  C_12
REMARK    4  A    between atoms: N_17  and  S_19
REMARK    5  A    between atoms: S_19  and  C_22
REMARK    6  A    between atoms: C_27  and  C_28
REMARK    7  A    between atoms: C_32  and  C_35
REMARK                            x       y       z     vdW  Elec       q    Type
REMARK                         _______ _______ _______ _____ _____    ______ ____
ROOT
ATOM      1  C   UNL     1       0.266  -6.434   0.894  0.00  0.00    +0.091 C 
ATOM      2  C   UNL     1      -0.959  -7.098   0.261  0.00  0.00    +0.015 C 
ATOM      3  C   UNL     1      -0.798  -8.619   0.307  0.00  0.00    +0.018 C 
ATOM      4  C   UNL     1      -0.701  -9.075   1.766  0.00  0.00    +0.109 C 
ATOM      5  N   UNL     1       0.384  -8.333   2.422  0.00  0.00    -0.176 NA
ATOM      6  C   UNL     1       0.376  -6.865   2.360  0.00  0.00    +0.122 C 
ENDROOT
BRANCH   1   8
ATOM      7  N   UNL     1       0.006  -4.329  -0.378  0.00  0.00    -0.285 N 
ATOM      8  C   UNL     1       0.121  -4.936   0.820  0.00  0.00    +0.222 C 
ATOM      9  O   UNL     1       0.108  -4.277   1.837  0.00  0.00    -0.275 OA
ATOM     10  H   UNL     1      -0.055  -4.860  -1.187  0.00  0.00    +0.155 HD
BRANCH   7  15
ATOM     11  C   UNL     1      -0.115   1.336  -0.684  0.00  0.00    +0.047 C 
ATOM     12  C   UNL     1      -0.083  -0.169  -0.603  0.00  0.00    -0.015 A 
ATOM     13  C   UNL     1       0.681  -0.792   0.366  0.00  0.00    +0.008 A 
ATOM     14  C   UNL     1       0.712  -2.170   0.443  0.00  0.00    +0.024 A 
ATOM     15  C   UNL     1      -0.025  -2.932  -0.454  0.00  0.00    +0.036 A 
ATOM     16  C   UNL     1      -0.792  -2.306  -1.427  0.00  0.00    +0.062 A 
ATOM     17  C   UNL     1      -0.824  -0.924  -1.496  0.00  0.00    +0.128 A 
ATOM     18  F   UNL     1      -1.574  -0.313  -2.439  0.00  0.00    -0.205 F 
ENDBRANCH   7  15
ENDBRANCH   1   8
BRANCH   5  19
ATOM     19  S   UNL     1       1.595  -9.137   3.217  0.00  0.00    +0.061 S 
ATOM     20  O   UNL     1       2.035  -8.278   4.260  0.00  0.00    -0.153 OA
ATOM     21  O   UNL     1       1.116 -10.452   3.463  0.00  0.00    -0.153 OA
BRANCH  19  22
ATOM     22  C   UNL     1       2.942  -9.293   2.092  0.00  0.00    +0.112 A 
ATOM     23  C   UNL     1       4.115  -8.596   2.320  0.00  0.00    +0.076 A 
ATOM     24  C   UNL     1       5.173  -8.720   1.437  0.00  0.00    +0.145 A 
ATOM     25  C   UNL     1       5.052  -9.546   0.320  0.00  0.00    +0.076 A 
ATOM     26  C   UNL     1       3.876 -10.241   0.098  0.00  0.00    +0.032 A 
ATOM     27  C   UNL     1       2.825 -10.117   0.988  0.00  0.00    -0.022 A 
ATOM     28  C   UNL     1       1.545 -10.877   0.750  0.00  0.00    +0.046 C 
ATOM     29  N   UNL     1       6.132  -9.660  -0.567  0.00  0.00    -0.280 N 
ATOM     30  C   UNL     1       7.352  -9.235  -0.173  0.00  0.00    +0.258 C 
ATOM     31  O   UNL     1       8.293  -9.295  -0.935  0.00  0.00    -0.271 OA
ATOM     32  C   UNL     1       7.538  -8.684   1.218  0.00  0.00    +0.256 C 
ATOM     33  O   UNL     1       6.333  -8.042   1.646  0.00  0.00    -0.478 OA
ATOM     34  C   UNL     1       7.874  -9.826   2.178  0.00  0.00    +0.062 C 
ATOM     35  H   UNL     1       6.005 -10.039  -1.451  0.00  0.00    +0.155 HD
ENDBRANCH  19  22
ENDBRANCH   5  19
TORSDOF 4
