REMARK  Name = ZINC05053616
REMARK  7 active torsions:
REMARK  status: ('A' for Active; 'I' for Inactive)
REMARK    1  A    between atoms: C_1  and  C_2
REMARK    2  A    between atoms: C_2  and  C_3
REMARK    3  A    between atoms: C_4  and  C_27
REMARK    4  A    between atoms: C_6  and  C_25
REMARK    5  A    between atoms: C_10  and  C_21
REMARK    6  A    between atoms: C_10  and  C_23
REMARK    7  A    between atoms: C_11  and  C_14
REMARK                            x       y       z     vdW  Elec       q    Type
REMARK                         _______ _______ _______ _____ _____    ______ ____
ROOT
ATOM      1  C   UNL     1       0.748  -0.510   1.256  0.00  0.00    +0.219 C 
ATOM      2  C   UNL     1       0.841  -2.062   1.296  0.00  0.00    +0.090 C 
ATOM      3  C   UNL     1       2.010  -2.188   2.318  0.00  0.00    +0.174 C 
ATOM      4  C   UNL     1       2.892  -1.010   1.915  0.00  0.00    +0.209 C 
ATOM      5  N   UNL     1       4.161  -0.913   2.126  0.00  0.00    -0.270 NA
ATOM      6  O   UNL     1       2.124  -0.086   1.300  0.00  0.00    -0.447 OA
ATOM      7  C   UNL     1       1.400  -1.825   3.689  0.00  0.00    +0.200 C 
ATOM      8  C   UNL     1       0.962  -0.357   3.644  0.00  0.00    +0.189 C 
ATOM      9  O   UNL     1       0.135  -0.100   2.493  0.00  0.00    -0.328 OA
ATOM     10  C   UNL     1      -0.448  -2.691   1.830  0.00  0.00    +0.016 C 
ATOM     11  H   UNL     1       4.643  -0.124   1.833  0.00  0.00    +0.190 HD
ENDROOT
BRANCH   8  12
ATOM     12  C   UNL     1       0.181  -0.032   4.891  0.00  0.00    -0.016 A 
ATOM     13  C   UNL     1      -1.149  -0.399   4.989  0.00  0.00    +0.007 A 
ATOM     14  C   UNL     1      -1.865  -0.101   6.133  0.00  0.00    +0.015 A 
ATOM     15  C   UNL     1      -1.252   0.563   7.180  0.00  0.00    +0.018 A 
ATOM     16  C   UNL     1       0.078   0.930   7.081  0.00  0.00    +0.015 A 
ATOM     17  C   UNL     1       0.796   0.627   5.939  0.00  0.00    +0.007 A 
ATOM     18 BR   UNL     1      -2.232   0.971   8.745  0.00  0.00    -0.050 Br
ENDBRANCH   8  12
BRANCH   1  20
ATOM     19  C   UNL     1      -0.011   1.541   0.048  0.00  0.00    +0.010 C 
ATOM     20  C   UNL     1       0.004   0.011   0.025  0.00  0.00    +0.076 C 
ENDBRANCH   1  20
BRANCH   7  21
ATOM     21  C   UNL     1       0.235  -2.683   3.957  0.00  0.00    +0.089 C 
ATOM     22  N   UNL     1      -0.664  -3.346   4.164  0.00  0.00    -0.195 NA
ENDBRANCH   7  21
BRANCH   7  23
ATOM     23  C   UNL     1       2.408  -2.009   4.746  0.00  0.00    +0.089 C 
ATOM     24  N   UNL     1       3.186  -2.152   5.562  0.00  0.00    -0.195 NA
ENDBRANCH   7  23
BRANCH   3  25
ATOM     25  C   UNL     1       2.698  -3.489   2.288  0.00  0.00    +0.082 C 
ATOM     26  N   UNL     1       3.228  -4.493   2.265  0.00  0.00    -0.195 NA
ENDBRANCH   3  25
TORSDOF 5
