REMARK  Name = ZINC04019528
REMARK  3 active torsions:
REMARK  status: ('A' for Active; 'I' for Inactive)
REMARK    1  A    between atoms: C_4  and  C_7
REMARK    2  A    between atoms: C_10  and  C_30
REMARK    3  A    between atoms: C_15  and  C_17
REMARK                            x       y       z     vdW  Elec       q    Type
REMARK                         _______ _______ _______ _____ _____    ______ ____
ROOT
ATOM      1  C   UNL     1       2.166   2.364  -7.153  0.00  0.00    +0.104 C 
ATOM      2  C   UNL     1       1.284   1.135  -6.916  0.00  0.00    +0.063 C 
ATOM      3  C   UNL     1       1.078   0.953  -5.405  0.00  0.00    +0.215 C 
ATOM      4  N   UNL     1       0.724   2.261  -4.840  0.00  0.00    -0.237 N 
ATOM      5  C   UNL     1       0.897   3.446  -5.490  0.00  0.00    +0.133 A 
ATOM      6  C   UNL     1       0.462   4.433  -4.670  0.00  0.00    +0.089 A 
ATOM      7  C   UNL     1       0.006   3.831  -3.477  0.00  0.00    +0.163 A 
ATOM      8  N   UNL     1       0.172   2.525  -3.586  0.00  0.00    -0.163 NA
ATOM      9 BR   UNL     1       0.465   6.285  -5.054  0.00  0.00    -0.044 Br
ATOM     10  N   UNL     1       1.432   3.580  -6.770  0.00  0.00    -0.321 N 
ATOM     11  H   UNL     1       2.025   4.394  -6.831  0.00  0.00    +0.148 HD
ENDROOT
BRANCH   7  12
ATOM     12  C   UNL     1      -0.553   4.539  -2.307  0.00  0.00    +0.268 C 
ATOM     13  O   UNL     1      -0.545   5.754  -2.271  0.00  0.00    -0.268 OA
ATOM     14  N   UNL     1      -1.073   3.838  -1.280  0.00  0.00    -0.299 N 
ATOM     15  C   UNL     1      -1.489   4.526  -0.052  0.00  0.00    +0.089 C 
ATOM     16  C   UNL     1      -2.885   4.037   0.372  0.00  0.00    -0.059 C 
ATOM     17  C   UNL     1      -4.053   1.907   0.910  0.00  0.00    -0.078 C 
ATOM     18  C   UNL     1      -4.105   0.532   0.203  0.00  0.00    -0.020 C 
ATOM     19  C   UNL     1      -2.911   0.546  -0.790  0.00  0.00    -0.016 C 
ATOM     20  C   UNL     1      -2.664   2.054  -0.978  0.00  0.00    -0.051 C 
ATOM     21  C   UNL     1      -1.227   2.373  -1.383  0.00  0.00    +0.093 C 
ATOM     22  N   UNL     1      -2.831   2.533   0.380  0.00  0.00    +0.384 N 
ATOM     23  H   UNL     1      -2.032   2.239   0.953  0.00  0.00    -0.081 HD
ENDBRANCH   7  12
BRANCH   1  27
ATOM     24  C   UNL     1       5.716   2.044  -4.800  0.00  0.00    +0.000 A 
ATOM     25  C   UNL     1       5.541   1.227  -5.902  0.00  0.00    +0.000 A 
ATOM     26  C   UNL     1       4.392   1.331  -6.663  0.00  0.00    +0.005 A 
ATOM     27  C   UNL     1       3.418   2.251  -6.323  0.00  0.00    -0.027 A 
ATOM     28  C   UNL     1       3.595   3.071  -5.224  0.00  0.00    +0.005 A 
ATOM     29  C   UNL     1       4.742   2.964  -4.460  0.00  0.00    +0.000 A 
ENDBRANCH   1  27
BRANCH   3  30
ATOM     30  C   UNL     1      -0.055  -0.044  -5.153  0.00  0.00    +0.412 C 
ATOM     31  F   UNL     1       0.273  -1.278  -5.727  0.00  0.00    -0.168 F 
ATOM     32  F   UNL     1      -0.237  -0.205  -3.775  0.00  0.00    -0.168 F 
ATOM     33  F   UNL     1      -1.237   0.437  -5.726  0.00  0.00    -0.168 F 
ENDBRANCH   3  30
TORSDOF 3
