REMARK  Name = ZINC64623200
REMARK  4 active torsions:
REMARK  status: ('A' for Active; 'I' for Inactive)
REMARK    1  A    between atoms: C_1  and  O_2
REMARK    2  A    between atoms: O_2  and  C_3
REMARK    3  A    between atoms: C_10  and  C_30
REMARK    4  A    between atoms: N_20  and  C_21
REMARK                            x       y       z     vdW  Elec       q    Type
REMARK                         _______ _______ _______ _____ _____    ______ ____
ROOT
ATOM      1  C   UNL     1       0.217  -2.195  -0.734  0.00  0.00    +0.121 A 
ATOM      2  C   UNL     1      -0.053  -1.261   0.281  0.00  0.00    +0.047 A 
ATOM      3  C   UNL     1       0.132  -1.538   1.590  0.00  0.00    +0.029 A 
ATOM      4  C   UNL     1       0.634  -2.855   1.993  0.00  0.00    +0.043 A 
ATOM      5  N   UNL     1       0.914  -3.362   3.171  0.00  0.00    -0.375 N 
ATOM      6  C   UNL     1       1.314  -4.756   2.992  0.00  0.00    +0.131 C 
ATOM      7  C   UNL     1       2.711  -5.027   3.562  0.00  0.00    +0.134 C 
ATOM      8  N   UNL     1       3.191  -6.298   2.995  0.00  0.00    -0.276 N 
ATOM      9  C   UNL     1       3.337  -6.461   1.545  0.00  0.00    +0.114 C 
ATOM     10  C   UNL     1       1.980  -6.207   0.864  0.00  0.00    +0.052 C 
ATOM     11  C   UNL     1       1.382  -4.967   1.488  0.00  0.00    -0.035 C 
ATOM     12  C   UNL     1       0.927  -3.840   0.922  0.00  0.00    +0.003 A 
ATOM     13  C   UNL     1       0.681  -3.439  -0.468  0.00  0.00    +0.055 A 
ATOM     14  C   UNL     1       3.498  -7.321   3.817  0.00  0.00    +0.307 C 
ATOM     15  O   UNL     1       3.331  -7.209   5.016  0.00  0.00    -0.252 OA
ATOM     16  N   UNL     1       3.991  -8.468   3.309  0.00  0.00    -0.269 N 
ATOM     17  H   UNL     1       4.122  -8.558   2.352  0.00  0.00    +0.156 HD
ATOM     18  H   UNL     1       0.865  -2.891   4.017  0.00  0.00    +0.160 HD
ENDROOT
BRANCH  16  19
ATOM     19  C   UNL     1       4.315  -9.531   4.164  0.00  0.00    +0.038 A 
ATOM     20  C   UNL     1       4.668  -9.278   5.482  0.00  0.00    +0.027 A 
ATOM     21  C   UNL     1       4.987 -10.325   6.326  0.00  0.00    +0.051 A 
ATOM     22  C   UNL     1       4.955 -11.629   5.859  0.00  0.00    +0.166 A 
ATOM     23  C   UNL     1       4.601 -11.885   4.537  0.00  0.00    +0.168 A 
ATOM     24  C   UNL     1       4.276 -10.836   3.693  0.00  0.00    +0.073 A 
ATOM     25  O   UNL     1       4.645 -13.233   4.327  0.00  0.00    -0.453 OA
ATOM     26  C   UNL     1       5.423 -13.767   5.415  0.00  0.00    +0.466 C 
ATOM     27  O   UNL     1       5.221 -12.817   6.478  0.00  0.00    -0.453 OA
ENDBRANCH  16  19
BRANCH   7  28
ATOM     28  C   UNL     1       3.646  -3.910   3.174  0.00  0.00    -0.025 A 
ATOM     29  C   UNL     1       3.764  -3.537   1.848  0.00  0.00    +0.008 A 
ATOM     30  C   UNL     1       4.621  -2.513   1.492  0.00  0.00    +0.038 A 
ATOM     31  C   UNL     1       5.360  -1.860   2.464  0.00  0.00    +0.123 A 
ATOM     32  C   UNL     1       5.240  -2.234   3.792  0.00  0.00    +0.038 A 
ATOM     33  C   UNL     1       4.379  -3.255   4.146  0.00  0.00    +0.008 A 
ATOM     34  F   UNL     1       6.197  -0.858   2.117  0.00  0.00    -0.205 F 
ENDBRANCH   7  28
BRANCH   1  36
ATOM     35  C   UNL     1      -0.489  -0.517  -2.263  0.00  0.00    +0.277 C 
ATOM     36  O   UNL     1       0.001  -1.839  -2.028  0.00  0.00    -0.495 OA
ENDBRANCH   1  36
TORSDOF 3
