REMARK  Name = ZINC39324957
REMARK  8 active torsions:
REMARK  status: ('A' for Active; 'I' for Inactive)
REMARK    1  A    between atoms: C_1  and  C_2
REMARK    2  A    between atoms: C_10  and  C_22
REMARK    3  A    between atoms: C_12  and  C_18
REMARK    4  A    between atoms: C_12  and  C_20
REMARK    5  A    between atoms: C_13  and  N_17
REMARK    6  A    between atoms: C_14  and  C_15
REMARK    7  A    between atoms: C_25  and  O_28
REMARK    8  A    between atoms: O_28  and  C_29
REMARK                            x       y       z     vdW  Elec       q    Type
REMARK                         _______ _______ _______ _____ _____    ______ ____
ROOT
ATOM      1  C   UNL     1       0.065   2.046   0.105  0.00  0.00    +0.008 C 
ATOM      2  C   UNL     1       0.107   0.540  -0.160  0.00  0.00    -0.010 C 
ATOM      3  C   UNL     1      -1.324  -0.006  -0.269  0.00  0.00    +0.030 C 
ATOM      4  C   UNL     1      -2.038   0.321   1.017  0.00  0.00    -0.021 C 
ATOM      5  C   UNL     1      -1.386   0.356   2.163  0.00  0.00    -0.029 C 
ATOM      6  C   UNL     1       0.071   0.030   2.306  0.00  0.00    +0.031 C 
ATOM      7  C   UNL     1       0.805  -0.167   1.000  0.00  0.00    +0.012 C 
ATOM      8  C   UNL     1       0.721   1.108   3.175  0.00  0.00    +0.066 C 
ATOM      9  C   UNL     1       0.096   1.060   4.570  0.00  0.00    +0.188 C 
ATOM     10  C   UNL     1      -1.401   1.075   4.509  0.00  0.00    +0.054 C 
ATOM     11  C   UNL     1      -2.111   0.740   3.403  0.00  0.00    +0.074 C 
ENDROOT
BRANCH   8  12
ATOM     12  C   UNL     1       2.203   0.852   3.274  0.00  0.00    -0.041 A 
ATOM     13  C   UNL     1       2.667  -0.430   3.506  0.00  0.00    +0.007 A 
ATOM     14  C   UNL     1       4.025  -0.667   3.597  0.00  0.00    +0.046 A 
ATOM     15  C   UNL     1       4.923   0.381   3.454  0.00  0.00    +0.120 A 
ATOM     16  C   UNL     1       4.454   1.666   3.221  0.00  0.00    +0.046 A 
ATOM     17  C   UNL     1       3.095   1.897   3.126  0.00  0.00    +0.007 A 
BRANCH  15  18
ATOM     18  O   UNL     1       6.259   0.150   3.544  0.00  0.00    -0.495 OA
ATOM     19  C   UNL     1       7.124   1.277   3.387  0.00  0.00    +0.277 C 
ENDBRANCH  15  18
ENDBRANCH   8  12
BRANCH  10  20
ATOM     20  N   UNL     1      -2.089   1.448   5.630  0.00  0.00    -0.358 N 
ATOM     21  H   UNL     1      -1.608   1.693   6.435  0.00  0.00    +0.142 HD
ATOM     22  H   UNL     1      -3.059   1.467   5.619  0.00  0.00    +0.142 HD
ENDBRANCH  10  20
BRANCH  11  23
ATOM     23  C   UNL     1      -3.543   0.756   3.429  0.00  0.00    +0.101 C 
ATOM     24  N   UNL     1      -4.679   0.768   3.450  0.00  0.00    -0.191 NA
ENDBRANCH  11  23
BRANCH   9  25
ATOM     25  C   UNL     1       0.536  -0.168   5.251  0.00  0.00    +0.091 C 
ATOM     26  N   UNL     1       0.876  -1.117   5.777  0.00  0.00    -0.194 NA
ENDBRANCH   9  25
BRANCH   9  27
ATOM     27  C   UNL     1       0.557   2.226   5.342  0.00  0.00    +0.091 C 
ATOM     28  N   UNL     1       0.912   3.125   5.938  0.00  0.00    -0.194 NA
ENDBRANCH   9  27
TORSDOF 6
