REMARK  Name = ZINC36582759
REMARK  19 active torsions:
REMARK  status: ('A' for Active; 'I' for Inactive)
REMARK    1  A    between atoms: C_1  and  C_2
REMARK    2  A    between atoms: C_2  and  C_3
REMARK    3  A    between atoms: C_3  and  C_4
REMARK    4  A    between atoms: C_4  and  C_5
REMARK    5  A    between atoms: C_5  and  C_7
REMARK    6  A    between atoms: C_5  and  C_9
REMARK    7  A    between atoms: C_7  and  C_8
REMARK    8  A    between atoms: N_11  and  C_12
REMARK    9  A    between atoms: N_11  and  C_30
REMARK   10  A    between atoms: C_12  and  C_14
REMARK   11  A    between atoms: C_12  and  C_23
REMARK   12  A    between atoms: C_17  and  N_20
REMARK   13  A    between atoms: N_25  and  C_26
REMARK   14  A    between atoms: C_26  and  C_27
REMARK   15  A    between atoms: C_27  and  C_28
REMARK   16  A    between atoms: C_28  and  C_29
REMARK   17  A    between atoms: C_30  and  C_31
REMARK   18  A    between atoms: C_30  and  C_32
REMARK   19  A    between atoms: C_30  and  C_33
REMARK                            x       y       z     vdW  Elec       q    Type
REMARK                         _______ _______ _______ _____ _____    ______ ____
ROOT
ATOM      1  C   UNL     1      -2.817  -6.113   0.527  0.00  0.00    +0.193 C 
ENDROOT
BRANCH   1   2
ATOM      2  C   UNL     1      -2.445  -6.304   1.975  0.00  0.00    -0.018 A 
ATOM      3  C   UNL     1      -1.867  -5.267   2.683  0.00  0.00    +0.008 A 
ATOM      4  C   UNL     1      -1.526  -5.442   4.011  0.00  0.00    +0.033 A 
ATOM      5  C   UNL     1      -1.763  -6.654   4.631  0.00  0.00    +0.126 A 
ATOM      6  C   UNL     1      -2.341  -7.692   3.924  0.00  0.00    +0.033 A 
ATOM      7  C   UNL     1      -2.686  -7.515   2.597  0.00  0.00    +0.008 A 
BRANCH   5   8
ATOM      8  N   UNL     1      -1.396  -6.842   6.053  0.00  0.00    +0.056 N 
ATOM      9  O   UNL     1      -0.890  -5.935   6.672  0.00  0.00    -0.126 OA
ATOM     10  O   UNL     1      -1.603  -7.903   6.596  0.00  0.00    -0.126 OA
ENDBRANCH   5   8
ENDBRANCH   1   2
BRANCH   1  11
ATOM     11  C   UNL     1      -1.878  -6.910  -0.342  0.00  0.00    +0.238 C 
ATOM     12  O   UNL     1      -1.223  -6.353  -1.197  0.00  0.00    -0.273 OA
ATOM     13  N   UNL     1      -1.767  -8.242  -0.169  0.00  0.00    -0.313 N 
ATOM     14  H   UNL     1      -2.292  -8.688   0.515  0.00  0.00    +0.149 HD
BRANCH  13  15
ATOM     15  C   UNL     1      -0.855  -9.017  -1.014  0.00  0.00    +0.104 C 
BRANCH  15  16
ATOM     16  C   UNL     1      -0.919 -10.493  -0.614  0.00  0.00    +0.018 C 
BRANCH  16  17
ATOM     17  C   UNL     1       0.034 -11.302  -1.497  0.00  0.00    -0.002 C 
ATOM     18  C   UNL     1      -0.030 -12.777  -1.097  0.00  0.00    +0.004 C 
ENDBRANCH  16  17
ENDBRANCH  15  16
ENDBRANCH  13  15
ENDBRANCH   1  11
BRANCH   1  21
ATOM     19  C   UNL     1      -1.514  -4.084   0.177  0.00  0.00    +0.220 C 
ATOM     20  O   UNL     1      -0.526  -4.690   0.534  0.00  0.00    -0.275 OA
ATOM     21  N   UNL     1      -2.716  -4.694   0.180  0.00  0.00    -0.281 N 
BRANCH  21  22
ATOM     22  C   UNL     1      -3.923  -3.936  -0.163  0.00  0.00    +0.030 C 
ATOM     23  C   UNL     1      -3.867  -3.530  -1.637  0.00  0.00    +0.031 C 
ATOM     24  C   UNL     1      -5.157  -4.806   0.080  0.00  0.00    +0.031 C 
ATOM     25  C   UNL     1      -4.003  -2.682   0.709  0.00  0.00    +0.031 C 
ENDBRANCH  21  22
BRANCH  19  26
ATOM     26  C   UNL     1      -1.398  -2.649  -0.269  0.00  0.00    +0.075 C 
BRANCH  26  27
ATOM     27  C   UNL     1      -0.315  -2.535  -1.343  0.00  0.00    +0.009 C 
ATOM     28  C   UNL     1      -0.749  -3.309  -2.590  0.00  0.00    +0.004 C 
ENDBRANCH  26  27
BRANCH  26  29
ATOM     29  C   UNL     1      -1.025  -1.771   0.927  0.00  0.00    +0.013 C 
BRANCH  29  30
ATOM     30  C   UNL     1      -1.029  -0.302   0.502  0.00  0.00    +0.000 C 
BRANCH  30  32
ATOM     31  C   UNL     1      -0.660   2.046   1.273  0.00  0.00    +0.004 C 
ATOM     32  C   UNL     1      -0.656   0.576   1.698  0.00  0.00    -0.003 C 
ENDBRANCH  30  32
ENDBRANCH  29  30
ENDBRANCH  26  29
ENDBRANCH  19  26
ENDBRANCH   1  21
TORSDOF 13
