REMARK  Name = ZINC09312608
REMARK  6 active torsions:
REMARK  status: ('A' for Active; 'I' for Inactive)
REMARK    1  A    between atoms: C_1  and  N_2
REMARK    2  A    between atoms: N_7  and  N_8
REMARK    3  A    between atoms: N_8  and  C_9
REMARK    4  A    between atoms: N_15  and  C_18
REMARK    5  A    between atoms: N_26  and  C_33
REMARK    6  A    between atoms: N_29  and  C_32
REMARK                            x       y       z     vdW  Elec       q    Type
REMARK                         _______ _______ _______ _____ _____    ______ ____
ROOT
ATOM      1  N   UNL     1      -0.007  -1.338   3.436  0.00  0.00    -0.271 N 
ATOM      2  H   UNL     1      -0.194  -2.267   3.230  0.00  0.00    +0.169 HD
ENDROOT
BRANCH   1   9
ATOM      3  C   UNL     1       0.589   1.403   0.010  0.00  0.00    +0.152 C 
ATOM      4  N   UNL     1       0.297  -0.033   0.002  0.00  0.00    -0.308 N 
ATOM      5  C   UNL     1       0.150  -0.842  -1.117  0.00  0.00    +0.153 A 
ATOM      6  C   UNL     1      -0.117  -2.122  -0.642  0.00  0.00    +0.170 A 
ATOM      7  N   UNL     1      -0.127  -2.062   0.691  0.00  0.00    -0.195 NA
ATOM      8  C   UNL     1       0.122  -0.831   1.088  0.00  0.00    +0.214 A 
ATOM      9  N   UNL     1       0.192  -0.417   2.399  0.00  0.00    -0.236 N 
ATOM     10  N   UNL     1      -0.310  -3.146  -1.555  0.00  0.00    -0.280 N 
ATOM     11  C   UNL     1      -0.237  -2.894  -2.875  0.00  0.00    +0.333 A 
ATOM     12  O   UNL     1      -0.410  -3.805  -3.663  0.00  0.00    -0.246 OA
ATOM     13  N   UNL     1       0.021  -1.662  -3.345  0.00  0.00    -0.262 N 
ATOM     14  C   UNL     1       0.218  -0.625  -2.504  0.00  0.00    +0.282 A 
ATOM     15  O   UNL     1       0.451   0.488  -2.943  0.00  0.00    -0.265 OA
ATOM     16  C   UNL     1       0.090  -1.440  -4.791  0.00  0.00    +0.157 C 
ATOM     17  C   UNL     1      -0.594  -4.503  -1.083  0.00  0.00    +0.155 C 
ATOM     18  H   UNL     1       0.378   0.512   2.604  0.00  0.00    +0.173 HD
ENDBRANCH   1   9
BRANCH   1  19
ATOM     19  C   UNL     1       0.061  -0.932   4.719  0.00  0.00    +0.106 C 
ATOM     20  C   UNL     1      -0.021  -1.859   5.743  0.00  0.00    +0.116 C 
ATOM     21  C   UNL     1      -0.132  -1.442   7.155  0.00  0.00    +0.278 C 
ATOM     22  N   UNL     1      -0.208  -2.395   8.098  0.00  0.00    -0.123 NA
ATOM     23  C   UNL     1      -0.186  -3.670   7.799  0.00  0.00    +0.340 C 
ATOM     24  O   UNL     1      -0.267  -4.561   8.806  0.00  0.00    -0.250 OA
ATOM     25  N   UNL     1      -0.086  -4.145   6.529  0.00  0.00    -0.187 N 
ATOM     26  C   UNL     1      -0.007  -3.306   5.473  0.00  0.00    +0.265 C 
ATOM     27  O   UNL     1       0.077  -3.733   4.336  0.00  0.00    -0.269 OA
ATOM     28  O   UNL     1      -0.154  -0.261   7.458  0.00  0.00    -0.268 OA
BRANCH  25  29
ATOM     29  C   UNL     1      -0.070  -5.529   6.310  0.00  0.00    +0.064 A 
ATOM     30  C   UNL     1      -1.260  -6.214   6.101  0.00  0.00    +0.025 A 
ATOM     31  C   UNL     1      -1.241  -7.578   5.886  0.00  0.00    +0.002 A 
ATOM     32  C   UNL     1      -0.040  -8.263   5.878  0.00  0.00    +0.002 A 
ATOM     33  C   UNL     1       1.147  -7.585   6.086  0.00  0.00    +0.022 A 
ATOM     34  C   UNL     1       1.136  -6.218   6.296  0.00  0.00    +0.063 A 
ATOM     35 CL   UNL     1       2.627  -5.366   6.550  0.00  0.00    -0.082 Cl
ENDBRANCH  25  29
ENDBRANCH   1  19
TORSDOF 3
