REMARK  Name = ZINC40682858
REMARK  5 active torsions:
REMARK  status: ('A' for Active; 'I' for Inactive)
REMARK    1  A    between atoms: C_4  and  N_11
REMARK    2  A    between atoms: C_6  and  C_7
REMARK    3  A    between atoms: C_13  and  N_27
REMARK    4  A    between atoms: C_14  and  N_18
REMARK    5  A    between atoms: C_21  and  C_24
REMARK                            x       y       z     vdW  Elec       q    Type
REMARK                         _______ _______ _______ _____ _____    ______ ____
ROOT
ATOM      1  N   UNL     1       3.621  -0.652  -0.039  0.00  0.00    -0.297 N 
ATOM      2  C   UNL     1       3.644  -2.039   0.059  0.00  0.00    +0.149 A 
ATOM      3  C   UNL     1       4.857  -2.723   0.155  0.00  0.00    +0.106 A 
ATOM      4  C   UNL     1       4.824  -4.115   0.252  0.00  0.00    +0.147 A 
ATOM      5  N   UNL     1       3.645  -4.733   0.249  0.00  0.00    -0.219 NA
ATOM      6  C   UNL     1       2.522  -4.049   0.157  0.00  0.00    +0.225 A 
ATOM      7  N   UNL     1       2.510  -2.735   0.069  0.00  0.00    -0.219 NA
ATOM      8  H   UNL     1       4.451  -0.159  -0.129  0.00  0.00    +0.154 HD
ENDROOT
BRANCH   1  12
ATOM      9  C   UNL     1      -0.013   1.381   0.052  0.00  0.00    +0.014 A 
ATOM     10  C   UNL     1       1.083   1.957  -0.565  0.00  0.00    +0.022 A 
ATOM     11  C   UNL     1       2.290   1.285  -0.597  0.00  0.00    +0.062 A 
ATOM     12  C   UNL     1       2.401   0.031  -0.008  0.00  0.00    +0.052 A 
ATOM     13  C   UNL     1       1.298  -0.543   0.610  0.00  0.00    +0.037 A 
ATOM     14  C   UNL     1       0.094   0.134   0.638  0.00  0.00    +0.057 A 
ATOM     15 CL   UNL     1       3.666   2.007  -1.371  0.00  0.00    -0.082 Cl
BRANCH  14  16
ATOM     16  C   UNL     1      -1.104  -0.488   1.308  0.00  0.00    +0.417 C 
ATOM     17  F   UNL     1      -2.197   0.379   1.208  0.00  0.00    -0.166 F 
ATOM     18  F   UNL     1      -1.411  -1.701   0.681  0.00  0.00    -0.166 F 
ATOM     19  F   UNL     1      -0.815  -0.721   2.657  0.00  0.00    -0.166 F 
ENDBRANCH  14  16
ENDBRANCH   1  12
BRANCH   4  20
ATOM     20  N   UNL     1       6.003  -4.845   0.349  0.00  0.00    -0.314 N 
ATOM     21  C   UNL     1       6.644  -5.061   1.653  0.00  0.00    +0.107 C 
ATOM     22  C   UNL     1       6.866  -6.564   1.849  0.00  0.00    +0.034 C 
ATOM     23  C   UNL     1       7.656  -7.118   0.661  0.00  0.00    +0.105 C 
ATOM     24  C   UNL     1       6.855  -6.913  -0.626  0.00  0.00    +0.034 C 
ATOM     25  C   UNL     1       6.628  -5.419  -0.850  0.00  0.00    +0.107 C 
BRANCH  23  26
ATOM     26  C   UNL     1       7.907  -8.590   0.867  0.00  0.00    +0.359 C 
ATOM     27  O   UNL     1       8.002  -9.332  -0.095  0.00  0.00    -0.246 OA
ATOM     28  O   UNL     1       8.014  -9.037   1.996  0.00  0.00    -0.246 OA
ENDBRANCH  23  26
ENDBRANCH   4  20
BRANCH   3  29
ATOM     29  N   UNL     1       6.079  -2.029   0.153  0.00  0.00    -0.353 N 
ATOM     30  H   UNL     1       6.085  -1.059   0.159  0.00  0.00    +0.143 HD
ATOM     31  H   UNL     1       6.915  -2.520   0.147  0.00  0.00    +0.143 HD
ENDBRANCH   3  29
TORSDOF 5
