REMARK  Name = ZINC59098624
REMARK  13 active torsions:
REMARK  status: ('A' for Active; 'I' for Inactive)
REMARK    1  A    between atoms: C_1  and  C_2
REMARK    2  A    between atoms: C_5  and  N_8
REMARK    3  A    between atoms: N_8  and  C_9
REMARK    4  A    between atoms: C_9  and  N_11
REMARK    5  A    between atoms: N_11  and  C_12
REMARK    6  A    between atoms: N_11  and  C_22
REMARK    7  A    between atoms: C_12  and  C_13
REMARK    8  A    between atoms: C_16  and  C_19
REMARK    9  A    between atoms: C_19  and  C_20
REMARK   10  A    between atoms: C_19  and  C_21
REMARK   11  A    between atoms: C_22  and  C_23
REMARK   12  A    between atoms: C_26  and  O_29
REMARK   13  A    between atoms: O_29  and  C_30
REMARK                            x       y       z     vdW  Elec       q    Type
REMARK                         _______ _______ _______ _____ _____    ______ ____
ROOT
ATOM      1  N   UNL     1       0.294  -6.191   1.123  0.00  0.00    -0.304 N 
ENDROOT
BRANCH   1   2
ATOM      2  C   UNL     1       0.174  -4.848   1.138  0.00  0.00    +0.138 C 
ATOM      3  S   UNL     1       0.171  -4.005   2.628  0.00  0.00    -0.018 S 
BRANCH   2   4
ATOM      4  N   UNL     1       0.058  -4.169  -0.021  0.00  0.00    -0.297 N 
ATOM      5  H   UNL     1      -0.021  -4.651  -0.859  0.00  0.00    +0.154 HD
BRANCH   4  10
ATOM      6  C   UNL     1       0.029   1.503   0.007  0.00  0.00    +0.044 C 
ATOM      7  C   UNL     1       0.037  -0.004  -0.001  0.00  0.00    -0.050 A 
ATOM      8  C   UNL     1      -0.843  -0.694  -0.814  0.00  0.00    +0.005 A 
ATOM      9  C   UNL     1      -0.838  -2.075  -0.823  0.00  0.00    +0.023 A 
ATOM     10  C   UNL     1       0.051  -2.771  -0.014  0.00  0.00    +0.033 A 
ATOM     11  C   UNL     1       0.934  -2.074   0.801  0.00  0.00    +0.023 A 
ATOM     12  C   UNL     1       0.928  -0.693   0.802  0.00  0.00    +0.005 A 
ENDBRANCH   4  10
ENDBRANCH   2   4
ENDBRANCH   1   2
BRANCH   1  13
ATOM     13  C   UNL     1       0.420  -6.928   2.382  0.00  0.00    +0.142 C 
BRANCH  13  14
ATOM     14  C   UNL     1      -0.950  -7.308   2.882  0.00  0.00    -0.030 A 
ATOM     15  C   UNL     1      -1.643  -6.450   3.716  0.00  0.00    +0.005 A 
ATOM     16  C   UNL     1      -2.900  -6.798   4.174  0.00  0.00    +0.004 A 
ATOM     17  C   UNL     1      -3.464  -8.004   3.799  0.00  0.00    -0.045 A 
ATOM     18  C   UNL     1      -2.771  -8.860   2.964  0.00  0.00    +0.004 A 
ATOM     19  C   UNL     1      -1.516  -8.511   2.502  0.00  0.00    +0.005 A 
BRANCH  17  20
ATOM     20  C   UNL     1      -4.833  -8.383   4.299  0.00  0.00    +0.013 C 
ATOM     21  C   UNL     1      -5.774  -8.581   3.110  0.00  0.00    +0.012 C 
ATOM     22  C   UNL     1      -4.742  -9.684   5.099  0.00  0.00    +0.012 C 
ENDBRANCH  17  20
ENDBRANCH  13  14
ENDBRANCH   1  13
BRANCH   1  23
ATOM     23  C   UNL     1       0.297  -6.912  -0.152  0.00  0.00    +0.142 C 
BRANCH  23  24
ATOM     24  C   UNL     1       1.712  -7.033  -0.657  0.00  0.00    -0.030 A 
ATOM     25  C   UNL     1       2.240  -6.048  -1.471  0.00  0.00    +0.009 A 
ATOM     26  C   UNL     1       3.537  -6.157  -1.936  0.00  0.00    +0.046 A 
ATOM     27  C   UNL     1       4.308  -7.255  -1.585  0.00  0.00    +0.120 A 
ATOM     28  C   UNL     1       3.776  -8.242  -0.768  0.00  0.00    +0.046 A 
ATOM     29  C   UNL     1       2.480  -8.126  -0.302  0.00  0.00    +0.009 A 
BRANCH  27  30
ATOM     30  O   UNL     1       5.584  -7.365  -2.042  0.00  0.00    -0.495 OA
ATOM     31  C   UNL     1       6.319  -8.522  -1.640  0.00  0.00    +0.277 C 
ENDBRANCH  27  30
ENDBRANCH  23  24
ENDBRANCH   1  23
TORSDOF 9
