REMARK  Name = ZINC02618296
REMARK  7 active torsions:
REMARK  status: ('A' for Active; 'I' for Inactive)
REMARK    1  A    between atoms: C_1  and  C_2
REMARK    2  A    between atoms: C_3  and  N_9
REMARK    3  A    between atoms: C_10  and  C_24
REMARK    4  A    between atoms: C_13  and  S_14
REMARK    5  A    between atoms: S_14  and  C_15
REMARK    6  A    between atoms: C_15  and  C_17
REMARK    7  A    between atoms: C_15  and  C_18
REMARK                            x       y       z     vdW  Elec       q    Type
REMARK                         _______ _______ _______ _____ _____    ______ ____
ROOT
ATOM      1  N   UNL     1       3.624  -0.650  -0.036  0.00  0.00    -0.270 N 
ATOM      2  C   UNL     1       4.363  -1.062   1.052  0.00  0.00    +0.169 A 
ATOM      3  N   UNL     1       5.435  -1.660   0.586  0.00  0.00    -0.128 NA
ATOM      4  N   UNL     1       5.420  -1.651  -0.699  0.00  0.00    -0.122 NA
ATOM      5  C   UNL     1       4.333  -1.052  -1.135  0.00  0.00    +0.197 A 
ENDROOT
BRANCH   1   8
ATOM      6  C   UNL     1       1.228  -2.186  -0.022  0.00  0.00    +0.047 C 
ATOM      7  C   UNL     1       1.208  -0.680  -0.013  0.00  0.00    -0.008 A 
ATOM      8  C   UNL     1       2.400   0.032  -0.021  0.00  0.00    +0.055 A 
ATOM      9  C   UNL     1       2.377   1.420  -0.013  0.00  0.00    +0.026 A 
ATOM     10  C   UNL     1       1.169   2.090   0.002  0.00  0.00    +0.003 A 
ATOM     11  C   UNL     1      -0.017   1.380   0.010  0.00  0.00    +0.020 A 
ATOM     12  C   UNL     1       0.002  -0.004   0.002  0.00  0.00    +0.046 A 
ATOM     13 CL   UNL     1      -1.490  -0.892   0.011  0.00  0.00    -0.083 Cl
ENDBRANCH   1   8
BRANCH   2  14
ATOM     14  C   UNL     1       4.014  -0.867   2.474  0.00  0.00    +0.022 A 
ATOM     15  C   UNL     1       3.024   0.048   2.854  0.00  0.00    +0.031 A 
ATOM     16  C   UNL     1       2.727   0.193   4.193  0.00  0.00    +0.111 A 
ATOM     17  N   UNL     1       3.369  -0.507   5.109  0.00  0.00    -0.263 NA
ATOM     18  C   UNL     1       4.312  -1.375   4.796  0.00  0.00    +0.111 A 
ATOM     19  C   UNL     1       4.669  -1.588   3.481  0.00  0.00    +0.031 A 
ENDBRANCH   2  14
BRANCH   5  20
ATOM     20  S   UNL     1       3.877  -0.808  -2.819  0.00  0.00    -0.073 S 
BRANCH  20  21
ATOM     21  C   UNL     1       5.283  -1.596  -3.642  0.00  0.00    +0.137 C 
ATOM     22  C   UNL     1       5.287  -3.093  -3.324  0.00  0.00    +0.029 C 
BRANCH  21  23
ATOM     23  C   UNL     1       5.168  -1.400  -5.132  0.00  0.00    +0.233 C 
ATOM     24  O   UNL     1       4.095  -1.125  -5.626  0.00  0.00    -0.274 OA
ATOM     25  N   UNL     1       6.257  -1.529  -5.915  0.00  0.00    -0.239 N 
ATOM     26  C   UNL     1       6.154  -1.353  -7.247  0.00  0.00    +0.303 C 
ATOM     27  O   UNL     1       5.079  -1.078  -7.743  0.00  0.00    -0.253 OA
ATOM     28  N   UNL     1       7.243  -1.482  -8.031  0.00  0.00    -0.313 N 
ATOM     29  H   UNL     1       7.115  -1.748  -5.520  0.00  0.00    +0.159 HD
ATOM     30  H   UNL     1       8.101  -1.702  -7.635  0.00  0.00    +0.146 HD
ATOM     31  H   UNL     1       7.169  -1.355  -8.989  0.00  0.00    +0.146 HD
ENDBRANCH  21  23
ENDBRANCH  20  21
ENDBRANCH   5  20
TORSDOF 5
