REMARK  Name = ZINC33253273
REMARK  12 active torsions:
REMARK  status: ('A' for Active; 'I' for Inactive)
REMARK    1  A    between atoms: C_1  and  C_2
REMARK    2  A    between atoms: C_2  and  C_3
REMARK    3  A    between atoms: C_3  and  N_4
REMARK    4  A    between atoms: C_5  and  C_7
REMARK    5  A    between atoms: C_7  and  N_8
REMARK    6  A    between atoms: N_11  and  C_14
REMARK    7  A    between atoms: C_17  and  C_32
REMARK    8  A    between atoms: C_19  and  N_20
REMARK    9  A    between atoms: N_20  and  S_21
REMARK   10  A    between atoms: S_21  and  C_24
REMARK   11  A    between atoms: C_26  and  C_31
REMARK   12  A    between atoms: C_29  and  C_30
REMARK                            x       y       z     vdW  Elec       q    Type
REMARK                         _______ _______ _______ _____ _____    ______ ____
ROOT
ATOM      1  C   UNL     1      -6.739  -6.914  -0.987  0.00  0.00    +0.052 A 
ATOM      2  C   UNL     1      -5.995  -7.623  -1.923  0.00  0.00    +0.026 A 
ATOM      3  C   UNL     1      -6.599  -8.585  -2.701  0.00  0.00    +0.017 A 
ATOM      4  C   UNL     1      -7.964  -8.852  -2.552  0.00  0.00    +0.065 A 
ATOM      5  C   UNL     1      -8.715  -8.139  -1.610  0.00  0.00    +0.041 A 
ATOM      6  C   UNL     1      -8.103  -7.179  -0.828  0.00  0.00    +0.070 A 
ENDROOT
BRANCH   1  10
ATOM      7  N   UNL     1      -4.111  -4.305   0.812  0.00  0.00    -0.291 NA
ATOM      8  C   UNL     1      -4.610  -4.063  -0.547  0.00  0.00    +0.104 C 
ATOM      9  C   UNL     1      -6.063  -4.541  -0.647  0.00  0.00    +0.120 C 
ATOM     10  N   UNL     1      -6.125  -5.942  -0.203  0.00  0.00    -0.326 N 
ATOM     11  C   UNL     1      -5.520  -6.288   1.093  0.00  0.00    +0.120 C 
ATOM     12  C   UNL     1      -4.089  -5.741   1.124  0.00  0.00    +0.104 C 
BRANCH   7  13
ATOM     13  C   UNL     1      -2.782  -3.706   1.000  0.00  0.00    +0.180 C 
BRANCH  13  15
ATOM     14  N   UNL     1      -1.791  -1.441   1.055  0.00  0.00    -0.314 N 
ATOM     15  C   UNL     1      -2.891  -2.206   0.913  0.00  0.00    +0.227 C 
ATOM     16  O   UNL     1      -3.969  -1.687   0.714  0.00  0.00    -0.274 OA
ATOM     17  H   UNL     1      -0.929  -1.856   1.214  0.00  0.00    +0.149 HD
BRANCH  14  18
ATOM     18  C   UNL     1      -1.897   0.018   0.971  0.00  0.00    +0.104 C 
BRANCH  18  20
ATOM     19  C   UNL     1      -0.624   2.166   1.077  0.00  0.00    +0.005 C 
ATOM     20  C   UNL     1      -0.514   0.642   1.166  0.00  0.00    +0.015 C 
ENDBRANCH  18  20
ENDBRANCH  14  18
ENDBRANCH  13  15
ENDBRANCH   7  13
ENDBRANCH   1  10
BRANCH   4  21
ATOM     21  C   UNL     1      -8.610  -9.880  -3.384  0.00  0.00    +0.387 C 
ATOM     22  O   UNL     1      -7.952 -10.502  -4.207  0.00  0.00    -0.241 OA
ATOM     23  O   UNL     1      -9.804 -10.112  -3.252  0.00  0.00    -0.241 OA
ENDBRANCH   4  21
BRANCH   6  24
ATOM     24  N   UNL     1      -8.849  -6.467   0.120  0.00  0.00    -0.214 N 
ATOM     25  H   UNL     1      -8.649  -5.534   0.294  0.00  0.00    +0.174 HD
BRANCH  24  26
ATOM     26  S   UNL     1     -10.074  -7.219   0.944  0.00  0.00    +0.073 S 
ATOM     27  O   UNL     1     -10.536  -6.293   1.917  0.00  0.00    -0.150 OA
ATOM     28  O   UNL     1     -10.932  -7.788  -0.035  0.00  0.00    -0.150 OA
BRANCH  26  29
ATOM     29  C   UNL     1      -9.358  -8.564   1.828  0.00  0.00    +0.112 A 
ATOM     30  C   UNL     1      -9.691  -9.864   1.498  0.00  0.00    +0.032 A 
ATOM     31  C   UNL     1      -9.130 -10.919   2.191  0.00  0.00    -0.049 A 
ATOM     32  C   UNL     1      -8.234 -10.675   3.216  0.00  0.00    +0.004 A 
ATOM     33  C   UNL     1      -7.900  -9.375   3.546  0.00  0.00    +0.005 A 
ATOM     34  C   UNL     1      -8.459  -8.319   2.849  0.00  0.00    -0.024 A 
ATOM     35  C   UNL     1      -8.090  -6.902   3.205  0.00  0.00    +0.046 C 
ATOM     36  C   UNL     1      -9.494 -12.337   1.832  0.00  0.00    +0.044 C 
ENDBRANCH  26  29
ENDBRANCH  24  26
ENDBRANCH   6  24
TORSDOF 9
