REMARK  Name = ZINC03012275
REMARK  4 active torsions:
REMARK  status: ('A' for Active; 'I' for Inactive)
REMARK    1  A    between atoms: C_5  and  N_7
REMARK    2  A    between atoms: C_8  and  C_10
REMARK    3  A    between atoms: C_15  and  C_30
REMARK    4  A    between atoms: C_18  and  C_21
REMARK                            x       y       z     vdW  Elec       q    Type
REMARK                         _______ _______ _______ _____ _____    ______ ____
ROOT
ATOM      1  C   UNL     1       0.118  -4.246   0.189  0.00  0.00    +0.149 A 
ATOM      2  C   UNL     1      -1.007  -5.094   0.303  0.00  0.00    +0.078 A 
ATOM      3  C   UNL     1      -0.556  -6.362   0.371  0.00  0.00    +0.119 A 
ATOM      4  N   UNL     1       0.808  -6.332   0.302  0.00  0.00    -0.238 N 
ATOM      5  N   UNL     1       1.203  -5.000   0.185  0.00  0.00    -0.164 NA
ATOM      6  C   UNL     1       1.651  -7.531   0.342  0.00  0.00    +0.215 C 
ATOM      7  C   UNL     1       0.794  -8.751  -0.014  0.00  0.00    +0.063 C 
ATOM      8  C   UNL     1      -0.485  -8.755   0.830  0.00  0.00    +0.104 C 
ATOM      9  N   UNL     1      -1.274  -7.554   0.493  0.00  0.00    -0.322 N 
ATOM     10  H   UNL     1      -2.235  -7.591   0.363  0.00  0.00    +0.148 HD
ENDROOT
BRANCH   8  11
ATOM     11  C   UNL     1      -0.126  -8.735   2.293  0.00  0.00    -0.024 A 
ATOM     12  C   UNL     1       0.223  -7.544   2.902  0.00  0.00    +0.009 A 
ATOM     13  C   UNL     1       0.553  -7.520   4.244  0.00  0.00    +0.050 A 
ATOM     14  C   UNL     1       0.535  -8.692   4.983  0.00  0.00    +0.166 A 
ATOM     15  C   UNL     1       0.184  -9.892   4.370  0.00  0.00    +0.167 A 
ATOM     16  C   UNL     1      -0.151  -9.908   3.026  0.00  0.00    +0.055 A 
ATOM     17  O   UNL     1       0.243 -10.890   5.299  0.00  0.00    -0.453 OA
ATOM     18  C   UNL     1       1.026 -10.359   6.385  0.00  0.00    +0.466 C 
ATOM     19  O   UNL     1       0.813  -8.938   6.296  0.00  0.00    -0.453 OA
ENDBRANCH   8  11
BRANCH   1  21
ATOM     20  N   UNL     1       1.237  -2.079  -0.022  0.00  0.00    -0.279 N 
ATOM     21  C   UNL     1       0.086  -2.772   0.087  0.00  0.00    +0.268 C 
ATOM     22  O   UNL     1      -0.978  -2.185   0.102  0.00  0.00    -0.268 OA
ATOM     23  H   UNL     1       2.080  -2.551  -0.115  0.00  0.00    +0.155 HD
BRANCH  20  28
ATOM     24  C   UNL     1       0.153   1.372   0.637  0.00  0.00    +0.002 A 
ATOM     25  C   UNL     1       1.173   2.086   0.035  0.00  0.00    +0.002 A 
ATOM     26  C   UNL     1       2.214   1.422  -0.586  0.00  0.00    +0.022 A 
ATOM     27  C   UNL     1       2.239   0.040  -0.607  0.00  0.00    +0.062 A 
ATOM     28  C   UNL     1       1.216  -0.681  -0.003  0.00  0.00    +0.052 A 
ATOM     29  C   UNL     1       0.172  -0.009   0.620  0.00  0.00    +0.025 A 
ATOM     30 CL   UNL     1       3.546  -0.794  -1.388  0.00  0.00    -0.082 Cl
ENDBRANCH  20  28
ENDBRANCH   1  21
BRANCH   6  31
ATOM     31  C   UNL     1       2.791  -7.390  -0.668  0.00  0.00    +0.412 C 
ATOM     32  F   UNL     1       3.563  -6.268  -0.346  0.00  0.00    -0.168 F 
ATOM     33  F   UNL     1       3.594  -8.535  -0.628  0.00  0.00    -0.168 F 
ATOM     34  F   UNL     1       2.260  -7.237  -1.953  0.00  0.00    -0.168 F 
ENDBRANCH   6  31
TORSDOF 4
