REMARK  Name = ZINC39007175
REMARK  8 active torsions:
REMARK  status: ('A' for Active; 'I' for Inactive)
REMARK    1  A    between atoms: C_1  and  C_2
REMARK    2  A    between atoms: C_4  and  N_9
REMARK    3  A    between atoms: C_10  and  C_12
REMARK    4  A    between atoms: C_12  and  S_13
REMARK    5  A    between atoms: S_13  and  C_14
REMARK    6  A    between atoms: C_18  and  C_22
REMARK    7  A    between atoms: N_20  and  N_21
REMARK    8  A    between atoms: C_25  and  C_28
REMARK                            x       y       z     vdW  Elec       q    Type
REMARK                         _______ _______ _______ _____ _____    ______ ____
ROOT
ATOM      1  C   UNL     1       0.541  -7.366  -5.069  0.00  0.00    +0.214 C 
ATOM      2  N   UNL     1      -0.643  -7.003  -5.881  0.00  0.00    -0.228 NA
ATOM      3  N   UNL     1      -0.112  -6.800  -7.237  0.00  0.00    -0.234 NA
ATOM      4  C   UNL     1       1.200  -6.146  -6.990  0.00  0.00    +0.185 C 
ATOM      5  N   UNL     1       1.719  -6.819  -5.775  0.00  0.00    -0.197 NA
ATOM      6  H   UNL     1      -1.331  -7.741  -5.868  0.00  0.00    +0.143 HD
ATOM      7  H   UNL     1       0.008  -7.681  -7.714  0.00  0.00    +0.143 HD
ENDROOT
BRANCH   4   8
ATOM      8  C   UNL     1       2.143  -6.372  -8.173  0.00  0.00    +0.187 C 
ATOM      9  C   UNL     1       1.601  -5.705  -9.425  0.00  0.00    +0.034 C 
ATOM     10  C   UNL     1       1.412  -6.728 -10.280  0.00  0.00    +0.091 C 
ATOM     11  N   UNL     1       1.770  -7.903  -9.700  0.00  0.00    -0.154 NA
ATOM     12  N   UNL     1       2.185  -7.797  -8.540  0.00  0.00    -0.176 NA
BRANCH  10  13
ATOM     13  C   UNL     1       0.887  -6.591 -11.661  0.00  0.00    +0.002 A 
ATOM     14  C   UNL     1       0.555  -5.333 -12.162  0.00  0.00    +0.010 A 
ATOM     15  C   UNL     1       0.068  -5.212 -13.447  0.00  0.00    +0.001 A 
ATOM     16  C   UNL     1      -0.091  -6.335 -14.239  0.00  0.00    +0.000 A 
ATOM     17  C   UNL     1       0.237  -7.586 -13.747  0.00  0.00    +0.001 A 
ATOM     18  C   UNL     1       0.730  -7.719 -12.465  0.00  0.00    +0.010 A 
ENDBRANCH  10  13
ENDBRANCH   4   8
BRANCH   5  19
ATOM     19  N   UNL     1       2.654  -7.877  -6.123  0.00  0.00    -0.264 NA
ATOM     20  H   UNL     1       2.980  -8.358  -5.298  0.00  0.00    +0.137 HD
ATOM     21  H   UNL     1       2.241  -8.523  -6.779  0.00  0.00    +0.137 HD
ENDBRANCH   5  19
BRANCH   1  22
ATOM     22  S   UNL     1       0.411  -6.631  -3.416  0.00  0.00    -0.115 S 
BRANCH  22  23
ATOM     23  C   UNL     1       0.265  -4.851  -3.737  0.00  0.00    +0.168 C 
BRANCH  23  25
ATOM     24  N   UNL     1       0.028  -2.771  -2.420  0.00  0.00    -0.285 N 
ATOM     25  C   UNL     1       0.148  -4.113  -2.428  0.00  0.00    +0.227 C 
ATOM     26  O   UNL     1       0.162  -4.727  -1.382  0.00  0.00    -0.275 OA
ATOM     27  H   UNL     1      -0.060  -2.287  -3.256  0.00  0.00    +0.155 HD
BRANCH  24  31
ATOM     28  C   UNL     1       1.619  -2.350   2.213  0.00  0.00    +0.045 C 
ATOM     29  C   UNL     1       0.793  -1.849   1.057  0.00  0.00    -0.035 A 
ATOM     30  C   UNL     1       0.792  -2.538  -0.141  0.00  0.00    +0.027 A 
ATOM     31  C   UNL     1       0.030  -2.075  -1.206  0.00  0.00    +0.034 A 
ATOM     32  C   UNL     1      -0.729  -0.921  -1.063  0.00  0.00    +0.024 A 
ATOM     33  C   UNL     1      -0.724  -0.236   0.136  0.00  0.00    +0.017 A 
ATOM     34  C   UNL     1       0.032  -0.703   1.197  0.00  0.00    +0.021 A 
ATOM     35 BR   UNL     1       0.029   0.233   2.841  0.00  0.00    -0.050 Br
ENDBRANCH  24  31
ENDBRANCH  23  25
ENDBRANCH  22  23
ENDBRANCH   1  22
TORSDOF 7
