REMARK  Name = ZINC19402138
REMARK  4 active torsions:
REMARK  status: ('A' for Active; 'I' for Inactive)
REMARK    1  A    between atoms: N_10  and  C_13
REMARK    2  A    between atoms: C_13  and  C_14
REMARK    3  A    between atoms: C_14  and  C_16
REMARK    4  A    between atoms: C_14  and  O_27
REMARK                            x       y       z     vdW  Elec       q    Type
REMARK                         _______ _______ _______ _____ _____    ______ ____
ROOT
ATOM      1  C   UNL     1      -0.800   1.987  -1.118  0.00  0.00    +0.120 C 
ENDROOT
BRANCH   1  11
ATOM      2  C   UNL     1       4.911  -0.561   3.523  0.00  0.00    +0.005 A 
ATOM      3  C   UNL     1       4.286  -1.445   4.393  0.00  0.00    +0.018 A 
ATOM      4  C   UNL     1       2.970  -1.797   4.170  0.00  0.00    +0.084 A 
ATOM      5  N   UNL     1       2.301  -1.300   3.146  0.00  0.00    -0.350 N 
ATOM      6  C   UNL     1       2.863  -0.460   2.292  0.00  0.00    +0.099 A 
ATOM      7  C   UNL     1       4.186  -0.062   2.456  0.00  0.00    +0.042 A 
ATOM      8  N   UNL     1       2.123   0.034   1.224  0.00  0.00    -0.314 N 
ATOM      9  C   UNL     1       0.757  -0.508   1.234  0.00  0.00    +0.122 C 
ATOM     10  C   UNL     1       0.002  -0.004   0.002  0.00  0.00    +0.103 C 
ATOM     11  N   UNL     1      -0.018   1.465   0.010  0.00  0.00    -0.297 NA
ATOM     12  C   UNL     1       1.348   2.008   0.000  0.00  0.00    +0.103 C 
ATOM     13  C   UNL     1       2.103   1.504   1.232  0.00  0.00    +0.122 C 
ATOM     14  H   UNL     1       1.250  -1.583   2.987  0.00  0.00    +0.166 HD
ENDBRANCH   1  11
BRANCH   1  15
ATOM     15  C   UNL     1      -1.008   3.493  -0.941  0.00  0.00    +0.159 C 
BRANCH  15  16
ATOM     16  C   UNL     1      -1.811   4.028  -2.099  0.00  0.00    -0.014 A 
ATOM     17  C   UNL     1      -3.192   3.962  -2.070  0.00  0.00    +0.010 A 
ATOM     18  C   UNL     1      -3.935   4.457  -3.126  0.00  0.00    +0.050 A 
ATOM     19  C   UNL     1      -3.290   5.009  -4.220  0.00  0.00    +0.162 A 
ATOM     20  C   UNL     1      -1.904   5.072  -4.252  0.00  0.00    +0.162 A 
ATOM     21  C   UNL     1      -1.163   4.580  -3.190  0.00  0.00    +0.055 A 
ATOM     22  O   UNL     1      -1.278   5.619  -5.333  0.00  0.00    -0.488 OA
ATOM     23  C   UNL     1      -1.378   4.881  -6.553  0.00  0.00    +0.232 C 
ATOM     24  C   UNL     1      -2.674   5.208  -7.277  0.00  0.00    +0.082 C 
ATOM     25  C   UNL     1      -3.901   4.767  -6.495  0.00  0.00    +0.232 C 
ATOM     26  O   UNL     1      -4.011   5.496  -5.271  0.00  0.00    -0.488 OA
ENDBRANCH  15  16
BRANCH  15  27
ATOM     27  O   UNL     1      -1.712   3.736   0.279  0.00  0.00    -0.386 OA
ATOM     28  H   UNL     1      -1.954   4.766   0.578  0.00  0.00    +0.210 HD
ENDBRANCH  15  27
ENDBRANCH   1  15
TORSDOF 4
