REMARK  Name = ZINC01398553
REMARK  4 active torsions:
REMARK  status: ('A' for Active; 'I' for Inactive)
REMARK    1  A    between atoms: C_1  and  S_2
REMARK    2  A    between atoms: S_2  and  C_3
REMARK    3  A    between atoms: C_5  and  C_15
REMARK    4  A    between atoms: C_7  and  N_9
REMARK                            x       y       z     vdW  Elec       q    Type
REMARK                         _______ _______ _______ _____ _____    ______ ____
ROOT
ATOM      1  C   UNL     1      -1.742   1.435   3.269  0.00  0.00    +0.190 A 
ATOM      2  N   UNL     1      -1.121   1.020   2.174  0.00  0.00    -0.218 NA
ATOM      3  C   UNL     1      -0.722   1.881   1.250  0.00  0.00    +0.150 A 
ATOM      4  C   UNL     1      -0.955   3.230   1.437  0.00  0.00    +0.076 A 
ATOM      5  C   UNL     1      -1.617   3.637   2.597  0.00  0.00    +0.126 A 
ATOM      6  N   UNL     1      -1.990   2.719   3.483  0.00  0.00    -0.207 NA
ENDROOT
BRANCH   5   7
ATOM      7  N   UNL     1      -1.877   4.978   2.824  0.00  0.00    -0.311 N 
ATOM      8  C   UNL     1      -0.638   5.769   2.781  0.00  0.00    +0.134 C 
ATOM      9  C   UNL     1      -0.977   7.249   2.976  0.00  0.00    +0.178 C 
ATOM     10  O   UNL     1      -1.681   7.413   4.210  0.00  0.00    -0.377 OA
ATOM     11  C   UNL     1      -2.893   6.657   4.287  0.00  0.00    +0.178 C 
ATOM     12  C   UNL     1      -2.573   5.171   4.104  0.00  0.00    +0.134 C 
ENDBRANCH   5   7
BRANCH   3  13
ATOM     13  C   UNL     1      -0.017   1.395   0.010  0.00  0.00    +0.434 C 
ATOM     14  F   UNL     1       0.002  -0.004   0.002  0.00  0.00    -0.164 F 
ATOM     15  F   UNL     1       1.296   1.879  -0.000  0.00  0.00    -0.164 F 
ATOM     16  F   UNL     1      -0.694   1.858  -1.124  0.00  0.00    -0.164 F 
ENDBRANCH   3  13
BRANCH   1  18
ATOM     17  C   UNL     1      -1.675  -1.271   3.674  0.00  0.00    +0.093 C 
ATOM     18  S   UNL     1      -2.253   0.249   4.468  0.00  0.00    -0.089 S 
ENDBRANCH   1  18
TORSDOF 3
