REMARK  Name = ZINC31055256
REMARK  6 active torsions:
REMARK  status: ('A' for Active; 'I' for Inactive)
REMARK    1  A    between atoms: C_4  and  N_10
REMARK    2  A    between atoms: C_6  and  N_7
REMARK    3  A    between atoms: C_11  and  C_13
REMARK    4  A    between atoms: N_18  and  C_20
REMARK    5  A    between atoms: C_20  and  C_21
REMARK    6  A    between atoms: C_23  and  C_26
REMARK                            x       y       z     vdW  Elec       q    Type
REMARK                         _______ _______ _______ _____ _____    ______ ____
ROOT
ATOM      1  C   UNL     1      -3.407   3.328  -2.850  0.00  0.00    +0.059 C 
ATOM      2  C   UNL     1      -2.386   4.177  -3.614  0.00  0.00    +0.009 C 
ATOM      3  C   UNL     1      -1.010   3.513  -3.520  0.00  0.00    -0.018 C 
ATOM      4  C   UNL     1      -0.624   3.355  -2.047  0.00  0.00    -0.078 C 
ATOM      5  N   UNL     1      -1.631   2.535  -1.361  0.00  0.00    +0.386 N 
ATOM      6  C   UNL     1      -2.951   3.176  -1.397  0.00  0.00    -0.065 C 
ATOM      7  H   UNL     1      -1.707   1.579  -1.899  0.00  0.00    -0.081 HD
ENDROOT
BRANCH   1   9
ATOM      8  N   UNL     1      -5.353   4.245  -4.070  0.00  0.00    -0.284 N 
ATOM      9  C   UNL     1      -4.753   4.005  -2.888  0.00  0.00    +0.219 C 
ATOM     10  O   UNL     1      -5.295   4.334  -1.854  0.00  0.00    -0.275 OA
ATOM     11  H   UNL     1      -4.830   4.015  -5.010  0.00  0.00    +0.155 HD
BRANCH   8  15
ATOM     12  C   UNL     1      -9.194   5.861  -4.165  0.00  0.00    +0.034 A 
ATOM     13  C   UNL     1      -8.806   4.948  -5.128  0.00  0.00    +0.024 A 
ATOM     14  C   UNL     1      -7.532   4.414  -5.103  0.00  0.00    +0.062 A 
ATOM     15  C   UNL     1      -6.643   4.788  -4.102  0.00  0.00    +0.054 A 
ATOM     16  C   UNL     1      -7.036   5.706  -3.138  0.00  0.00    +0.057 A 
ATOM     17  C   UNL     1      -8.310   6.240  -3.172  0.00  0.00    +0.128 A 
ATOM     18 CL   UNL     1      -7.044   3.272  -6.317  0.00  0.00    -0.082 Cl
BRANCH  17  19
ATOM     19  N   UNL     1      -8.728   7.219  -2.143  0.00  0.00    +0.056 N 
ATOM     20  O   UNL     1      -7.950   7.553  -1.268  0.00  0.00    -0.126 OA
ATOM     21  O   UNL     1      -9.851   7.690  -2.173  0.00  0.00    -0.126 OA
ENDBRANCH  17  19
ENDBRANCH   8  15
ENDBRANCH   1   9
BRANCH   5  22
ATOM     22  C   UNL     1      -1.223   2.247   0.020  0.00  0.00    +0.022 C 
BRANCH  22  23
ATOM     23  C   UNL     1       0.009   1.379   0.010  0.00  0.00    +0.211 A 
ATOM     24  N   UNL     1       1.252   1.791  -0.001  0.00  0.00    -0.193 NA
ATOM     25  C   UNL     1       2.007   0.669  -0.013  0.00  0.00    +0.203 A 
ATOM     26  N   UNL     1       1.185  -0.349  -0.010  0.00  0.00    -0.056 NA
ATOM     27  O   UNL     1       0.037   0.042   0.004  0.00  0.00    -0.340 OA
BRANCH  25  28
ATOM     28  C   UNL     1       3.489   0.605  -0.029  0.00  0.00    +0.041 A 
ATOM     29  C   UNL     1       4.135  -0.629  -0.040  0.00  0.00    +0.014 A 
ATOM     30  C   UNL     1       5.514  -0.684  -0.054  0.00  0.00    +0.021 A 
ATOM     31  C   UNL     1       6.256   0.485  -0.057  0.00  0.00    +0.042 A 
ATOM     32  C   UNL     1       5.620   1.714  -0.046  0.00  0.00    +0.040 A 
ATOM     33  C   UNL     1       4.240   1.780  -0.037  0.00  0.00    +0.053 A 
ATOM     34 CL   UNL     1       3.443   3.322  -0.030  0.00  0.00    -0.083 Cl
ATOM     35 CL   UNL     1       7.990   0.409  -0.076  0.00  0.00    -0.083 Cl
ENDBRANCH  25  28
ENDBRANCH  22  23
ENDBRANCH   5  22
TORSDOF 6
