REMARK  Name = ZINC21176252
REMARK  7 active torsions:
REMARK  status: ('A' for Active; 'I' for Inactive)
REMARK    1  A    between atoms: C_1  and  C_2
REMARK    2  A    between atoms: C_5  and  C_8
REMARK    3  A    between atoms: C_13  and  C_27
REMARK    4  A    between atoms: C_13  and  C_28
REMARK    5  A    between atoms: C_16  and  C_18
REMARK    6  A    between atoms: N_29  and  C_36
REMARK    7  A    between atoms: N_32  and  C_35
REMARK                            x       y       z     vdW  Elec       q    Type
REMARK                         _______ _______ _______ _____ _____    ______ ____
ROOT
ATOM      1  C   UNL     1      -1.236   1.604  -3.674  0.00  0.00    +0.064 A 
ATOM      2  C   UNL     1      -0.037   1.049  -4.041  0.00  0.00    +0.089 A 
ATOM      3  C   UNL     1       0.621   0.603  -2.788  0.00  0.00    +0.083 A 
ATOM      4  C   UNL     1      -0.204   0.913  -1.795  0.00  0.00    +0.078 A 
ATOM      5  N   UNL     1      -1.331   1.518  -2.318  0.00  0.00    -0.331 N 
ATOM      6  C   UNL     1      -2.448   1.982  -1.483  0.00  0.00    +0.064 C 
ATOM      7  C   UNL     1      -2.324   1.320  -0.105  0.00  0.00    +0.189 C 
ATOM      8  O   UNL     1      -0.989   1.473   0.385  0.00  0.00    -0.364 OA
ATOM      9  C   UNL     1      -0.019   0.679  -0.311  0.00  0.00    +0.197 C 
ATOM     10  C   UNL     1      -2.382   3.503  -1.332  0.00  0.00    +0.036 C 
ATOM     11  C   UNL     1      -3.776   1.585  -2.130  0.00  0.00    +0.036 C 
ATOM     12  N   UNL     1       1.880  -0.011  -2.865  0.00  0.00    -0.294 N 
ATOM     13  C   UNL     1       2.421  -0.159  -4.095  0.00  0.00    +0.332 A 
ATOM     14  O   UNL     1       3.512  -0.691  -4.163  0.00  0.00    -0.246 OA
ATOM     15  N   UNL     1       1.858   0.230  -5.243  0.00  0.00    -0.263 N 
ATOM     16  C   UNL     1       0.645   0.837  -5.322  0.00  0.00    +0.266 A 
ATOM     17  O   UNL     1       0.158   1.180  -6.383  0.00  0.00    -0.267 OA
ATOM     18  C   UNL     1       2.591  -0.011  -6.488  0.00  0.00    +0.157 C 
ATOM     19  C   UNL     1       2.579  -0.472  -1.663  0.00  0.00    +0.154 C 
ENDROOT
BRANCH   9  20
ATOM     20  C   UNL     1       1.370   1.094   0.101  0.00  0.00    -0.009 A 
ATOM     21  C   UNL     1       2.165   0.222   0.821  0.00  0.00    +0.010 A 
ATOM     22  C   UNL     1       3.442   0.596   1.197  0.00  0.00    +0.050 A 
ATOM     23  C   UNL     1       3.923   1.851   0.863  0.00  0.00    +0.166 A 
ATOM     24  C   UNL     1       3.120   2.732   0.142  0.00  0.00    +0.167 A 
ATOM     25  C   UNL     1       1.844   2.348  -0.236  0.00  0.00    +0.056 A 
ATOM     26  O   UNL     1       3.815   3.889  -0.059  0.00  0.00    -0.453 OA
ATOM     27  C   UNL     1       5.194   3.559   0.189  0.00  0.00    +0.466 C 
ATOM     28  O   UNL     1       5.121   2.457   1.112  0.00  0.00    -0.453 OA
ENDBRANCH   9  20
BRANCH   1  33
ATOM     29  C   UNL     1      -5.151   3.885  -7.219  0.00  0.00    +0.044 C 
ATOM     30  C   UNL     1      -4.125   3.287  -6.290  0.00  0.00    -0.050 A 
ATOM     31  C   UNL     1      -3.439   4.101  -5.407  0.00  0.00    +0.004 A 
ATOM     32  C   UNL     1      -2.499   3.562  -4.554  0.00  0.00    +0.010 A 
ATOM     33  C   UNL     1      -2.240   2.189  -4.584  0.00  0.00    -0.001 A 
ATOM     34  C   UNL     1      -2.932   1.374  -5.482  0.00  0.00    +0.010 A 
ATOM     35  C   UNL     1      -3.874   1.927  -6.325  0.00  0.00    +0.004 A 
ENDBRANCH   1  33
TORSDOF 2
