REMARK  Name = ZINC49570840
REMARK  8 active torsions:
REMARK  status: ('A' for Active; 'I' for Inactive)
REMARK    1  A    between atoms: C_1  and  C_2
REMARK    2  A    between atoms: C_2  and  C_4
REMARK    3  A    between atoms: C_2  and  N_11
REMARK    4  A    between atoms: N_11  and  S_12
REMARK    5  A    between atoms: S_12  and  C_15
REMARK    6  A    between atoms: C_18  and  C_20
REMARK    7  A    between atoms: C_20  and  C_21
REMARK    8  A    between atoms: C_21  and  N_22
REMARK                            x       y       z     vdW  Elec       q    Type
REMARK                         _______ _______ _______ _____ _____    ______ ____
ROOT
ATOM      1  S   UNL     1      -2.119  -0.907  -1.411  0.00  0.00    +0.065 S 
ATOM      2  O   UNL     1      -3.414  -1.386  -1.071  0.00  0.00    -0.153 OA
ATOM      3  O   UNL     1      -1.920   0.189  -2.293  0.00  0.00    -0.153 OA
ENDROOT
BRANCH   1   4
ATOM      4  C   UNL     1      -1.242  -2.272  -2.098  0.00  0.00    +0.143 A 
ATOM      5  C   UNL     1      -1.452  -3.599  -1.918  0.00  0.00    +0.036 A 
ATOM      6  C   UNL     1      -0.629  -4.502  -2.566  0.00  0.00    +0.013 A 
ATOM      7  C   UNL     1       0.362  -4.033  -3.362  0.00  0.00    -0.010 A 
ATOM      8  S   UNL     1       0.149  -2.267  -3.217  0.00  0.00    -0.074 S 
BRANCH   7   9
ATOM      9  C   UNL     1       1.378  -4.803  -4.166  0.00  0.00    +0.023 C 
BRANCH   9  10
ATOM     10  C   UNL     1       0.823  -5.074  -5.565  0.00  0.00    -0.081 C 
BRANCH  10  11
ATOM     11  N   UNL     1       1.813  -5.825  -6.349  0.00  0.00    +0.378 N 
ATOM     12  H   UNL     1       2.662  -5.285  -6.423  0.00  0.00    -0.090 HD
ATOM     13  H   UNL     1       2.010  -6.702  -5.890  0.00  0.00    -0.090 HD
ATOM     14  H   UNL     1       1.446  -6.004  -7.271  0.00  0.00    -0.090 HD
ENDBRANCH  10  11
ENDBRANCH   9  10
ENDBRANCH   7   9
ENDBRANCH   1   4
BRANCH   1  15
ATOM     15  N   UNL     1      -1.372  -0.511   0.012  0.00  0.00    -0.182 NA
ATOM     16  H   UNL     1      -1.845  -0.615   0.853  0.00  0.00    +0.149 HD
BRANCH  15  18
ATOM     17  C   UNL     1      -0.019   1.526   0.010  0.00  0.00    +0.031 C 
ATOM     18  C   UNL     1       0.002  -0.004   0.002  0.00  0.00    +0.103 C 
BRANCH  18  19
ATOM     19  C   UNL     1       0.731  -0.503   1.223  0.00  0.00    -0.028 A 
ATOM     20  C   UNL     1       0.081  -0.558   2.442  0.00  0.00    +0.005 A 
ATOM     21  C   UNL     1       0.749  -1.016   3.562  0.00  0.00    +0.001 A 
ATOM     22  C   UNL     1       2.067  -1.419   3.464  0.00  0.00    +0.015 A 
ATOM     23  C   UNL     1       2.718  -1.365   2.245  0.00  0.00    +0.018 A 
ATOM     24  C   UNL     1       2.048  -0.911   1.123  0.00  0.00    +0.020 A 
ATOM     25 BR   UNL     1       4.522  -1.915   2.110  0.00  0.00    -0.050 Br
ENDBRANCH  18  19
ENDBRANCH  15  18
ENDBRANCH   1  15
TORSDOF 7
