REMARK  Name = ZINC22752927
REMARK  8 active torsions:
REMARK  status: ('A' for Active; 'I' for Inactive)
REMARK    1  A    between atoms: C_1  and  C_2
REMARK    2  A    between atoms: C_2  and  O_3
REMARK    3  A    between atoms: O_3  and  C_4
REMARK    4  A    between atoms: C_10  and  C_15
REMARK    5  A    between atoms: C_15  and  N_16
REMARK    6  A    between atoms: N_19  and  C_22
REMARK    7  A    between atoms: C_22  and  C_23
REMARK    8  A    between atoms: N_25  and  C_26
REMARK                            x       y       z     vdW  Elec       q    Type
REMARK                         _______ _______ _______ _____ _____    ______ ____
ROOT
ATOM      1  N   UNL     1      -5.834  -3.164   1.399  0.00  0.00    -0.302 NA
ATOM      2  C   UNL     1      -4.800  -2.291   1.972  0.00  0.00    +0.066 C 
ATOM      3  C   UNL     1      -5.149  -1.981   3.430  0.00  0.00    -0.063 C 
ATOM      4  N   UNL     1      -6.460  -1.321   3.490  0.00  0.00    +0.387 N 
ATOM      5  C   UNL     1      -7.486  -2.215   2.936  0.00  0.00    -0.063 C 
ATOM      6  C   UNL     1      -7.156  -2.527   1.474  0.00  0.00    +0.066 C 
ATOM      7  H   UNL     1      -6.432  -0.468   2.952  0.00  0.00    -0.081 HD
ENDROOT
BRANCH   1   8
ATOM      8  C   UNL     1      -5.504  -3.530   0.015  0.00  0.00    +0.120 C 
BRANCH   8  15
ATOM      9  C   UNL     1      -1.493  -1.868   0.019  0.00  0.00    +0.121 A 
ATOM     10  C   UNL     1      -0.381  -2.705   0.010  0.00  0.00    +0.049 A 
ATOM     11  C   UNL     1      -0.533  -4.075  -0.002  0.00  0.00    +0.050 A 
ATOM     12  C   UNL     1      -1.805  -4.633  -0.003  0.00  0.00    +0.140 A 
ATOM     13  C   UNL     1      -2.931  -3.791   0.006  0.00  0.00    +0.025 A 
ATOM     14  C   UNL     1      -2.766  -2.403   0.023  0.00  0.00    +0.057 A 
ATOM     15  C   UNL     1      -4.268  -4.393   0.004  0.00  0.00    -0.016 A 
ATOM     16  C   UNL     1      -4.362  -5.746  -0.007  0.00  0.00    +0.097 A 
ATOM     17  C   UNL     1      -3.189  -6.531  -0.017  0.00  0.00    +0.338 A 
ATOM     18  O   UNL     1      -3.287  -7.745  -0.027  0.00  0.00    -0.245 OA
ATOM     19  O   UNL     1      -1.969  -5.974  -0.015  0.00  0.00    -0.422 OA
BRANCH   9  20
ATOM     20  O   UNL     1      -1.325  -0.519   0.030  0.00  0.00    -0.492 OA
BRANCH  20  22
ATOM     21  C   UNL     1       0.006   1.498   0.040  0.00  0.00    +0.048 C 
ATOM     22  C   UNL     1       0.018  -0.032   0.025  0.00  0.00    +0.225 C 
ENDBRANCH  20  22
ENDBRANCH   9  20
ENDBRANCH   8  15
ENDBRANCH   1   8
BRANCH   4  23
ATOM     23  C   UNL     1      -6.787  -1.008   4.887  0.00  0.00    +0.019 C 
BRANCH  23  24
ATOM     24  C   UNL     1      -8.072  -0.223   4.938  0.00  0.00    +0.201 C 
ATOM     25  O   UNL     1      -8.659   0.049   3.912  0.00  0.00    -0.278 OA
ATOM     26  N   UNL     1      -8.570   0.178   6.125  0.00  0.00    -0.287 N 
ATOM     27  H   UNL     1      -8.139  -0.096   6.949  0.00  0.00    +0.155 HD
BRANCH  26  28
ATOM     28  C   UNL     1      -9.711   0.989   6.168  0.00  0.00    +0.033 A 
ATOM     29  C   UNL     1      -9.832   1.967   7.146  0.00  0.00    +0.026 A 
ATOM     30  C   UNL     1     -10.958   2.765   7.186  0.00  0.00    +0.040 A 
ATOM     31  C   UNL     1     -11.966   2.591   6.253  0.00  0.00    +0.124 A 
ATOM     32  C   UNL     1     -11.847   1.617   5.276  0.00  0.00    +0.040 A 
ATOM     33  C   UNL     1     -10.720   0.820   5.229  0.00  0.00    +0.026 A 
ATOM     34  F   UNL     1     -13.067   3.373   6.295  0.00  0.00    -0.205 F 
ENDBRANCH  26  28
ENDBRANCH  23  24
ENDBRANCH   4  23
TORSDOF 7
