REMARK  Name = ZINC15444409
REMARK  4 active torsions:
REMARK  status: ('A' for Active; 'I' for Inactive)
REMARK    1  A    between atoms: C_1  and  C_2
REMARK    2  A    between atoms: C_5  and  S_8
REMARK    3  A    between atoms: S_8  and  C_11
REMARK    4  A    between atoms: C_14  and  C_17
REMARK                            x       y       z     vdW  Elec       q    Type
REMARK                         _______ _______ _______ _____ _____    ______ ____
ROOT
ATOM      1  S   UNL     1      -1.512  -0.906   0.012  0.00  0.00    +0.044 S 
ATOM      2  O   UNL     1      -1.218  -2.186   0.553  0.00  0.00    -0.163 OA
ATOM      3  O   UNL     1      -2.492  -0.047   0.578  0.00  0.00    -0.163 OA
ENDROOT
BRANCH   1   8
ATOM      4  C   UNL     1       3.672   2.182  -0.024  0.00  0.00    +0.044 C 
ATOM      5  C   UNL     1       2.377   1.411  -0.015  0.00  0.00    -0.050 A 
ATOM      6  C   UNL     1       1.171   2.086   0.002  0.00  0.00    +0.005 A 
ATOM      7  C   UNL     1      -0.017   1.378   0.010  0.00  0.00    +0.028 A 
ATOM      8  C   UNL     1       0.002  -0.004   0.002  0.00  0.00    +0.095 A 
ATOM      9  C   UNL     1       1.208  -0.679  -0.013  0.00  0.00    +0.028 A 
ATOM     10  C   UNL     1       2.396   0.029  -0.021  0.00  0.00    +0.005 A 
ENDBRANCH   1   8
BRANCH   1  11
ATOM     11  C   UNL     1      -1.976  -1.163  -1.668  0.00  0.00    +0.204 A 
ATOM     12  C   UNL     1      -2.777  -0.237  -2.317  0.00  0.00    +0.051 A 
ATOM     13  C   UNL     1      -3.112  -0.481  -3.642  0.00  0.00    +0.028 A 
ATOM     14  C   UNL     1      -2.634  -1.641  -4.231  0.00  0.00    +0.061 A 
ATOM     15  N   UNL     1      -1.880  -2.469  -3.533  0.00  0.00    -0.153 NA
ATOM     16  N   UNL     1      -1.566  -2.241  -2.309  0.00  0.00    -0.130 NA
ATOM     17  C   UNL     1      -2.973  -1.956  -5.665  0.00  0.00    +0.067 C 
ENDBRANCH   1  11
TORSDOF 2
