REMARK  Name = ZINC35867010
REMARK  5 active torsions:
REMARK  status: ('A' for Active; 'I' for Inactive)
REMARK    1  A    between atoms: C_1  and  C_2
REMARK    2  A    between atoms: C_2  and  C_3
REMARK    3  A    between atoms: C_3  and  C_5
REMARK    4  A    between atoms: C_3  and  C_6
REMARK    5  A    between atoms: N_27  and  C_28
REMARK                            x       y       z     vdW  Elec       q    Type
REMARK                         _______ _______ _______ _____ _____    ______ ____
ROOT
ATOM      1  C   UNL     1      -1.207  -1.822  -0.316  0.00  0.00    +0.135 A 
ATOM      2  N   UNL     1      -1.859  -2.351  -1.336  0.00  0.00    -0.216 NA
ATOM      3  C   UNL     1      -2.364  -3.573  -1.292  0.00  0.00    +0.133 A 
ATOM      4  C   UNL     1      -2.203  -4.346  -0.109  0.00  0.00    +0.051 A 
ATOM      5  C   UNL     1      -2.671  -5.705   0.169  0.00  0.00    -0.025 A 
ATOM      6  C   UNL     1      -2.382  -6.215   1.383  0.00  0.00    -0.004 A 
ATOM      7  S   UNL     1      -1.482  -4.938   2.220  0.00  0.00    -0.073 S 
ATOM      8  C   UNL     1      -1.496  -3.716   0.934  0.00  0.00    +0.114 A 
ATOM      9  N   UNL     1      -1.020  -2.492   0.804  0.00  0.00    -0.224 NA
ATOM     10  C   UNL     1      -2.747  -7.571   1.908  0.00  0.00    +0.043 C 
ATOM     11  C   UNL     1      -3.826  -8.170   0.996  0.00  0.00    +0.005 C 
ATOM     12  C   UNL     1      -3.386  -8.000  -0.462  0.00  0.00    +0.005 C 
ATOM     13  C   UNL     1      -3.452  -6.524  -0.855  0.00  0.00    +0.037 C 
ATOM     14  N   UNL     1      -3.041  -4.091  -2.381  0.00  0.00    -0.312 N 
ATOM     15  C   UNL     1      -4.508  -4.033  -2.447  0.00  0.00    +0.125 C 
ATOM     16  C   UNL     1      -4.913  -3.334  -3.751  0.00  0.00    +0.128 C 
ATOM     17  N   UNL     1      -4.178  -3.952  -4.863  0.00  0.00    -0.282 N 
ATOM     18  C   UNL     1      -2.711  -4.010  -4.798  0.00  0.00    +0.128 C 
ATOM     19  C   UNL     1      -2.305  -4.704  -3.497  0.00  0.00    +0.125 C 
ATOM     20  C   UNL     1      -4.837  -4.457  -5.925  0.00  0.00    +0.307 C 
ATOM     21  O   UNL     1      -6.042  -4.321  -6.013  0.00  0.00    -0.252 OA
ATOM     22  N   UNL     1      -4.161  -5.112  -6.889  0.00  0.00    -0.268 N 
ATOM     23  H   UNL     1      -3.207  -5.264  -6.795  0.00  0.00    +0.156 HD
ENDROOT
BRANCH  22  24
ATOM     24  C   UNL     1      -4.834  -5.574  -8.026  0.00  0.00    +0.049 A 
ATOM     25  C   UNL     1      -6.179  -5.909  -7.950  0.00  0.00    +0.024 A 
ATOM     26  C   UNL     1      -6.841  -6.364  -9.074  0.00  0.00    +0.002 A 
ATOM     27  C   UNL     1      -6.165  -6.485 -10.275  0.00  0.00    +0.001 A 
ATOM     28  C   UNL     1      -4.826  -6.152 -10.354  0.00  0.00    +0.017 A 
ATOM     29  C   UNL     1      -4.159  -5.691  -9.235  0.00  0.00    +0.039 A 
ATOM     30 BR   UNL     1      -2.329  -5.229  -9.346  0.00  0.00    -0.048 Br
ENDBRANCH  22  24
BRANCH   1  31
ATOM     31  C   UNL     1      -0.659  -0.423  -0.438  0.00  0.00    +0.054 C 
ATOM     32  C   UNL     1      -1.280   0.464   0.644  0.00  0.00    +0.015 C 
BRANCH  31  34
ATOM     33  C   UNL     1       1.431   0.945  -0.509  0.00  0.00    +0.004 C 
ATOM     34  C   UNL     1       0.861  -0.454  -0.262  0.00  0.00    +0.007 C 
ENDBRANCH  31  34
ENDBRANCH   1  31
TORSDOF 3
