REMARK  Name = ZINC59282561
REMARK  6 active torsions:
REMARK  status: ('A' for Active; 'I' for Inactive)
REMARK    1  A    between atoms: C_1  and  C_2
REMARK    2  A    between atoms: C_2  and  C_3
REMARK    3  A    between atoms: C_2  and  N_4
REMARK    4  A    between atoms: C_6  and  C_11
REMARK    5  A    between atoms: N_13  and  C_14
REMARK    6  A    between atoms: C_17  and  N_21
REMARK                            x       y       z     vdW  Elec       q    Type
REMARK                         _______ _______ _______ _____ _____    ______ ____
ROOT
ATOM      1  C   UNL     1      -6.461  -2.827  -2.077  0.00  0.00    +0.035 A 
ATOM      2  C   UNL     1      -6.162  -2.485  -3.390  0.00  0.00    +0.025 A 
ATOM      3  C   UNL     1      -7.106  -2.664  -4.381  0.00  0.00    +0.027 A 
ATOM      4  C   UNL     1      -8.353  -3.186  -4.068  0.00  0.00    +0.063 A 
ATOM      5  C   UNL     1      -8.652  -3.529  -2.755  0.00  0.00    +0.065 A 
ATOM      6  C   UNL     1      -7.706  -3.355  -1.763  0.00  0.00    +0.045 A 
ATOM      7 CL   UNL     1     -10.212  -4.183  -2.362  0.00  0.00    -0.082 Cl
ENDROOT
BRANCH   4   8
ATOM      8  N   UNL     1      -9.312  -3.368  -5.076  0.00  0.00    -0.201 N 
ATOM      9  C   UNL     1     -10.212  -2.439  -5.446  0.00  0.00    +0.258 C 
ATOM     10  O   UNL     1     -10.322  -1.328  -4.968  0.00  0.00    -0.269 OA
ATOM     11  C   UNL     1     -11.045  -2.997  -6.532  0.00  0.00    +0.050 A 
ATOM     12  C   UNL     1     -12.102  -2.514  -7.287  0.00  0.00    +0.014 A 
ATOM     13  C   UNL     1     -12.678  -3.319  -8.257  0.00  0.00    +0.001 A 
ATOM     14  C   UNL     1     -12.204  -4.599  -8.478  0.00  0.00    +0.001 A 
ATOM     15  C   UNL     1     -11.147  -5.095  -7.731  0.00  0.00    +0.014 A 
ATOM     16  C   UNL     1     -10.562  -4.302  -6.757  0.00  0.00    +0.050 A 
ATOM     17  C   UNL     1      -9.448  -4.491  -5.804  0.00  0.00    +0.258 C 
ATOM     18  O   UNL     1      -8.771  -5.493  -5.694  0.00  0.00    -0.269 OA
ENDBRANCH   4   8
BRANCH   1  21
ATOM     19  C   UNL     1      -5.421  -3.525  -0.053  0.00  0.00    +0.222 C 
ATOM     20  O   UNL     1      -6.228  -4.426   0.038  0.00  0.00    -0.275 OA
ATOM     21  N   UNL     1      -5.503  -2.646  -1.071  0.00  0.00    -0.285 N 
ATOM     22  H   UNL     1      -4.900  -1.887  -1.107  0.00  0.00    +0.155 HD
BRANCH  19  25
ATOM     23  N   UNL     1      -3.040  -4.851   2.374  0.00  0.00    -0.298 N 
ATOM     24  C   UNL     1      -4.426  -4.501   2.040  0.00  0.00    +0.121 C 
ATOM     25  C   UNL     1      -4.325  -3.389   0.973  0.00  0.00    +0.101 C 
ATOM     26  C   UNL     1      -2.941  -3.678   0.347  0.00  0.00    +0.110 C 
ATOM     27  C   UNL     1      -2.185  -4.401   1.440  0.00  0.00    +0.217 C 
ATOM     28  O   UNL     1      -0.982  -4.554   1.468  0.00  0.00    -0.276 OA
BRANCH  23  30
ATOM     29  C   UNL     1      -1.927  -6.880   3.163  0.00  0.00    +0.028 C 
ATOM     30  C   UNL     1      -2.640  -5.590   3.574  0.00  0.00    +0.070 C 
ATOM     31  C   UNL     1      -1.694  -4.729   4.412  0.00  0.00    +0.028 C 
ENDBRANCH  23  30
ENDBRANCH  19  25
ENDBRANCH   1  21
TORSDOF 4
