REMARK  Name = ZINC06601663
REMARK  16 active torsions:
REMARK  status: ('A' for Active; 'I' for Inactive)
REMARK    1  A    between atoms: C_1  and  C_2
REMARK    2  A    between atoms: C_2  and  O_3
REMARK    3  A    between atoms: O_3  and  C_4
REMARK    4  A    between atoms: C_7  and  C_10
REMARK    5  A    between atoms: C_10  and  C_12
REMARK    6  A    between atoms: C_10  and  N_20
REMARK    7  A    between atoms: N_14  and  C_15
REMARK    8  A    between atoms: C_15  and  C_16
REMARK    9  A    between atoms: C_16  and  C_17
REMARK   10  A    between atoms: C_17  and  C_18
REMARK   11  A    between atoms: C_17  and  C_19
REMARK   12  A    between atoms: N_20  and  C_21
REMARK   13  A    between atoms: C_25  and  C_27
REMARK   14  A    between atoms: C_28  and  C_30
REMARK   15  A    between atoms: C_31  and  N_38
REMARK   16  A    between atoms: C_32  and  C_35
REMARK                            x       y       z     vdW  Elec       q    Type
REMARK                         _______ _______ _______ _____ _____    ______ ____
ROOT
ATOM      1  N   UNL     1      -0.052   5.334   0.140  0.00  0.00    -0.251 N 
ATOM      2  C   UNL     1      -1.080   5.769   0.895  0.00  0.00    +0.262 C 
ATOM      3  O   UNL     1      -0.894   6.627   1.739  0.00  0.00    -0.269 OA
ENDROOT
BRANCH   1   4
ATOM      4  C   UNL     1      -0.284   4.431  -0.902  0.00  0.00    +0.038 A 
ATOM      5  C   UNL     1      -0.497   3.086  -0.625  0.00  0.00    +0.023 A 
ATOM      6  C   UNL     1      -0.725   2.197  -1.656  0.00  0.00    +0.002 A 
ATOM      7  C   UNL     1      -0.742   2.644  -2.965  0.00  0.00    +0.003 A 
ATOM      8  C   UNL     1      -0.525   3.981  -3.245  0.00  0.00    -0.049 A 
ATOM      9  C   UNL     1      -0.301   4.876  -2.218  0.00  0.00    +0.027 A 
ATOM     10  C   UNL     1      -0.538   4.462  -4.673  0.00  0.00    +0.044 C 
ENDBRANCH   1   4
BRANCH   2  11
ATOM     11  C   UNL     1      -2.419   5.210   0.702  0.00  0.00    +0.116 A 
ATOM     12  C   UNL     1      -3.582   5.422   1.444  0.00  0.00    +0.076 A 
ATOM     13  C   UNL     1      -4.671   4.707   0.946  0.00  0.00    +0.155 A 
ATOM     14  N   UNL     1      -4.511   3.946  -0.114  0.00  0.00    -0.203 NA
ATOM     15  S   UNL     1      -3.002   4.085  -0.549  0.00  0.00    +0.019 S 
BRANCH  13  16
ATOM     16  C   UNL     1      -5.989   4.804   1.601  0.00  0.00    +0.262 C 
ATOM     17  O   UNL     1      -6.130   5.510   2.581  0.00  0.00    -0.269 OA
ATOM     18  N   UNL     1      -7.036   4.110   1.113  0.00  0.00    -0.324 N 
ATOM     19  H   UNL     1      -6.923   3.547   0.332  0.00  0.00    +0.145 HD
ATOM     20  H   UNL     1      -7.903   4.174   1.544  0.00  0.00    +0.145 HD
ENDBRANCH  13  16
BRANCH  12  21
ATOM     21  N   UNL     1      -3.647   6.252   2.555  0.00  0.00    -0.355 N 
ATOM     22  H   UNL     1      -2.855   6.724   2.855  0.00  0.00    +0.142 HD
ATOM     23  H   UNL     1      -4.486   6.360   3.032  0.00  0.00    +0.142 HD
ENDBRANCH  12  21
ENDBRANCH   2  11
BRANCH   1  24
ATOM     24  C   UNL     1       1.308   5.806   0.411  0.00  0.00    +0.197 C 
BRANCH  24  28
ATOM     25  C   UNL     1       3.942   4.394  -2.643  0.00  0.00    +0.121 A 
ATOM     26  C   UNL     1       3.814   5.755  -2.412  0.00  0.00    +0.046 A 
ATOM     27  C   UNL     1       2.961   6.209  -1.424  0.00  0.00    +0.009 A 
ATOM     28  C   UNL     1       2.237   5.308  -0.666  0.00  0.00    -0.018 A 
ATOM     29  C   UNL     1       2.367   3.950  -0.891  0.00  0.00    +0.009 A 
ATOM     30  C   UNL     1       3.214   3.491  -1.882  0.00  0.00    +0.046 A 
BRANCH  25  31
ATOM     31  O   UNL     1       4.780   3.944  -3.614  0.00  0.00    -0.492 OA
BRANCH  31  33
ATOM     32  C   UNL     1       5.848   2.217  -4.925  0.00  0.00    +0.048 C 
ATOM     33  C   UNL     1       4.862   2.529  -3.797  0.00  0.00    +0.225 C 
ENDBRANCH  31  33
ENDBRANCH  25  31
ENDBRANCH  24  28
BRANCH  24  34
ATOM     34  C   UNL     1       1.764   5.283   1.749  0.00  0.00    +0.238 C 
ATOM     35  O   UNL     1       1.026   4.585   2.411  0.00  0.00    -0.273 OA
ATOM     36  N   UNL     1       2.993   5.592   2.210  0.00  0.00    -0.313 N 
ATOM     37  H   UNL     1       3.583   6.151   1.680  0.00  0.00    +0.149 HD
BRANCH  36  38
ATOM     38  C   UNL     1       3.436   5.084   3.510  0.00  0.00    +0.104 C 
BRANCH  38  39
ATOM     39  C   UNL     1       4.856   5.577   3.793  0.00  0.00    +0.022 C 
BRANCH  39  40
ATOM     40  C   UNL     1       5.320   5.046   5.151  0.00  0.00    -0.016 C 
ATOM     41  C   UNL     1       6.782   5.435   5.379  0.00  0.00    +0.007 C 
ATOM     42  C   UNL     1       4.453   5.651   6.258  0.00  0.00    +0.007 C 
ENDBRANCH  39  40
ENDBRANCH  38  39
ENDBRANCH  36  38
ENDBRANCH  24  34
ENDBRANCH   1  24
TORSDOF 12
