REMARK  Name = ZINC39727288
REMARK  7 active torsions:
REMARK  status: ('A' for Active; 'I' for Inactive)
REMARK    1  A    between atoms: C_1  and  C_2
REMARK    2  A    between atoms: C_5  and  O_31
REMARK    3  A    between atoms: C_6  and  N_8
REMARK    4  A    between atoms: C_9  and  C_11
REMARK    5  A    between atoms: N_13  and  C_30
REMARK    6  A    between atoms: N_20  and  C_23
REMARK    7  A    between atoms: O_31  and  C_32
REMARK                            x       y       z     vdW  Elec       q    Type
REMARK                         _______ _______ _______ _____ _____    ______ ____
ROOT
ATOM      1  C   UNL     1       0.272  -2.877   4.822  0.00  0.00    +0.072 C 
ATOM      2  C   UNL     1       0.366  -2.310   6.084  0.00  0.00    +0.085 C 
ATOM      3  N   UNL     1       0.521  -3.244   7.046  0.00  0.00    -0.322 N 
ATOM      4  C   UNL     1       0.776  -4.513   6.379  0.00  0.00    +0.208 C 
ATOM      5  C   UNL     1       0.305  -4.271   4.948  0.00  0.00    +0.078 C 
ATOM      6  N   UNL     1       0.005  -5.257   4.144  0.00  0.00    -0.164 NA
ATOM      7  C   UNL     1      -0.199  -6.473   4.689  0.00  0.00    +0.337 C 
ATOM      8  O   UNL     1      -0.232  -7.449   3.963  0.00  0.00    -0.250 OA
ATOM      9  N   UNL     1      -0.366  -6.638   6.013  0.00  0.00    -0.191 N 
ATOM     10  C   UNL     1       0.002  -5.682   6.917  0.00  0.00    +0.254 C 
ATOM     11  O   UNL     1      -0.301  -5.756   8.089  0.00  0.00    -0.272 OA
ATOM     12  C   UNL     1       0.448  -3.021   8.492  0.00  0.00    +0.130 C 
ENDROOT
BRANCH   9  13
ATOM     13  C   UNL     1      -0.912  -7.839   6.486  0.00  0.00    +0.046 A 
ATOM     14  C   UNL     1      -0.228  -8.589   7.432  0.00  0.00    +0.025 A 
ATOM     15  C   UNL     1      -0.768  -9.772   7.897  0.00  0.00    +0.022 A 
ATOM     16  C   UNL     1      -1.991 -10.210   7.420  0.00  0.00    +0.041 A 
ATOM     17  C   UNL     1      -2.676  -9.464   6.477  0.00  0.00    +0.022 A 
ATOM     18  C   UNL     1      -2.142  -8.277   6.013  0.00  0.00    +0.025 A 
ATOM     19 CL   UNL     1      -2.668 -11.697   8.006  0.00  0.00    -0.084 Cl
ENDBRANCH   9  13
BRANCH   1  21
ATOM     20  N   UNL     1       0.062  -2.803   2.391  0.00  0.00    -0.278 N 
ATOM     21  C   UNL     1       0.152  -2.135   3.558  0.00  0.00    +0.251 C 
ATOM     22  O   UNL     1       0.134  -0.919   3.566  0.00  0.00    -0.270 OA
ATOM     23  H   UNL     1      -0.005  -3.771   2.390  0.00  0.00    +0.155 HD
BRANCH  20  29
ATOM     24  C   UNL     1       1.290   1.213  -0.167  0.00  0.00    +0.044 C 
ATOM     25  C   UNL     1       0.655  -0.152  -0.089  0.00  0.00    -0.048 A 
ATOM     26  C   UNL     1       0.076  -0.708  -1.215  0.00  0.00    +0.007 A 
ATOM     27  C   UNL     1      -0.508  -1.959  -1.151  0.00  0.00    +0.048 A 
ATOM     28  C   UNL     1      -0.515  -2.660   0.045  0.00  0.00    +0.141 A 
ATOM     29  C   UNL     1       0.067  -2.100   1.179  0.00  0.00    +0.076 A 
ATOM     30  C   UNL     1       0.657  -0.847   1.105  0.00  0.00    +0.030 A 
BRANCH  28  31
ATOM     31  O   UNL     1      -1.091  -3.890   0.110  0.00  0.00    -0.493 OA
ATOM     32  C   UNL     1      -1.669  -4.401  -1.093  0.00  0.00    +0.277 C 
ENDBRANCH  28  31
ENDBRANCH  20  29
ENDBRANCH   1  21
TORSDOF 4
