REMARK  Name = ZINC04655664
REMARK  21 active torsions:
REMARK  status: ('A' for Active; 'I' for Inactive)
REMARK    1  A    between atoms: C_1  and  C_2
REMARK    2  A    between atoms: C_2  and  C_3
REMARK    3  A    between atoms: C_2  and  C_4
REMARK    4  A    between atoms: C_8  and  O_19
REMARK    5  A    between atoms: C_9  and  O_10
REMARK    6  A    between atoms: O_10  and  C_11
REMARK    7  A    between atoms: C_11  and  C_12
REMARK    8  A    between atoms: C_12  and  C_14
REMARK    9  A    between atoms: C_12  and  O_18
REMARK   10  A    between atoms: C_14  and  N_62
REMARK   11  A    between atoms: C_15  and  C_16
REMARK   12  A    between atoms: C_15  and  C_17
REMARK   13  A    between atoms: C_15  and  N_62
REMARK   14  A    between atoms: O_19  and  C_20
REMARK   15  A    between atoms: C_20  and  C_21
REMARK   16  A    between atoms: C_21  and  C_23
REMARK   17  A    between atoms: C_21  and  O_27
REMARK   18  A    between atoms: C_23  and  N_65
REMARK   19  A    between atoms: C_24  and  C_25
REMARK   20  A    between atoms: C_24  and  C_26
REMARK   21  A    between atoms: C_24  and  N_65
REMARK                            x       y       z     vdW  Elec       q    Type
REMARK                         _______ _______ _______ _____ _____    ______ ____
ROOT
ATOM      1  C   UNL     1       0.147   1.719   7.253  0.00  0.00    +0.001 A 
ATOM      2  C   UNL     1       1.289   0.941   7.291  0.00  0.00    +0.008 A 
ATOM      3  C   UNL     1       1.822   0.431   6.122  0.00  0.00    +0.004 A 
ATOM      4  C   UNL     1       1.212   0.692   4.909  0.00  0.00    +0.049 A 
ATOM      5  C   UNL     1       0.071   1.476   4.863  0.00  0.00    +0.162 A 
ATOM      6  C   UNL     1      -0.466   1.989   6.040  0.00  0.00    +0.165 A 
ENDROOT
BRANCH   1   8
ATOM      7  C   UNL     1      -0.801   1.121   9.464  0.00  0.00    +0.012 C 
ATOM      8  C   UNL     1      -0.431   2.274   8.529  0.00  0.00    +0.017 C 
ATOM      9  C   UNL     1       0.605   3.171   9.210  0.00  0.00    +0.012 C 
ENDBRANCH   1   8
BRANCH   6  10
ATOM     10  O   UNL     1      -1.590   2.754   6.000  0.00  0.00    -0.486 OA
BRANCH  10  11
ATOM     11  C   UNL     1      -2.842   2.074   6.110  0.00  0.00    +0.258 C 
BRANCH  11  12
ATOM     12  C   UNL     1      -3.982   3.092   6.045  0.00  0.00    +0.135 C 
BRANCH  12  13
ATOM     13  O   UNL     1      -3.918   3.953   7.184  0.00  0.00    -0.390 OA
ATOM     14  H   UNL     1      -3.995   3.491   8.031  0.00  0.00    +0.210 HD
ENDBRANCH  12  13
BRANCH  12  15
ATOM     15  C   UNL     1      -5.323   2.355   6.038  0.00  0.00    -0.047 C 
BRANCH  15  16
ATOM     16  N   UNL     1      -6.411   3.334   5.854  0.00  0.00    +0.382 N 
ATOM     17  H   UNL     1      -6.278   3.825   4.962  0.00  0.00    -0.085 HD
ATOM     18  H   UNL     1      -6.391   4.012   6.625  0.00  0.00    -0.085 HD
BRANCH  16  19
ATOM     19  C   UNL     1      -7.718   2.650   5.843  0.00  0.00    -0.078 C 
ATOM     20  C   UNL     1      -8.211   2.466   7.280  0.00  0.00    -0.014 C 
ATOM     21  C   UNL     1      -8.724   3.501   5.064  0.00  0.00    -0.014 C 
ENDBRANCH  16  19
ENDBRANCH  15  16
ENDBRANCH  12  15
ENDBRANCH  11  12
ENDBRANCH  10  11
ENDBRANCH   6  10
BRANCH   5  22
ATOM     22  O   UNL     1      -0.527   1.738   3.670  0.00  0.00    -0.486 OA
BRANCH  22  23
ATOM     23  C   UNL     1       0.079   1.179   2.503  0.00  0.00    +0.258 C 
BRANCH  23  24
ATOM     24  C   UNL     1      -0.729   1.579   1.267  0.00  0.00    +0.135 C 
BRANCH  24  25
ATOM     25  O   UNL     1      -2.030   0.991   1.336  0.00  0.00    -0.390 OA
ATOM     26  H   UNL     1      -2.023   0.025   1.372  0.00  0.00    +0.210 HD
ENDBRANCH  24  25
BRANCH  24  27
ATOM     27  C   UNL     1      -0.013   1.086   0.008  0.00  0.00    -0.047 C 
BRANCH  27  28
ATOM     28  N   UNL     1      -0.732   1.579  -1.182  0.00  0.00    +0.382 N 
ATOM     29  H   UNL     1      -0.746   2.605  -1.168  0.00  0.00    -0.085 HD
ATOM     30  H   UNL     1      -1.695   1.223  -1.167  0.00  0.00    -0.085 HD
BRANCH  28  31
ATOM     31  C   UNL     1      -0.062   1.117  -2.413  0.00  0.00    -0.078 C 
ATOM     32  C   UNL     1      -1.081   1.076  -3.553  0.00  0.00    -0.014 C 
ATOM     33  C   UNL     1       1.067   2.084  -2.772  0.00  0.00    -0.014 C 
ENDBRANCH  28  31
ENDBRANCH  27  28
ENDBRANCH  24  27
ENDBRANCH  23  24
ENDBRANCH  22  23
ENDBRANCH   5  22
TORSDOF 15
