REMARK  Name = ZINC18062595
REMARK  5 active torsions:
REMARK  status: ('A' for Active; 'I' for Inactive)
REMARK    1  A    between atoms: C_1  and  O_2
REMARK    2  A    between atoms: O_2  and  C_3
REMARK    3  A    between atoms: C_3  and  C_5
REMARK    4  A    between atoms: N_7  and  C_24
REMARK    5  A    between atoms: N_14  and  C_17
REMARK                            x       y       z     vdW  Elec       q    Type
REMARK                         _______ _______ _______ _____ _____    ______ ____
ROOT
ATOM      1  C   UNL     1       0.448  -2.254  -0.922  0.00  0.00    +0.157 C 
ATOM      2  N   UNL     1       0.130  -3.241  -0.146  0.00  0.00    -0.176 NA
ATOM      3  N   UNL     1       0.525  -4.488  -0.624  0.00  0.00    -0.211 N 
ATOM      4  C   UNL     1       1.212  -4.314  -1.912  0.00  0.00    +0.203 C 
ATOM      5  C   UNL     1       1.165  -2.780  -2.143  0.00  0.00    +0.164 C 
ATOM      6  C   UNL     1       0.276  -2.634  -3.358  0.00  0.00    +0.238 C 
ATOM      7  O   UNL     1      -0.026  -1.583  -3.883  0.00  0.00    -0.274 OA
ATOM      8  N   UNL     1      -0.126  -3.844  -3.762  0.00  0.00    -0.208 N 
ATOM      9  C   UNL     1       0.355  -4.873  -3.025  0.00  0.00    +0.250 C 
ATOM     10  O   UNL     1       0.129  -6.050  -3.212  0.00  0.00    -0.273 OA
ENDROOT
BRANCH   8  11
ATOM     11  C   UNL     1      -0.965  -4.034  -4.870  0.00  0.00    +0.044 A 
ATOM     12  C   UNL     1      -0.506  -3.747  -6.148  0.00  0.00    +0.025 A 
ATOM     13  C   UNL     1      -1.335  -3.934  -7.237  0.00  0.00    +0.017 A 
ATOM     14  C   UNL     1      -2.622  -4.408  -7.054  0.00  0.00    +0.018 A 
ATOM     15  C   UNL     1      -3.082  -4.695  -5.782  0.00  0.00    +0.017 A 
ATOM     16  C   UNL     1      -2.255  -4.514  -4.690  0.00  0.00    +0.025 A 
ATOM     17 BR   UNL     1      -3.754  -4.663  -8.547  0.00  0.00    -0.050 Br
ENDBRANCH   8  11
BRANCH   3  18
ATOM     18  C   UNL     1       0.304  -5.708   0.017  0.00  0.00    +0.052 A 
ATOM     19  C   UNL     1       0.754  -6.890  -0.560  0.00  0.00    +0.026 A 
ATOM     20  C   UNL     1       0.534  -8.095   0.077  0.00  0.00    +0.017 A 
ATOM     21  C   UNL     1      -0.134  -8.127   1.288  0.00  0.00    +0.018 A 
ATOM     22  C   UNL     1      -0.583  -6.952   1.866  0.00  0.00    +0.017 A 
ATOM     23  C   UNL     1      -0.361  -5.743   1.237  0.00  0.00    +0.026 A 
ATOM     24 BR   UNL     1      -0.433  -9.780   2.157  0.00  0.00    -0.050 Br
ENDBRANCH   3  18
BRANCH   1  25
ATOM     25  C   UNL     1       0.162  -0.889  -0.666  0.00  0.00    +0.356 C 
ATOM     26  O   UNL     1       0.502  -0.037  -1.465  0.00  0.00    -0.244 OA
BRANCH  25  28
ATOM     27  C   UNL     1      -0.741   0.858   0.655  0.00  0.00    +0.280 C 
ATOM     28  O   UNL     1      -0.486  -0.535   0.463  0.00  0.00    -0.464 OA
ENDBRANCH  25  28
ENDBRANCH   1  25
TORSDOF 4
