REMARK  Name = ZINC17102829
REMARK  5 active torsions:
REMARK  status: ('A' for Active; 'I' for Inactive)
REMARK    1  A    between atoms: C_1  and  C_2
REMARK    2  A    between atoms: C_9  and  C_21
REMARK    3  A    between atoms: C_11  and  C_12
REMARK    4  A    between atoms: N_14  and  N_15
REMARK    5  A    between atoms: C_20  and  N_54
REMARK                            x       y       z     vdW  Elec       q    Type
REMARK                         _______ _______ _______ _____ _____    ______ ____
ROOT
ATOM      1  C   UNL     1      -3.713  -1.867  -0.330  0.00  0.00    +0.047 C 
ATOM      2  C   UNL     1      -2.432  -2.655  -0.235  0.00  0.00    -0.006 A 
ATOM      3  C   UNL     1      -2.463  -4.016  -0.262  0.00  0.00    +0.046 A 
ATOM      4  C   UNL     1      -1.289  -4.764  -0.176  0.00  0.00    +0.021 A 
ATOM      5  C   UNL     1      -0.077  -4.150  -0.063  0.00  0.00    +0.012 A 
ATOM      6  C   UNL     1      -0.010  -2.753  -0.033  0.00  0.00    +0.013 A 
ATOM      7  C   UNL     1      -1.200  -1.987  -0.119  0.00  0.00    +0.077 A 
ATOM      8  N   UNL     1      -1.139  -0.654  -0.091  0.00  0.00    -0.246 NA
ATOM      9  C   UNL     1       0.001  -0.004   0.016  0.00  0.00    +0.073 A 
ATOM     10  C   UNL     1       1.236  -0.665   0.103  0.00  0.00    +0.042 A 
ATOM     11  C   UNL     1       1.269  -2.052   0.088  0.00  0.00    +0.049 A 
ATOM     12 CL   UNL     1      -3.988  -4.834  -0.405  0.00  0.00    -0.083 Cl
ENDROOT
BRANCH   9  13
ATOM     13  C   UNL     1      -0.020   1.477   0.040  0.00  0.00    +0.004 A 
ATOM     14  C   UNL     1       1.176   2.193   0.048  0.00  0.00    +0.014 A 
ATOM     15  C   UNL     1       1.155   3.572   0.070  0.00  0.00    +0.050 A 
ATOM     16  C   UNL     1      -0.054   4.251   0.085  0.00  0.00    +0.166 A 
ATOM     17  C   UNL     1      -1.254   3.541   0.077  0.00  0.00    +0.167 A 
ATOM     18  C   UNL     1      -1.237   2.158   0.050  0.00  0.00    +0.059 A 
ATOM     19  O   UNL     1      -2.288   4.431   0.094  0.00  0.00    -0.453 OA
ATOM     20  C   UNL     1      -1.716   5.692  -0.299  0.00  0.00    +0.466 C 
ATOM     21  O   UNL     1      -0.339   5.586   0.108  0.00  0.00    -0.453 OA
ENDBRANCH   9  13
BRANCH  11  22
ATOM     22  C   UNL     1       2.546  -2.792   0.182  0.00  0.00    +0.258 C 
ATOM     23  O   UNL     1       2.541  -4.004   0.271  0.00  0.00    -0.269 OA
ATOM     24  N   UNL     1       3.716  -2.123   0.169  0.00  0.00    -0.244 N 
ATOM     25  H   UNL     1       3.720  -1.155   0.098  0.00  0.00    +0.170 HD
BRANCH  24  26
ATOM     26  N   UNL     1       4.895  -2.806   0.256  0.00  0.00    -0.230 NA
ATOM     27  C   UNL     1       5.617  -2.457   1.487  0.00  0.00    +0.087 C 
ATOM     28  C   UNL     1       6.890  -3.300   1.586  0.00  0.00    -0.062 C 
ATOM     29  C   UNL     1       7.005  -3.409  -0.829  0.00  0.00    -0.062 C 
ATOM     30  C   UNL     1       5.732  -2.565  -0.928  0.00  0.00    +0.087 C 
ATOM     31  C   UNL     1       8.995  -3.794   0.496  0.00  0.00    -0.096 C 
ATOM     32  N   UNL     1       7.732  -3.032   0.401  0.00  0.00    +0.380 N 
ATOM     33  H   UNL     1       7.950  -2.029   0.366  0.00  0.00    -0.082 HD
ENDBRANCH  24  26
ENDBRANCH  11  22
TORSDOF 3
