REMARK  Name = ZINC39861973
REMARK  8 active torsions:
REMARK  status: ('A' for Active; 'I' for Inactive)
REMARK    1  A    between atoms: C_1  and  C_2
REMARK    2  A    between atoms: C_5  and  C_11
REMARK    3  A    between atoms: C_6  and  N_8
REMARK    4  A    between atoms: C_14  and  C_16
REMARK    5  A    between atoms: N_20  and  C_24
REMARK    6  A    between atoms: C_24  and  C_26
REMARK    7  A    between atoms: C_24  and  C_30
REMARK    8  A    between atoms: C_26  and  C_27
REMARK                            x       y       z     vdW  Elec       q    Type
REMARK                         _______ _______ _______ _____ _____    ______ ____
ROOT
ATOM      1  C   UNL     1       1.309  -7.399   0.973  0.00  0.00    +0.066 C 
ATOM      2  C   UNL     1       2.438  -7.202   1.785  0.00  0.00    +0.080 C 
ATOM      3  C   UNL     1       3.022  -5.923   2.278  0.00  0.00    +0.259 C 
ATOM      4  O   UNL     1       2.536  -4.845   2.001  0.00  0.00    -0.269 OA
ATOM      5  N   UNL     1       4.103  -6.030   3.037  0.00  0.00    -0.241 N 
ATOM      6  C   UNL     1       4.590  -7.258   3.305  0.00  0.00    +0.121 C 
ATOM      7  S   UNL     1       5.958  -7.671   4.249  0.00  0.00    -0.027 S 
ATOM      8  S   UNL     1       3.470  -8.351   2.453  0.00  0.00    -0.061 S 
ENDROOT
BRANCH   1  12
ATOM      9  C   UNL     1      -0.367  -4.305   0.584  0.00  0.00    +0.138 A 
ATOM     10  C   UNL     1      -1.133  -5.079  -0.312  0.00  0.00    +0.050 A 
ATOM     11  C   UNL     1      -0.625  -6.342  -0.301  0.00  0.00    +0.050 A 
ATOM     12  C   UNL     1       0.496  -6.326   0.644  0.00  0.00    +0.130 A 
ATOM     13  O   UNL     1       0.593  -5.069   1.131  0.00  0.00    -0.455 OA
BRANCH   9  18
ATOM     14  C   UNL     1      -1.212   1.264   1.705  0.00  0.00    +0.044 C 
ATOM     15  C   UNL     1      -0.990  -0.198   1.411  0.00  0.00    -0.048 A 
ATOM     16  C   UNL     1      -0.914  -0.631   0.096  0.00  0.00    +0.004 A 
ATOM     17  C   UNL     1      -0.712  -1.964  -0.184  0.00  0.00    +0.014 A 
ATOM     18  C   UNL     1      -0.582  -2.886   0.870  0.00  0.00    +0.047 A 
ATOM     19  C   UNL     1      -0.661  -2.436   2.199  0.00  0.00    +0.137 A 
ATOM     20  C   UNL     1      -0.858  -1.098   2.457  0.00  0.00    +0.036 A 
BRANCH  19  21
ATOM     21  N   UNL     1      -0.527  -3.396   3.318  0.00  0.00    +0.057 N 
ATOM     22  O   UNL     1      -0.601  -2.971   4.562  0.00  0.00    -0.126 OA
ATOM     23  O   UNL     1      -0.333  -4.675   3.068  0.00  0.00    -0.126 OA
ENDBRANCH  19  21
ENDBRANCH   9  18
ENDBRANCH   1  12
BRANCH   5  24
ATOM     24  C   UNL     1       4.758  -4.835   3.574  0.00  0.00    +0.204 C 
BRANCH  24  25
ATOM     25  C   UNL     1       6.178  -4.772   3.074  0.00  0.00    +0.377 C 
ATOM     26  O   UNL     1       6.721  -3.692   2.915  0.00  0.00    -0.244 OA
ATOM     27  O   UNL     1       6.784  -5.801   2.829  0.00  0.00    -0.244 OA
ENDBRANCH  24  25
BRANCH  24  28
ATOM     28  C   UNL     1       4.758  -4.897   5.103  0.00  0.00    +0.130 C 
BRANCH  28  29
ATOM     29  C   UNL     1       3.340  -4.836   5.608  0.00  0.00    +0.213 C 
ATOM     30  O   UNL     1       2.419  -4.750   4.823  0.00  0.00    -0.276 OA
ATOM     31  N   UNL     1       3.094  -4.875   6.933  0.00  0.00    -0.329 N 
ATOM     32  H   UNL     1       3.830  -4.943   7.561  0.00  0.00    +0.145 HD
ATOM     33  H   UNL     1       2.180  -4.836   7.258  0.00  0.00    +0.145 HD
ENDBRANCH  28  29
ENDBRANCH  24  28
ENDBRANCH   5  24
TORSDOF 7
