REMARK  Name = ZINC13404282
REMARK  7 active torsions:
REMARK  status: ('A' for Active; 'I' for Inactive)
REMARK    1  A    between atoms: C_1  and  C_2
REMARK    2  A    between atoms: C_5  and  C_16
REMARK    3  A    between atoms: C_7  and  N_8
REMARK    4  A    between atoms: C_9  and  C_11
REMARK    5  A    between atoms: N_18  and  C_19
REMARK    6  A    between atoms: C_22  and  C_25
REMARK    7  A    between atoms: C_26  and  C_27
REMARK                            x       y       z     vdW  Elec       q    Type
REMARK                         _______ _______ _______ _____ _____    ______ ____
ROOT
ATOM      1  C   UNL     1       7.296   8.119  -0.461  0.00  0.00    +0.045 C 
ATOM      2  C   UNL     1       5.994   7.364  -0.381  0.00  0.00    -0.029 A 
ATOM      3  C   UNL     1       6.002   5.986  -0.276  0.00  0.00    +0.006 A 
ATOM      4  C   UNL     1       4.814   5.288  -0.196  0.00  0.00    +0.013 A 
ATOM      5  C   UNL     1       3.598   5.974  -0.233  0.00  0.00    +0.039 A 
ATOM      6  C   UNL     1       3.590   7.365  -0.339  0.00  0.00    +0.036 A 
ATOM      7  C   UNL     1       4.790   8.057  -0.413  0.00  0.00    +0.037 A 
ENDROOT
BRANCH   7   8
ATOM      8  N   UNL     1       4.787   9.451  -0.520  0.00  0.00    -0.279 N 
ATOM      9  C   UNL     1       3.703  10.088  -1.005  0.00  0.00    +0.284 C 
ATOM     10  O   UNL     1       2.765   9.447  -1.440  0.00  0.00    -0.266 OA
ATOM     11  H   UNL     1       5.566   9.960  -0.246  0.00  0.00    +0.155 HD
BRANCH   9  12
ATOM     12  C   UNL     1       3.653  11.553  -1.006  0.00  0.00    +0.189 A 
ATOM     13  C   UNL     1       2.621  12.320  -1.465  0.00  0.00    +0.054 A 
ATOM     14  C   UNL     1       2.997  13.659  -1.275  0.00  0.00    +0.042 A 
ATOM     15  C   UNL     1       4.227  13.651  -0.715  0.00  0.00    +0.196 A 
ATOM     16  O   UNL     1       4.617  12.380  -0.550  0.00  0.00    -0.458 OA
ENDBRANCH   9  12
ENDBRANCH   7   8
BRANCH   5  17
ATOM     17  C   UNL     1       2.324   5.229  -0.153  0.00  0.00    +0.248 C 
ATOM     18  O   UNL     1       1.267   5.829  -0.180  0.00  0.00    -0.270 OA
ATOM     19  N   UNL     1       2.334   3.885  -0.051  0.00  0.00    -0.282 N 
ATOM     20  H   UNL     1       3.176   3.413   0.046  0.00  0.00    +0.155 HD
BRANCH  19  21
ATOM     21  C   UNL     1       1.136   3.175  -0.084  0.00  0.00    +0.034 A 
ATOM     22  C   UNL     1       0.080   3.631  -0.868  0.00  0.00    +0.024 A 
ATOM     23  C   UNL     1      -1.105   2.933  -0.904  0.00  0.00    +0.010 A 
ATOM     24  C   UNL     1      -1.250   1.764  -0.146  0.00  0.00    -0.025 A 
ATOM     25  C   UNL     1      -0.183   1.306   0.637  0.00  0.00    +0.010 A 
ATOM     26  C   UNL     1       0.998   2.011   0.667  0.00  0.00    +0.024 A 
BRANCH  24  27
ATOM     27  C   UNL     1      -2.515   1.018  -0.177  0.00  0.00    +0.015 C 
ATOM     28  C   UNL     1      -2.652  -0.110   0.554  0.00  0.00    +0.096 C 
BRANCH  28  29
ATOM     29  C   UNL     1      -3.873  -0.830   0.524  0.00  0.00    +0.380 C 
ATOM     30  O   UNL     1      -4.797  -0.433  -0.160  0.00  0.00    -0.241 OA
ATOM     31  O   UNL     1      -4.011  -1.956   1.256  0.00  0.00    -0.241 OA
ENDBRANCH  28  29
ENDBRANCH  24  27
ENDBRANCH  19  21
ENDBRANCH   5  17
TORSDOF 6
