REMARK  Name = ZINC15958455
REMARK  5 active torsions:
REMARK  status: ('A' for Active; 'I' for Inactive)
REMARK    1  A    between atoms: C_1  and  C_2
REMARK    2  A    between atoms: C_17  and  C_20
REMARK    3  A    between atoms: C_20  and  C_21
REMARK    4  A    between atoms: N_26  and  C_29
REMARK    5  A    between atoms: C_32  and  C_35
REMARK                            x       y       z     vdW  Elec       q    Type
REMARK                         _______ _______ _______ _____ _____    ______ ____
ROOT
ATOM      1  C   UNL     1       0.185   1.518  -0.061  0.00  0.00    +0.044 C 
ATOM      2  C   UNL     1       0.187   0.011  -0.059  0.00  0.00    -0.049 A 
ATOM      3  C   UNL     1       0.137  -0.684  -1.255  0.00  0.00    +0.011 A 
ATOM      4  C   UNL     1       0.139  -2.061  -1.253  0.00  0.00    +0.005 A 
ATOM      5  C   UNL     1       0.190  -2.768  -0.055  0.00  0.00    +0.057 A 
ATOM      6  C   UNL     1       0.242  -2.061   1.145  0.00  0.00    +0.063 A 
ATOM      7  C   UNL     1       0.244  -0.680   1.137  0.00  0.00    +0.025 A 
ATOM      8 CL   UNL     1       0.307  -2.918   2.653  0.00  0.00    -0.082 Cl
ATOM      9  N   UNL     1       0.180  -4.143  -0.305  0.00  0.00    -0.282 N 
ATOM     10  C   UNL     1       0.126  -4.419  -1.622  0.00  0.00    +0.243 C 
ATOM     11  O   UNL     1       0.106  -5.520  -2.131  0.00  0.00    -0.273 OA
ATOM     12  C   UNL     1       0.094  -3.097  -2.340  0.00  0.00    +0.136 C 
ATOM     13  C   UNL     1      -1.169  -2.958  -3.199  0.00  0.00    +0.123 C 
ATOM     14  C   UNL     1      -0.708  -3.336  -4.635  0.00  0.00    +0.108 C 
ATOM     15  C   UNL     1       0.787  -3.693  -4.490  0.00  0.00    +0.076 C 
ATOM     16  N   UNL     1       1.232  -2.960  -3.267  0.00  0.00    -0.295 NA
ATOM     17  C   UNL     1      -0.855  -2.041  -5.401  0.00  0.00    +0.232 C 
ATOM     18  O   UNL     1      -0.591  -1.887  -6.574  0.00  0.00    -0.274 OA
ATOM     19  N   UNL     1      -1.323  -1.091  -4.583  0.00  0.00    -0.210 N 
ATOM     20  C   UNL     1      -1.547  -1.498  -3.312  0.00  0.00    +0.233 C 
ATOM     21  O   UNL     1      -1.977  -0.814  -2.408  0.00  0.00    -0.274 OA
ATOM     22  H   UNL     1       0.210  -4.819   0.390  0.00  0.00    +0.155 HD
ATOM     23  H   UNL     1       1.422  -1.989  -3.465  0.00  0.00    +0.124 HD
ENDROOT
BRANCH  19  24
ATOM     24  C   UNL     1      -1.569   0.218  -5.007  0.00  0.00    +0.044 A 
ATOM     25  C   UNL     1      -2.873   0.700  -5.052  0.00  0.00    +0.025 A 
ATOM     26  C   UNL     1      -3.118   1.989  -5.470  0.00  0.00    +0.015 A 
ATOM     27  C   UNL     1      -2.055   2.813  -5.848  0.00  0.00    +0.037 A 
ATOM     28  C   UNL     1      -0.747   2.326  -5.801  0.00  0.00    +0.015 A 
ATOM     29  C   UNL     1      -0.508   1.037  -5.378  0.00  0.00    +0.025 A 
BRANCH  27  30
ATOM     30  C   UNL     1      -2.315   4.196  -6.296  0.00  0.00    +0.242 C 
ATOM     31  O   UNL     1      -3.454   4.618  -6.337  0.00  0.00    -0.270 OA
ATOM     32  N   UNL     1      -1.288   4.989  -6.661  0.00  0.00    -0.325 N 
ATOM     33  H   UNL     1      -0.380   4.653  -6.629  0.00  0.00    +0.145 HD
ATOM     34  H   UNL     1      -1.459   5.898  -6.956  0.00  0.00    +0.145 HD
ENDBRANCH  27  30
ENDBRANCH  19  24
BRANCH  15  35
ATOM     35  C   UNL     1       1.572  -3.198  -5.706  0.00  0.00    +0.115 C 
BRANCH  35  36
ATOM     36  C   UNL     1       3.002  -3.662  -5.604  0.00  0.00    +0.212 C 
ATOM     37  O   UNL     1       3.358  -4.324  -4.652  0.00  0.00    -0.276 OA
ATOM     38  N   UNL     1       3.885  -3.343  -6.570  0.00  0.00    -0.329 N 
ATOM     39  H   UNL     1       3.601  -2.813  -7.332  0.00  0.00    +0.145 HD
ATOM     40  H   UNL     1       4.806  -3.642  -6.504  0.00  0.00    +0.145 HD
ENDBRANCH  35  36
ENDBRANCH  15  35
TORSDOF 4
