REMARK  Name = ZINC31055813
REMARK  6 active torsions:
REMARK  status: ('A' for Active; 'I' for Inactive)
REMARK    1  A    between atoms: C_3  and  N_31
REMARK    2  A    between atoms: C_6  and  N_7
REMARK    3  A    between atoms: C_8  and  C_10
REMARK    4  A    between atoms: N_15  and  C_17
REMARK    5  A    between atoms: C_17  and  C_18
REMARK    6  A    between atoms: C_20  and  C_23
REMARK                            x       y       z     vdW  Elec       q    Type
REMARK                         _______ _______ _______ _____ _____    ______ ____
ROOT
ATOM      1  C   UNL     1       2.562   6.920  -2.858  0.00  0.00    +0.059 C 
ATOM      2  C   UNL     1       1.329   6.821  -3.761  0.00  0.00    +0.009 C 
ATOM      3  C   UNL     1       0.744   5.409  -3.659  0.00  0.00    -0.018 C 
ATOM      4  C   UNL     1       0.400   5.109  -2.199  0.00  0.00    -0.078 C 
ATOM      5  N   UNL     1       1.611   5.217  -1.376  0.00  0.00    +0.386 N 
ATOM      6  C   UNL     1       2.164   6.577  -1.421  0.00  0.00    -0.065 C 
ATOM      7  H   UNL     1       2.365   4.535  -1.798  0.00  0.00    -0.081 HD
ENDROOT
BRANCH   1   9
ATOM      8  N   UNL     1       3.525   8.845  -4.078  0.00  0.00    -0.285 N 
ATOM      9  C   UNL     1       3.108   8.324  -2.907  0.00  0.00    +0.218 C 
ATOM     10  O   UNL     1       3.174   8.985  -1.892  0.00  0.00    -0.275 OA
ATOM     11  H   UNL     1       3.534   8.222  -4.985  0.00  0.00    +0.155 HD
BRANCH   8  17
ATOM     12  C   UNL     1       3.691  10.934  -5.279  0.00  0.00    +0.025 A 
ATOM     13  C   UNL     1       4.101  12.251  -5.338  0.00  0.00    +0.025 A 
ATOM     14  C   UNL     1       4.778  12.817  -4.266  0.00  0.00    +0.036 A 
ATOM     15  C   UNL     1       5.037  12.060  -3.131  0.00  0.00    +0.025 A 
ATOM     16  C   UNL     1       4.622  10.745  -3.069  0.00  0.00    +0.025 A 
ATOM     17  C   UNL     1       3.946  10.179  -4.141  0.00  0.00    +0.034 A 
BRANCH  14  18
ATOM     18  N   UNL     1       5.198  14.152  -4.329  0.00  0.00    -0.271 N 
ATOM     19  C   UNL     1       4.880  15.069  -5.429  0.00  0.00    +0.114 C 
ATOM     20  C   UNL     1       5.155  16.487  -4.875  0.00  0.00    +0.029 C 
ATOM     21  C   UNL     1       6.205  16.195  -3.778  0.00  0.00    +0.098 C 
ATOM     22  C   UNL     1       5.949  14.755  -3.391  0.00  0.00    +0.220 C 
ATOM     23  O   UNL     1       6.361  14.223  -2.383  0.00  0.00    -0.275 OA
ENDBRANCH  14  18
ENDBRANCH   8  17
ENDBRANCH   1   9
BRANCH   5  24
ATOM     24  C   UNL     1       1.347   4.801   0.008  0.00  0.00    +0.022 C 
BRANCH  24  25
ATOM     25  C   UNL     1       0.561   3.515   0.005  0.00  0.00    +0.211 A 
ATOM     26  N   UNL     1       1.054   2.302   0.009  0.00  0.00    -0.193 NA
ATOM     27  C   UNL     1      -0.015   1.475   0.004  0.00  0.00    +0.203 A 
ATOM     28  N   UNL     1      -1.085   2.228  -0.009  0.00  0.00    -0.056 NA
ATOM     29  O   UNL     1      -0.770   3.399  -0.003  0.00  0.00    -0.340 OA
BRANCH  27  30
ATOM     30  C   UNL     1       0.018  -0.008   0.006  0.00  0.00    +0.041 A 
ATOM     31  C   UNL     1       1.239  -0.680   0.008  0.00  0.00    +0.014 A 
ATOM     32  C   UNL     1       1.265  -2.060   0.017  0.00  0.00    +0.021 A 
ATOM     33  C   UNL     1       0.080  -2.777   0.010  0.00  0.00    +0.042 A 
ATOM     34  C   UNL     1      -1.135  -2.116   0.002  0.00  0.00    +0.040 A 
ATOM     35  C   UNL     1      -1.172  -0.735   0.000  0.00  0.00    +0.053 A 
ATOM     36 CL   UNL     1      -2.697   0.094  -0.010  0.00  0.00    -0.083 Cl
ATOM     37 CL   UNL     1       0.121  -4.513   0.013  0.00  0.00    -0.083 Cl
ENDBRANCH  27  30
ENDBRANCH  24  25
ENDBRANCH   5  24
TORSDOF 6
