REMARK  Name = ZINC40798834
REMARK  4 active torsions:
REMARK  status: ('A' for Active; 'I' for Inactive)
REMARK    1  A    between atoms: C_1  and  C_2
REMARK    2  A    between atoms: C_10  and  N_28
REMARK    3  A    between atoms: C_11  and  N_15
REMARK    4  A    between atoms: N_18  and  C_21
REMARK                            x       y       z     vdW  Elec       q    Type
REMARK                         _______ _______ _______ _____ _____    ______ ____
ROOT
ATOM      1  C   UNL     1      -0.145   1.492  -0.171  0.00  0.00    +0.045 C 
ATOM      2  C   UNL     1      -0.089  -0.009  -0.055  0.00  0.00    -0.032 A 
ATOM      3  C   UNL     1      -0.049  -0.615   1.194  0.00  0.00    +0.008 A 
ATOM      4  C   UNL     1       0.002  -1.996   1.257  0.00  0.00    +0.044 A 
ATOM      5  C   UNL     1       0.011  -2.727   0.073  0.00  0.00    +0.124 A 
ATOM      6  N   UNL     1      -0.028  -2.111  -1.099  0.00  0.00    -0.240 NA
ATOM      7  C   UNL     1      -0.082  -0.796  -1.189  0.00  0.00    +0.116 A 
ATOM      8  N   UNL     1       0.062  -4.116   0.121  0.00  0.00    -0.284 N 
ATOM      9  C   UNL     1      -0.040  -4.857  -1.052  0.00  0.00    +0.127 A 
ATOM     10  C   UNL     1      -0.133  -6.249  -1.005  0.00  0.00    +0.104 A 
ATOM     11  C   UNL     1      -0.234  -6.944  -2.212  0.00  0.00    +0.147 A 
ATOM     12  N   UNL     1      -0.237  -6.258  -3.353  0.00  0.00    -0.221 NA
ATOM     13  C   UNL     1      -0.147  -4.943  -3.352  0.00  0.00    +0.200 A 
ATOM     14  N   UNL     1      -0.056  -4.249  -2.236  0.00  0.00    -0.333 N 
ATOM     15  H   UNL     1       0.170  -4.568   0.972  0.00  0.00    +0.155 HD
ATOM     16  H   UNL     1       0.004  -3.282  -2.278  0.00  0.00    +0.168 HD
ENDROOT
BRANCH  11  17
ATOM     17  N   UNL     1      -0.328  -8.330  -2.223  0.00  0.00    -0.311 N 
ATOM     18  C   UNL     1      -1.631  -8.992  -2.069  0.00  0.00    +0.125 C 
ATOM     19  C   UNL     1      -1.846  -9.933  -3.261  0.00  0.00    +0.124 C 
ATOM     20  N   UNL     1      -0.645 -10.764  -3.426  0.00  0.00    -0.325 N 
ATOM     21  C   UNL     1       0.658 -10.102  -3.579  0.00  0.00    +0.124 C 
ATOM     22  C   UNL     1       0.872  -9.161  -2.393  0.00  0.00    +0.125 C 
BRANCH  20  23
ATOM     23  C   UNL     1      -0.740 -12.159  -3.436  0.00  0.00    +0.065 A 
ATOM     24  C   UNL     1      -0.932 -12.834  -4.634  0.00  0.00    +0.026 A 
ATOM     25  C   UNL     1      -1.026 -14.213  -4.641  0.00  0.00    +0.002 A 
ATOM     26  C   UNL     1      -0.929 -14.921  -3.457  0.00  0.00    +0.003 A 
ATOM     27  C   UNL     1      -0.738 -14.253  -2.262  0.00  0.00    +0.040 A 
ATOM     28  C   UNL     1      -0.637 -12.873  -2.248  0.00  0.00    +0.144 A 
ATOM     29  F   UNL     1      -0.445 -12.221  -1.080  0.00  0.00    -0.204 F 
ENDBRANCH  20  23
ENDBRANCH  11  17
BRANCH  10  30
ATOM     30  N   UNL     1      -0.125  -6.932   0.221  0.00  0.00    -0.353 N 
ATOM     31  H   UNL     1      -0.128  -6.433   1.054  0.00  0.00    +0.143 HD
ATOM     32  H   UNL     1      -0.117  -7.901   0.237  0.00  0.00    +0.143 HD
ENDBRANCH  10  30
TORSDOF 3
