REMARK  Name = ZINC42327886
REMARK  5 active torsions:
REMARK  status: ('A' for Active; 'I' for Inactive)
REMARK    1  A    between atoms: C_4  and  C_8
REMARK    2  A    between atoms: C_8  and  N_9
REMARK    3  A    between atoms: N_12  and  C_13
REMARK    4  A    between atoms: C_13  and  C_14
REMARK    5  A    between atoms: C_13  and  C_17
REMARK                            x       y       z     vdW  Elec       q    Type
REMARK                         _______ _______ _______ _____ _____    ______ ____
ROOT
ATOM      1  N   UNL     1       4.331  -2.827   0.962  0.00  0.00    -0.295 N 
ATOM      2  C   UNL     1       5.614  -2.681   1.346  0.00  0.00    +0.301 C 
ATOM      3  O   UNL     1       6.514  -2.992   0.590  0.00  0.00    -0.253 OA
ATOM      4  N   UNL     1       5.900  -2.192   2.569  0.00  0.00    -0.281 N 
ATOM      5  H   UNL     1       3.613  -2.579   1.565  0.00  0.00    +0.151 HD
ATOM      6  H   UNL     1       5.182  -1.944   3.172  0.00  0.00    +0.151 HD
ENDROOT
BRANCH   1   7
ATOM      7  C   UNL     1       4.020  -3.359  -0.367  0.00  0.00    +0.144 C 
BRANCH   7  11
ATOM      8  C   UNL     1      -0.220  -3.533  -0.876  0.00  0.00    +0.018 A 
ATOM      9  C   UNL     1       0.446  -2.334  -1.043  0.00  0.00    +0.040 A 
ATOM     10  C   UNL     1       1.819  -2.276  -0.878  0.00  0.00    +0.128 A 
ATOM     11  C   UNL     1       2.525  -3.421  -0.546  0.00  0.00    +0.006 A 
ATOM     12  C   UNL     1       1.857  -4.619  -0.380  0.00  0.00    +0.023 A 
ATOM     13  C   UNL     1       0.485  -4.676  -0.545  0.00  0.00    +0.018 A 
ATOM     14 BR   UNL     1      -0.427  -6.317  -0.318  0.00  0.00    -0.050 Br
ATOM     15  F   UNL     1       2.471  -1.104  -1.041  0.00  0.00    -0.205 F 
ENDBRANCH   7  11
ENDBRANCH   1   7
BRANCH   4  16
ATOM     16  C   UNL     1       7.295  -2.033   2.987  0.00  0.00    +0.246 C 
BRANCH  16  17
ATOM     17  C   UNL     1       7.821  -0.710   2.492  0.00  0.00    +0.240 C 
ATOM     18  O   UNL     1       7.055   0.207   2.286  0.00  0.00    -0.273 OA
ATOM     19  N   UNL     1       9.142  -0.547   2.280  0.00  0.00    -0.327 N 
ATOM     20  H   UNL     1       9.745  -1.300   2.375  0.00  0.00    +0.145 HD
ATOM     21  H   UNL     1       9.489   0.324   2.031  0.00  0.00    +0.145 HD
ENDBRANCH  16  17
BRANCH  16  22
ATOM     22  C   UNL     1       7.378  -2.076   4.491  0.00  0.00    +0.240 C 
ATOM     23  O   UNL     1       6.407  -1.789   5.159  0.00  0.00    -0.273 OA
ATOM     24  N   UNL     1       8.529  -2.434   5.093  0.00  0.00    -0.327 N 
ATOM     25  H   UNL     1       9.283  -2.732   4.560  0.00  0.00    +0.145 HD
ATOM     26  H   UNL     1       8.604  -2.393   6.059  0.00  0.00    +0.145 HD
ENDBRANCH  16  22
ENDBRANCH   4  16
TORSDOF 5
