REMARK  Name = ZINC14014449
REMARK  7 active torsions:
REMARK  status: ('A' for Active; 'I' for Inactive)
REMARK    1  A    between atoms: C_1  and  C_2
REMARK    2  A    between atoms: C_5  and  N_9
REMARK    3  A    between atoms: C_6  and  C_8
REMARK    4  A    between atoms: C_21  and  C_23
REMARK    5  A    between atoms: C_23  and  C_24
REMARK    6  A    between atoms: N_26  and  C_27
REMARK    7  A    between atoms: C_31  and  C_33
REMARK                            x       y       z     vdW  Elec       q    Type
REMARK                         _______ _______ _______ _____ _____    ______ ____
ROOT
ATOM      1  N   UNL     1       5.842   0.422  -5.099  0.00  0.00    -0.214 N 
ATOM      2  C   UNL     1       5.995   1.088  -3.921  0.00  0.00    +0.171 A 
ATOM      3  C   UNL     1       4.758   1.032  -3.258  0.00  0.00    +0.103 A 
ATOM      4  C   UNL     1       3.878   0.309  -4.092  0.00  0.00    +0.150 A 
ATOM      5  N   UNL     1       4.523  -0.044  -5.168  0.00  0.00    -0.172 NA
ATOM      6  C   UNL     1       4.633   1.651  -1.997  0.00  0.00    +0.266 A 
ATOM      7  O   UNL     1       3.570   1.616  -1.403  0.00  0.00    -0.267 OA
ATOM      8  N   UNL     1       5.710   2.294  -1.441  0.00  0.00    -0.283 N 
ATOM      9  C   UNL     1       6.874   2.299  -2.155  0.00  0.00    +0.174 A 
ATOM     10  N   UNL     1       7.010   1.728  -3.331  0.00  0.00    -0.203 NA
ATOM     11  S   UNL     1       8.068   3.196  -1.185  0.00  0.00    -0.085 S 
ATOM     12  C   UNL     1       7.024   3.612   0.260  0.00  0.00    +0.103 C 
ATOM     13  C   UNL     1       5.691   2.966  -0.142  0.00  0.00    +0.112 C 
ENDROOT
BRANCH   1  18
ATOM     14  C   UNL     1       9.852  -0.334  -9.042  0.00  0.00    +0.044 C 
ATOM     15  C   UNL     1       8.787  -0.133  -7.995  0.00  0.00    -0.050 A 
ATOM     16  C   UNL     1       8.561   1.128  -7.472  0.00  0.00    +0.005 A 
ATOM     17  C   UNL     1       7.586   1.315  -6.513  0.00  0.00    +0.028 A 
ATOM     18  C   UNL     1       6.831   0.236  -6.072  0.00  0.00    +0.071 A 
ATOM     19  C   UNL     1       7.063  -1.030  -6.595  0.00  0.00    -0.025 A 
ATOM     20  C   UNL     1       8.037  -1.210  -7.558  0.00  0.00    +0.008 A 
ATOM     21  C   UNL     1       6.250  -2.204  -6.115  0.00  0.00    +0.046 C 
ENDBRANCH   1  18
BRANCH  13  22
ATOM     22  C   UNL     1       4.616   4.055  -0.176  0.00  0.00    +0.122 C 
BRANCH  22  23
ATOM     23  C   UNL     1       4.471   4.660   1.197  0.00  0.00    +0.219 C 
ATOM     24  O   UNL     1       5.074   4.185   2.136  0.00  0.00    -0.275 OA
ATOM     25  N   UNL     1       3.672   5.730   1.381  0.00  0.00    -0.285 N 
ATOM     26  H   UNL     1       3.133   6.064   0.647  0.00  0.00    +0.155 HD
BRANCH  25  27
ATOM     27  C   UNL     1       3.621   6.359   2.631  0.00  0.00    +0.034 A 
ATOM     28  C   UNL     1       4.749   6.392   3.439  0.00  0.00    +0.026 A 
ATOM     29  C   UNL     1       4.696   7.012   4.672  0.00  0.00    +0.041 A 
ATOM     30  C   UNL     1       3.517   7.596   5.104  0.00  0.00    +0.135 A 
ATOM     31  C   UNL     1       2.393   7.570   4.297  0.00  0.00    +0.092 A 
ATOM     32  C   UNL     1       2.442   6.950   3.063  0.00  0.00    +0.038 A 
ATOM     33  F   UNL     1       3.466   8.198   6.313  0.00  0.00    -0.205 F 
BRANCH  31  34
ATOM     34  C   UNL     1       1.113   8.211   4.767  0.00  0.00    +0.420 C 
ATOM     35  F   UNL     1       0.124   8.051   3.790  0.00  0.00    -0.166 F 
ATOM     36  F   UNL     1       0.696   7.604   5.956  0.00  0.00    -0.166 F 
ATOM     37  F   UNL     1       1.330   9.575   4.991  0.00  0.00    -0.166 F 
ENDBRANCH  31  34
ENDBRANCH  25  27
ENDBRANCH  22  23
ENDBRANCH  13  22
TORSDOF 5
