REMARK  Name = ZINC35689342
REMARK  8 active torsions:
REMARK  status: ('A' for Active; 'I' for Inactive)
REMARK    1  A    between atoms: C_1  and  C_2
REMARK    2  A    between atoms: C_2  and  O_3
REMARK    3  A    between atoms: O_3  and  C_4
REMARK    4  A    between atoms: C_7  and  N_10
REMARK    5  A    between atoms: C_20  and  C_21
REMARK    6  A    between atoms: C_21  and  C_23
REMARK    7  A    between atoms: C_21  and  N_24
REMARK    8  A    between atoms: N_32  and  C_33
REMARK                            x       y       z     vdW  Elec       q    Type
REMARK                         _______ _______ _______ _____ _____    ______ ____
ROOT
ATOM      1  N   UNL     1       2.405  -5.812  -1.998  0.00  0.00    -0.266 N 
ATOM      2  C   UNL     1       2.510  -6.606  -0.906  0.00  0.00    +0.266 A 
ATOM      3  O   UNL     1       3.025  -6.204   0.121  0.00  0.00    -0.267 OA
ATOM      4  C   UNL     1       1.977  -7.972  -1.010  0.00  0.00    +0.065 A 
ATOM      5  C   UNL     1       2.034  -8.868   0.056  0.00  0.00    +0.015 A 
ATOM      6  C   UNL     1       1.519 -10.136  -0.095  0.00  0.00    +0.001 A 
ATOM      7  C   UNL     1       0.945 -10.527  -1.298  0.00  0.00    +0.002 A 
ATOM      8  C   UNL     1       0.878  -9.657  -2.363  0.00  0.00    +0.028 A 
ATOM      9  C   UNL     1       1.393  -8.366  -2.235  0.00  0.00    +0.078 A 
ATOM     10  N   UNL     1       1.348  -7.477  -3.258  0.00  0.00    -0.235 NA
ATOM     11  C   UNL     1       1.822  -6.274  -3.136  0.00  0.00    +0.104 A 
ENDROOT
BRANCH   1  15
ATOM     12  C   UNL     1       3.871  -1.910  -1.861  0.00  0.00    +0.121 A 
ATOM     13  C   UNL     1       2.714  -2.240  -1.172  0.00  0.00    +0.047 A 
ATOM     14  C   UNL     1       2.228  -3.532  -1.217  0.00  0.00    +0.030 A 
ATOM     15  C   UNL     1       2.898  -4.500  -1.952  0.00  0.00    +0.051 A 
ATOM     16  C   UNL     1       4.056  -4.169  -2.643  0.00  0.00    +0.030 A 
ATOM     17  C   UNL     1       4.538  -2.876  -2.601  0.00  0.00    +0.047 A 
BRANCH  12  18
ATOM     18  O   UNL     1       4.349  -0.638  -1.817  0.00  0.00    -0.492 OA
BRANCH  18  20
ATOM     19  C   UNL     1       4.297   1.671  -1.106  0.00  0.00    +0.048 C 
ATOM     20  C   UNL     1       3.612   0.305  -1.036  0.00  0.00    +0.225 C 
ENDBRANCH  18  20
ENDBRANCH  12  18
ENDBRANCH   1  15
BRANCH  11  21
ATOM     21  C   UNL     1       1.727  -5.345  -4.319  0.00  0.00    -0.003 C 
ATOM     22  C   UNL     1       0.373  -4.631  -4.299  0.00  0.00    -0.005 C 
BRANCH  21  23
ATOM     23  N   UNL     1       1.854  -6.118  -5.561  0.00  0.00    +0.388 N 
ATOM     24  C   UNL     1       1.718  -5.218  -6.713  0.00  0.00    -0.059 C 
ATOM     25  C   UNL     1       1.736  -6.038  -8.007  0.00  0.00    +0.091 C 
ATOM     26  N   UNL     1       2.955  -6.862  -8.020  0.00  0.00    -0.289 N 
ATOM     27  C   UNL     1       3.255  -7.675  -6.832  0.00  0.00    +0.091 C 
ATOM     28  C   UNL     1       3.166  -6.777  -5.593  0.00  0.00    -0.059 C 
ATOM     29  C   UNL     1       3.773  -6.871  -9.091  0.00  0.00    +0.306 C 
ATOM     30  O   UNL     1       3.563  -6.119 -10.023  0.00  0.00    -0.252 OA
ATOM     31  N   UNL     1       4.824  -7.713  -9.129  0.00  0.00    -0.267 N 
ATOM     32  H   UNL     1       4.938  -8.379  -8.432  0.00  0.00    +0.156 HD
ATOM     33  H   UNL     1       1.127  -6.817  -5.596  0.00  0.00    -0.081 HD
BRANCH  31  34
ATOM     34  C   UNL     1       5.753  -7.628 -10.174  0.00  0.00    +0.070 A 
ATOM     35  C   UNL     1       5.802  -6.492 -10.970  0.00  0.00    +0.026 A 
ATOM     36  C   UNL     1       6.720  -6.411 -12.000  0.00  0.00    +0.002 A 
ATOM     37  C   UNL     1       7.588  -7.459 -12.239  0.00  0.00    +0.003 A 
ATOM     38  C   UNL     1       7.543  -8.593 -11.449  0.00  0.00    +0.040 A 
ATOM     39  C   UNL     1       6.631  -8.679 -10.413  0.00  0.00    +0.145 A 
ATOM     40  F   UNL     1       6.591  -9.784  -9.637  0.00  0.00    -0.204 F 
ENDBRANCH  31  34
ENDBRANCH  21  23
ENDBRANCH  11  21
TORSDOF 6
