REMARK  Name = ZINC13769127
REMARK  6 active torsions:
REMARK  status: ('A' for Active; 'I' for Inactive)
REMARK    1  A    between atoms: C_4  and  O_7
REMARK    2  A    between atoms: O_7  and  C_8
REMARK    3  A    between atoms: C_9  and  C_19
REMARK    4  A    between atoms: C_20  and  C_21
REMARK    5  A    between atoms: C_20  and  S_23
REMARK    6  A    between atoms: S_23  and  C_26
REMARK                            x       y       z     vdW  Elec       q    Type
REMARK                         _______ _______ _______ _____ _____    ______ ____
ROOT
ATOM      1  C   UNL     1      -0.924  -1.897   0.189  0.00  0.00    +0.235 A 
ATOM      2  C   UNL     1       0.192  -2.752   0.065  0.00  0.00    +0.104 A 
ATOM      3  C   UNL     1       1.482  -2.173   0.019  0.00  0.00    +0.269 A 
ATOM      4  O   UNL     1       2.473  -2.874  -0.087  0.00  0.00    -0.266 OA
ATOM      5  N   UNL     1       1.596  -0.829   0.094  0.00  0.00    -0.268 N 
ATOM      6  C   UNL     1       2.834  -0.261   0.049  0.00  0.00    +0.096 A 
ATOM      7  C   UNL     1       2.983   1.081   0.123  0.00  0.00    +0.018 A 
ATOM      8  C   UNL     1       1.857   1.907   0.247  0.00  0.00    +0.005 A 
ATOM      9  C   UNL     1       0.615   1.348   0.291  0.00  0.00    +0.047 A 
ATOM     10  C   UNL     1       0.480  -0.050   0.214  0.00  0.00    +0.144 A 
ATOM     11  N   UNL     1      -0.740  -0.588   0.258  0.00  0.00    -0.194 NA
ENDROOT
BRANCH   2  12
ATOM     12  C   UNL     1       0.024  -4.158  -0.011  0.00  0.00    +0.057 C 
ATOM     13  C   UNL     1      -0.754  -4.697  -0.983  0.00  0.00    +0.171 C 
BRANCH  13  14
ATOM     14  S   UNL     1      -1.093  -6.426  -0.984  0.00  0.00    +0.035 S 
ATOM     15  O   UNL     1      -0.832  -6.890  -2.301  0.00  0.00    -0.164 OA
ATOM     16  O   UNL     1      -0.442  -6.968   0.158  0.00  0.00    -0.164 OA
BRANCH  14  17
ATOM     17  C   UNL     1      -2.824  -6.618  -0.715  0.00  0.00    +0.094 A 
ATOM     18  C   UNL     1      -3.314  -6.736   0.572  0.00  0.00    +0.028 A 
ATOM     19  C   UNL     1      -4.673  -6.881   0.783  0.00  0.00    +0.017 A 
ATOM     20  C   UNL     1      -5.540  -6.920  -0.294  0.00  0.00    +0.018 A 
ATOM     21  C   UNL     1      -5.047  -6.807  -1.582  0.00  0.00    +0.017 A 
ATOM     22  C   UNL     1      -3.690  -6.656  -1.792  0.00  0.00    +0.028 A 
ATOM     23 BR   UNL     1      -7.397  -7.125  -0.006  0.00  0.00    -0.050 Br
ENDBRANCH  14  17
ENDBRANCH  13  14
BRANCH  13  24
ATOM     24  C   UNL     1      -1.300  -3.860  -2.009  0.00  0.00    +0.119 C 
ATOM     25  N   UNL     1      -1.733  -3.196  -2.822  0.00  0.00    -0.189 NA
ENDBRANCH  13  24
ENDBRANCH   2  12
BRANCH   1  26
ATOM     26  O   UNL     1      -2.174  -2.412   0.237  0.00  0.00    -0.437 OA
BRANCH  26  30
ATOM     27  C   UNL     1      -5.311   0.181   0.914  0.00  0.00    +0.000 A 
ATOM     28  C   UNL     1      -4.579   0.273  -0.256  0.00  0.00    +0.004 A 
ATOM     29  C   UNL     1      -3.528  -0.594  -0.485  0.00  0.00    +0.046 A 
ATOM     30  C   UNL     1      -3.207  -1.558   0.460  0.00  0.00    +0.130 A 
ATOM     31  C   UNL     1      -3.946  -1.652   1.631  0.00  0.00    +0.046 A 
ATOM     32  C   UNL     1      -4.993  -0.779   1.857  0.00  0.00    +0.004 A 
ENDBRANCH  26  30
ENDBRANCH   1  26
TORSDOF 6
