REMARK  Name = ZINC36344383
REMARK  11 active torsions:
REMARK  status: ('A' for Active; 'I' for Inactive)
REMARK    1  A    between atoms: C_1  and  O_2
REMARK    2  A    between atoms: O_2  and  C_3
REMARK    3  A    between atoms: C_6  and  O_39
REMARK    4  A    between atoms: C_7  and  C_9
REMARK    5  A    between atoms: C_12  and  C_31
REMARK    6  A    between atoms: C_15  and  C_17
REMARK    7  A    between atoms: C_17  and  N_18
REMARK    8  A    between atoms: N_21  and  C_24
REMARK    9  A    between atoms: C_36  and  O_37
REMARK   10  A    between atoms: O_37  and  C_38
REMARK   11  A    between atoms: O_39  and  C_40
REMARK                            x       y       z     vdW  Elec       q    Type
REMARK                         _______ _______ _______ _____ _____    ______ ____
ROOT
ATOM      1  C   UNL     1      -2.535  -4.173   0.016  0.00  0.00    +0.140 C 
ATOM      2  C   UNL     1      -2.743  -4.709   1.446  0.00  0.00    +0.087 C 
ATOM      3  C   UNL     1      -1.508  -5.542   1.706  0.00  0.00    +0.072 C 
ATOM      4  N   UNL     1      -0.742  -5.510   0.670  0.00  0.00    -0.181 NA
ATOM      5  N   UNL     1      -1.239  -4.742  -0.385  0.00  0.00    -0.187 N 
ATOM      6  C   UNL     1      -0.632  -4.550  -1.573  0.00  0.00    +0.219 C 
ATOM      7  O   UNL     1      -1.160  -3.858  -2.419  0.00  0.00    -0.276 OA
ENDROOT
BRANCH   1  12
ATOM      8  C   UNL     1      -1.201  -0.638   0.010  0.00  0.00    +0.121 A 
ATOM      9  C   UNL     1      -2.374   0.102   0.020  0.00  0.00    +0.049 A 
ATOM     10  C   UNL     1      -3.596  -0.542   0.028  0.00  0.00    +0.049 A 
ATOM     11  C   UNL     1      -3.650  -1.928   0.027  0.00  0.00    +0.125 A 
ATOM     12  C   UNL     1      -2.477  -2.667   0.017  0.00  0.00    +0.020 A 
ATOM     13  C   UNL     1      -1.255  -2.023   0.003  0.00  0.00    +0.054 A 
BRANCH   8  15
ATOM     14  C   UNL     1      -0.017   1.425   0.010  0.00  0.00    +0.277 C 
ATOM     15  O   UNL     1       0.002  -0.004   0.002  0.00  0.00    -0.495 OA
ENDBRANCH   8  15
BRANCH  11  16
ATOM     16  O   UNL     1      -4.853  -2.562   0.036  0.00  0.00    -0.495 OA
ATOM     17  C   UNL     1      -6.021  -1.738   0.046  0.00  0.00    +0.277 C 
ENDBRANCH  11  16
ENDBRANCH   1  12
BRANCH   3  18
ATOM     18  C   UNL     1      -1.223  -6.277   2.951  0.00  0.00    +0.039 A 
ATOM     19  C   UNL     1      -2.134  -6.243   4.010  0.00  0.00    +0.013 A 
ATOM     20  C   UNL     1      -1.862  -6.933   5.172  0.00  0.00    +0.001 A 
ATOM     21  C   UNL     1      -0.690  -7.660   5.295  0.00  0.00    +0.004 A 
ATOM     22  C   UNL     1       0.219  -7.702   4.255  0.00  0.00    +0.046 A 
ATOM     23  C   UNL     1      -0.041  -7.019   3.078  0.00  0.00    +0.129 A 
BRANCH  23  24
ATOM     24  O   UNL     1       0.849  -7.063   2.053  0.00  0.00    -0.494 OA
ATOM     25  C   UNL     1       2.032  -7.839   2.254  0.00  0.00    +0.277 C 
ENDBRANCH  23  24
ENDBRANCH   3  18
BRANCH   6  26
ATOM     26  C   UNL     1       0.701  -5.195  -1.852  0.00  0.00    +0.021 C 
BRANCH  26  27
ATOM     27  N   UNL     1       1.146  -4.835  -3.205  0.00  0.00    +0.387 N 
ATOM     28  C   UNL     1       0.216  -5.400  -4.191  0.00  0.00    -0.059 C 
ATOM     29  C   UNL     1       0.613  -4.930  -5.594  0.00  0.00    +0.086 C 
ATOM     30  N   UNL     1       2.024  -5.279  -5.821  0.00  0.00    -0.331 N 
ATOM     31  C   UNL     1       3.007  -4.892  -4.797  0.00  0.00    +0.086 C 
ATOM     32  C   UNL     1       2.497  -5.364  -3.431  0.00  0.00    -0.059 C 
ATOM     33  H   UNL     1       1.160  -3.830  -3.297  0.00  0.00    -0.081 HD
BRANCH  30  34
ATOM     34  C   UNL     1       2.420  -5.960  -6.976  0.00  0.00    +0.065 A 
ATOM     35  C   UNL     1       2.792  -5.249  -8.109  0.00  0.00    +0.026 A 
ATOM     36  C   UNL     1       3.183  -5.924  -9.250  0.00  0.00    +0.002 A 
ATOM     37  C   UNL     1       3.204  -7.306  -9.265  0.00  0.00    +0.003 A 
ATOM     38  C   UNL     1       2.834  -8.019  -8.139  0.00  0.00    +0.040 A 
ATOM     39  C   UNL     1       2.447  -7.350  -6.992  0.00  0.00    +0.144 A 
ATOM     40  F   UNL     1       2.091  -8.046  -5.890  0.00  0.00    -0.204 F 
ENDBRANCH  30  34
ENDBRANCH  26  27
ENDBRANCH   6  26
TORSDOF 8
