REMARK  Name = ZINC32944139
REMARK  8 active torsions:
REMARK  status: ('A' for Active; 'I' for Inactive)
REMARK    1  A    between atoms: C_1  and  C_2
REMARK    2  A    between atoms: C_5  and  N_9
REMARK    3  A    between atoms: C_10  and  C_12
REMARK    4  A    between atoms: N_17  and  S_19
REMARK    5  A    between atoms: S_19  and  C_22
REMARK    6  A    between atoms: C_23  and  C_36
REMARK    7  A    between atoms: C_26  and  C_27
REMARK    8  A    between atoms: C_28  and  C_29
REMARK                            x       y       z     vdW  Elec       q    Type
REMARK                         _______ _______ _______ _____ _____    ______ ____
ROOT
ATOM      1  C   UNL     1       1.280   1.980   0.007  0.00  0.00    +0.091 C 
ATOM      2  C   UNL     1       1.343   2.874  -1.234  0.00  0.00    +0.015 C 
ATOM      3  C   UNL     1       2.642   3.682  -1.218  0.00  0.00    +0.018 C 
ATOM      4  C   UNL     1       3.836   2.722  -1.252  0.00  0.00    +0.109 C 
ATOM      5  N   UNL     1       3.706   1.766  -0.144  0.00  0.00    -0.176 NA
ATOM      6  C   UNL     1       2.459   1.001  -0.013  0.00  0.00    +0.122 C 
ENDROOT
BRANCH   1   8
ATOM      7  N   UNL     1      -1.191   1.867   0.018  0.00  0.00    -0.285 N 
ATOM      8  C   UNL     1      -0.014   1.209   0.007  0.00  0.00    +0.222 C 
ATOM      9  O   UNL     1       0.002  -0.004  -0.008  0.00  0.00    -0.275 OA
ATOM     10  H   UNL     1      -1.207   2.963   0.108  0.00  0.00    +0.155 HD
BRANCH   7  15
ATOM     11  C   UNL     1      -6.057  -1.022  -0.400  0.00  0.00    +0.047 C 
ATOM     12  C   UNL     1      -4.765  -0.255  -0.289  0.00  0.00    -0.015 A 
ATOM     13  C   UNL     1      -3.695  -0.799   0.396  0.00  0.00    +0.008 A 
ATOM     14  C   UNL     1      -2.509  -0.099   0.499  0.00  0.00    +0.024 A 
ATOM     15  C   UNL     1      -2.391   1.155  -0.086  0.00  0.00    +0.036 A 
ATOM     16  C   UNL     1      -3.468   1.704  -0.769  0.00  0.00    +0.062 A 
ATOM     17  C   UNL     1      -4.651   0.995  -0.875  0.00  0.00    +0.128 A 
ATOM     18  F   UNL     1      -5.698   1.525  -1.544  0.00  0.00    -0.205 F 
ENDBRANCH   7  15
ENDBRANCH   1   8
BRANCH   5  19
ATOM     19  S   UNL     1       4.943   1.554   0.936  0.00  0.00    +0.066 S 
ATOM     20  O   UNL     1       5.715   2.747   0.910  0.00  0.00    -0.153 OA
ATOM     21  O   UNL     1       4.358   1.051   2.130  0.00  0.00    -0.153 OA
BRANCH  19  22
ATOM     22  C   UNL     1       5.974   0.273   0.303  0.00  0.00    +0.174 A 
ATOM     23  C   UNL     1       7.086   0.396  -0.552  0.00  0.00    +0.107 A 
ATOM     24  N   UNL     1       7.537  -0.810  -0.755  0.00  0.00    -0.081 NA
ATOM     25  O   UNL     1       6.887  -1.643  -0.168  0.00  0.00    -0.353 OA
ATOM     26  C   UNL     1       5.884  -1.079   0.532  0.00  0.00    +0.187 A 
ATOM     27  C   UNL     1       7.647   1.674  -1.121  0.00  0.00    +0.071 C 
BRANCH  26  28
ATOM     28  C   UNL     1       4.896  -1.767   1.368  0.00  0.00    +0.052 C 
ATOM     29  C   UNL     1       4.939  -3.108   1.495  0.00  0.00    +0.014 C 
BRANCH  29  30
ATOM     30  C   UNL     1       3.947  -3.799   2.334  0.00  0.00    +0.010 A 
ATOM     31  C   UNL     1       2.958  -3.069   3.000  0.00  0.00    +0.011 A 
ATOM     32  C   UNL     1       2.032  -3.724   3.784  0.00  0.00    +0.001 A 
ATOM     33  C   UNL     1       2.078  -5.101   3.913  0.00  0.00    +0.003 A 
ATOM     34  C   UNL     1       3.052  -5.833   3.258  0.00  0.00    +0.039 A 
ATOM     35  C   UNL     1       3.984  -5.193   2.464  0.00  0.00    +0.131 A 
ATOM     36  F   UNL     1       4.932  -5.909   1.820  0.00  0.00    -0.205 F 
ENDBRANCH  29  30
ENDBRANCH  26  28
ENDBRANCH  19  22
ENDBRANCH   5  19
TORSDOF 6
