REMARK  Name = ZINC14542192
REMARK  6 active torsions:
REMARK  status: ('A' for Active; 'I' for Inactive)
REMARK    1  A    between atoms: C_2  and  C_3
REMARK    2  A    between atoms: C_3  and  N_4
REMARK    3  A    between atoms: C_7  and  C_9
REMARK    4  A    between atoms: C_18  and  N_69
REMARK    5  A    between atoms: C_22  and  C_23
REMARK    6  A    between atoms: C_22  and  N_69
REMARK                            x       y       z     vdW  Elec       q    Type
REMARK                         _______ _______ _______ _____ _____    ______ ____
ROOT
ATOM      1  N   UNL     1      -0.262   1.878  -2.417  0.00  0.00    -0.264 N 
ATOM      2  C   UNL     1      -0.766   1.547  -1.218  0.00  0.00    +0.043 A 
ATOM      3  C   UNL     1      -2.075   1.902  -1.220  0.00  0.00    +0.004 A 
ATOM      4  C   UNL     1      -2.320   2.465  -2.483  0.00  0.00    +0.151 A 
ATOM      5  N   UNL     1      -1.178   2.414  -3.148  0.00  0.00    -0.166 NA
ATOM      6  C   UNL     1      -3.016   1.702  -0.064  0.00  0.00    +0.023 C 
ATOM      7  C   UNL     1      -2.382   0.695   0.905  0.00  0.00    -0.067 C 
ATOM      8  C   UNL     1      -0.938   1.112   1.204  0.00  0.00    -0.009 C 
ATOM      9  C   UNL     1      -0.073   0.902  -0.045  0.00  0.00    +0.054 C 
ENDROOT
BRANCH   4  10
ATOM     10  C   UNL     1      -3.603   3.007  -2.974  0.00  0.00    +0.267 C 
ATOM     11  O   UNL     1      -4.553   3.097  -2.220  0.00  0.00    -0.268 OA
ATOM     12  N   UNL     1      -3.721   3.402  -4.257  0.00  0.00    -0.292 N 
ATOM     13  C   UNL     1      -2.634   3.176  -5.222  0.00  0.00    +0.136 C 
ATOM     14  C   UNL     1      -3.232   2.504  -6.469  0.00  0.00    +0.179 C 
ATOM     15  O   UNL     1      -4.341   3.278  -6.932  0.00  0.00    -0.377 OA
ATOM     16  C   UNL     1      -5.423   3.366  -6.001  0.00  0.00    +0.179 C 
ATOM     17  C   UNL     1      -4.939   4.078  -4.732  0.00  0.00    +0.136 C 
ENDBRANCH   4  10
BRANCH   7  18
ATOM     18  N   UNL     1      -3.158   0.676   2.159  0.00  0.00    +0.381 N 
ATOM     19  H   UNL     1      -4.152   0.819   1.945  0.00  0.00    -0.086 HD
ATOM     20  H   UNL     1      -2.829   1.431   2.773  0.00  0.00    -0.086 HD
BRANCH  18  21
ATOM     21  C   UNL     1      -2.989  -0.618   2.847  0.00  0.00    -0.078 C 
BRANCH  21  22
ATOM     22  C   UNL     1      -3.804  -0.608   4.142  0.00  0.00    -0.022 C 
ATOM     23  C   UNL     1      -3.230   0.440   5.097  0.00  0.00    -0.009 C 
ATOM     24  C   UNL     1      -1.773   0.098   5.414  0.00  0.00    +0.007 C 
ATOM     25  C   UNL     1      -1.704  -1.282   6.070  0.00  0.00    -0.010 C 
ATOM     26  C   UNL     1      -2.518  -1.272   7.365  0.00  0.00    +0.007 C 
ATOM     27  C   UNL     1      -3.976  -0.930   7.048  0.00  0.00    -0.010 C 
ATOM     28  C   UNL     1      -4.045   0.450   6.392  0.00  0.00    +0.007 C 
ATOM     29  C   UNL     1      -4.549  -1.979   6.093  0.00  0.00    +0.007 C 
ATOM     30  C   UNL     1      -3.735  -1.988   4.798  0.00  0.00    -0.009 C 
ATOM     31  C   UNL     1      -2.277  -2.330   5.115  0.00  0.00    +0.007 C 
ENDBRANCH  21  22
ENDBRANCH  18  21
ENDBRANCH   7  18
BRANCH   1  32
ATOM     32  C   UNL     1       1.126   1.663  -2.834  0.00  0.00    +0.170 C 
BRANCH  32  34
ATOM     33  C   UNL     1       1.751   0.198  -4.685  0.00  0.00    +0.006 C 
ATOM     34  C   UNL     1       1.252   0.306  -3.479  0.00  0.00    -0.012 C 
ENDBRANCH  32  34
ENDBRANCH   1  32
TORSDOF 6
