REMARK  Name = ZINC36638164
REMARK  12 active torsions:
REMARK  status: ('A' for Active; 'I' for Inactive)
REMARK    1  A    between atoms: C_1  and  C_2
REMARK    2  A    between atoms: C_2  and  N_3
REMARK    3  A    between atoms: N_3  and  C_4
REMARK    4  A    between atoms: N_3  and  C_6
REMARK    5  A    between atoms: C_4  and  C_5
REMARK    6  A    between atoms: C_6  and  C_7
REMARK    7  A    between atoms: C_7  and  N_8
REMARK    8  A    between atoms: C_13  and  O_18
REMARK    9  A    between atoms: O_18  and  C_19
REMARK   10  A    between atoms: C_20  and  C_22
REMARK   11  A    between atoms: C_25  and  S_28
REMARK   12  A    between atoms: S_28  and  N_31
REMARK                            x       y       z     vdW  Elec       q    Type
REMARK                         _______ _______ _______ _____ _____    ______ ____
ROOT
ATOM      1  N   UNL     1      -3.128  -4.301   0.564  0.00  0.00    -0.248 N 
ATOM      2  C   UNL     1      -3.555  -4.902   1.736  0.00  0.00    +0.168 A 
ATOM      3  N   UNL     1      -3.303  -6.111   2.181  0.00  0.00    -0.224 NA
ATOM      4  C   UNL     1      -3.791  -6.569   3.354  0.00  0.00    +0.084 A 
ATOM      5  C   UNL     1      -3.596  -7.840   3.942  0.00  0.00    +0.074 A 
ATOM      6  C   UNL     1      -4.170  -8.148   5.153  0.00  0.00    +0.122 A 
ATOM      7  C   UNL     1      -4.956  -7.226   5.838  0.00  0.00    +0.047 A 
ATOM      8  C   UNL     1      -5.164  -5.974   5.288  0.00  0.00    +0.021 A 
ATOM      9  C   UNL     1      -4.594  -5.660   4.079  0.00  0.00    +0.041 A 
ATOM     10  S   UNL     1      -4.582  -4.225   3.032  0.00  0.00    -0.052 S 
ATOM     11  C   UNL     1      -2.348  -4.984  -0.298  0.00  0.00    +0.252 C 
ATOM     12  O   UNL     1      -2.063  -6.144  -0.072  0.00  0.00    -0.270 OA
ENDROOT
BRANCH  11  13
ATOM     13  C   UNL     1      -1.839  -4.322  -1.518  0.00  0.00    +0.037 A 
ATOM     14  C   UNL     1      -1.600  -2.947  -1.521  0.00  0.00    +0.015 A 
ATOM     15  C   UNL     1      -1.125  -2.336  -2.663  0.00  0.00    +0.029 A 
ATOM     16  C   UNL     1      -0.886  -3.083  -3.803  0.00  0.00    +0.106 A 
ATOM     17  C   UNL     1      -1.121  -4.446  -3.806  0.00  0.00    +0.029 A 
ATOM     18  C   UNL     1      -1.591  -5.071  -2.670  0.00  0.00    +0.015 A 
BRANCH  16  19
ATOM     19  S   UNL     1      -0.280  -2.294  -5.257  0.00  0.00    +0.061 S 
ATOM     20  O   UNL     1      -0.655  -3.118  -6.353  0.00  0.00    -0.153 OA
ATOM     21  O   UNL     1      -0.659  -0.928  -5.167  0.00  0.00    -0.153 OA
BRANCH  19  22
ATOM     22  N   UNL     1       1.374  -2.332  -5.182  0.00  0.00    -0.177 NA
ATOM     23  C   UNL     1       2.227  -1.304  -4.568  0.00  0.00    +0.109 C 
ATOM     24  C   UNL     1       3.692  -1.751  -4.759  0.00  0.00    +0.018 C 
ATOM     25  C   UNL     1       3.605  -2.723  -5.965  0.00  0.00    +0.018 C 
ATOM     26  C   UNL     1       2.234  -3.405  -5.713  0.00  0.00    +0.109 C 
ENDBRANCH  19  22
ENDBRANCH  16  19
ENDBRANCH  11  13
BRANCH   6  27
ATOM     27  O   UNL     1      -3.965  -9.379   5.693  0.00  0.00    -0.495 OA
ATOM     28  C   UNL     1      -4.584  -9.646   6.954  0.00  0.00    +0.277 C 
ENDBRANCH   6  27
BRANCH   1  29
ATOM     29  C   UNL     1      -3.524  -2.924   0.260  0.00  0.00    +0.097 C 
BRANCH  29  30
ATOM     30  C   UNL     1      -2.671  -1.955   1.080  0.00  0.00    -0.059 C 
BRANCH  30  31
ATOM     31  N   UNL     1      -2.980  -0.575   0.685  0.00  0.00    +0.380 N 
ATOM     32  H   UNL     1      -2.844  -0.471  -0.310  0.00  0.00    -0.082 HD
BRANCH  31  34
ATOM     33  C   UNL     1      -4.737   1.122   0.499  0.00  0.00    -0.017 C 
ATOM     34  C   UNL     1      -4.377  -0.270   1.022  0.00  0.00    -0.082 C 
ENDBRANCH  31  34
BRANCH  31  35
ATOM     35  C   UNL     1      -2.091   0.351   1.400  0.00  0.00    -0.082 C 
ATOM     36  C   UNL     1      -0.652   0.148   0.919  0.00  0.00    -0.017 C 
ENDBRANCH  31  35
ENDBRANCH  30  31
ENDBRANCH  29  30
ENDBRANCH   1  29
TORSDOF 9
