REMARK  Name = ZINC20152293
REMARK  10 active torsions:
REMARK  status: ('A' for Active; 'I' for Inactive)
REMARK    1  A    between atoms: C_1  and  C_2
REMARK    2  A    between atoms: C_5  and  C_26
REMARK    3  A    between atoms: C_7  and  N_8
REMARK    4  A    between atoms: N_8  and  C_9
REMARK    5  A    between atoms: C_9  and  N_11
REMARK    6  A    between atoms: C_12  and  C_14
REMARK    7  A    between atoms: C_23  and  O_24
REMARK    8  A    between atoms: O_24  and  C_25
REMARK    9  A    between atoms: C_29  and  C_31
REMARK   10  A    between atoms: C_31  and  O_32
REMARK                            x       y       z     vdW  Elec       q    Type
REMARK                         _______ _______ _______ _____ _____    ______ ____
ROOT
ATOM      1  C   UNL     1      -0.056  -0.683   3.580  0.00  0.00    +0.141 C 
ATOM      2  S   UNL     1      -0.034  -2.395   3.580  0.00  0.00    -0.018 S 
ENDROOT
BRANCH   1   3
ATOM      3  N   UNL     1      -0.155  -0.011   4.744  0.00  0.00    -0.263 N 
ATOM      4  C   UNL     1      -0.237  -0.686   5.908  0.00  0.00    +0.253 C 
ATOM      5  O   UNL     1      -0.221  -1.901   5.908  0.00  0.00    -0.270 OA
ATOM      6  H   UNL     1      -0.168   0.959   4.745  0.00  0.00    +0.157 HD
BRANCH   4   7
ATOM      7  C   UNL     1      -0.345   0.050   7.182  0.00  0.00    +0.079 A 
ATOM      8  C   UNL     1      -0.369   1.436   7.177  0.00  0.00    +0.025 A 
ATOM      9  C   UNL     1      -0.473   2.129   8.390  0.00  0.00    -0.017 A 
ATOM     10  C   UNL     1      -0.500   3.536   8.422  0.00  0.00    +0.008 A 
ATOM     11  C   UNL     1      -0.602   4.181   9.616  0.00  0.00    +0.001 A 
ATOM     12  C   UNL     1      -0.680   3.469  10.812  0.00  0.00    +0.001 A 
ATOM     13  C   UNL     1      -0.656   2.108  10.821  0.00  0.00    +0.008 A 
ATOM     14  C   UNL     1      -0.552   1.405   9.608  0.00  0.00    -0.014 A 
ATOM     15  C   UNL     1      -0.526   0.000   9.586  0.00  0.00    +0.055 A 
ATOM     16  C   UNL     1      -0.431  -0.661   8.397  0.00  0.00    +0.133 A 
BRANCH  16  17
ATOM     17  O   UNL     1      -0.411  -2.019   8.384  0.00  0.00    -0.494 OA
ATOM     18  C   UNL     1      -0.501  -2.681   9.647  0.00  0.00    +0.277 C 
ENDBRANCH  16  17
ENDBRANCH   4   7
ENDBRANCH   1   3
BRANCH   1  19
ATOM     19  N   UNL     1       0.025  -0.008   2.417  0.00  0.00    -0.296 N 
ATOM     20  H   UNL     1       0.076   0.961   2.421  0.00  0.00    +0.154 HD
BRANCH  19  27
ATOM     21  C   UNL     1      -1.704   0.884   0.346  0.00  0.00    +0.045 C 
ATOM     22  C   UNL     1      -0.792  -0.302   0.164  0.00  0.00    -0.029 A 
ATOM     23  C   UNL     1      -0.779  -0.983  -1.040  0.00  0.00    +0.006 A 
ATOM     24  C   UNL     1       0.053  -2.070  -1.214  0.00  0.00    +0.012 A 
ATOM     25  C   UNL     1       0.886  -2.485  -0.173  0.00  0.00    +0.019 A 
ATOM     26  C   UNL     1       0.874  -1.798   1.040  0.00  0.00    +0.035 A 
ATOM     27  C   UNL     1       0.038  -0.704   1.204  0.00  0.00    +0.036 A 
BRANCH  25  28
ATOM     28  C   UNL     1       1.778  -3.649  -0.357  0.00  0.00    +0.135 A 
ATOM     29  C   UNL     1       1.889  -4.399  -1.486  0.00  0.00    +0.050 A 
ATOM     30  C   UNL     1       2.848  -5.396  -1.218  0.00  0.00    +0.047 A 
ATOM     31  C   UNL     1       3.270  -5.208   0.048  0.00  0.00    +0.131 A 
ATOM     32  O   UNL     1       2.626  -4.148   0.563  0.00  0.00    -0.457 OA
BRANCH  31  33
ATOM     33  C   UNL     1       4.300  -6.044   0.764  0.00  0.00    +0.230 C 
BRANCH  33  34
ATOM     34  O   UNL     1       5.599  -5.491   0.544  0.00  0.00    -0.387 OA
ATOM     35  H   UNL     1       6.312  -5.979   0.977  0.00  0.00    +0.210 HD
ENDBRANCH  33  34
ENDBRANCH  31  33
ENDBRANCH  25  28
ENDBRANCH  19  27
ENDBRANCH   1  19
TORSDOF 8
