REMARK  Name = ZINC05891379
REMARK  8 active torsions:
REMARK  status: ('A' for Active; 'I' for Inactive)
REMARK    1  A    between atoms: C_4  and  C_7
REMARK    2  A    between atoms: C_7  and  C_9
REMARK    3  A    between atoms: C_7  and  C_11
REMARK    4  A    between atoms: C_11  and  C_20
REMARK    5  A    between atoms: N_12  and  N_13
REMARK    6  A    between atoms: C_14  and  C_16
REMARK    7  A    between atoms: N_18  and  N_19
REMARK    8  A    between atoms: N_22  and  C_23
REMARK                            x       y       z     vdW  Elec       q    Type
REMARK                         _______ _______ _______ _____ _____    ______ ____
ROOT
ATOM      1  C   UNL     1      -0.645   2.015   1.188  0.00  0.00    +0.142 C 
ATOM      2  N   UNL     1      -0.075   1.571   0.105  0.00  0.00    -0.178 NA
ENDROOT
BRANCH   2   3
ATOM      3  N   UNL     1       0.609   2.455  -0.739  0.00  0.00    -0.199 N 
ATOM      4  C   UNL     1       1.292   1.982  -1.800  0.00  0.00    +0.319 C 
ATOM      5  O   UNL     1       1.315   0.789  -2.024  0.00  0.00    -0.263 OA
ATOM      6  H   UNL     1       0.591   3.409  -0.561  0.00  0.00    +0.178 HD
BRANCH   4   7
ATOM      7  C   UNL     1       2.021   2.924  -2.700  0.00  0.00    +0.314 C 
ATOM      8  O   UNL     1       1.998   4.117  -2.477  0.00  0.00    -0.264 OA
ATOM      9  N   UNL     1       2.704   2.450  -3.761  0.00  0.00    -0.246 N 
ATOM     10  H   UNL     1       2.722   1.497  -3.940  0.00  0.00    +0.169 HD
BRANCH   9  11
ATOM     11  N   UNL     1       3.370   3.312  -4.585  0.00  0.00    -0.254 NA
ATOM     12  H   UNL     1       3.833   2.815  -5.331  0.00  0.00    +0.140 HD
ATOM     13  H   UNL     1       2.748   4.017  -4.951  0.00  0.00    +0.140 HD
ENDBRANCH   9  11
ENDBRANCH   4   7
ENDBRANCH   2   3
BRANCH   1  14
ATOM     14  C   UNL     1      -0.674   3.456   1.464  0.00  0.00    +0.262 C 
ATOM     15  O   UNL     1      -0.072   4.227   0.739  0.00  0.00    -0.269 OA
ATOM     16  N   UNL     1      -1.367   3.926   2.519  0.00  0.00    -0.305 N 
ATOM     17  H   UNL     1      -1.788   3.308   3.137  0.00  0.00    +0.150 HD
BRANCH  16  18
ATOM     18  C   UNL     1      -1.484   5.371   2.735  0.00  0.00    +0.036 C 
ATOM     19  C   UNL     1      -0.089   5.975   2.909  0.00  0.00    +0.029 C 
ATOM     20  C   UNL     1      -0.212   7.484   3.134  0.00  0.00    -0.008 C 
ATOM     21  C   UNL     1      -1.043   7.746   4.391  0.00  0.00    +0.007 C 
ATOM     22  C   UNL     1      -2.437   7.142   4.217  0.00  0.00    -0.008 C 
ATOM     23  C   UNL     1      -2.315   5.633   3.992  0.00  0.00    +0.029 C 
ATOM     24  C   UNL     1      -3.124   7.783   3.009  0.00  0.00    +0.007 C 
ATOM     25  C   UNL     1      -2.293   7.521   1.751  0.00  0.00    -0.008 C 
ATOM     26  C   UNL     1      -0.898   8.125   1.926  0.00  0.00    +0.007 C 
ATOM     27  C   UNL     1      -2.170   6.012   1.527  0.00  0.00    +0.029 C 
ENDBRANCH  16  18
ENDBRANCH   1  14
BRANCH   1  28
ATOM     28  C   UNL     1      -1.274   1.049   2.158  0.00  0.00    +0.176 C 
BRANCH  28  32
ATOM     29  C   UNL     1       0.853   1.159   5.861  0.00  0.00    +0.000 A 
ATOM     30  C   UNL     1      -0.491   1.480   5.826  0.00  0.00    +0.000 A 
ATOM     31  C   UNL     1      -1.180   1.445   4.628  0.00  0.00    +0.005 A 
ATOM     32  C   UNL     1      -0.524   1.088   3.464  0.00  0.00    -0.025 A 
ATOM     33  C   UNL     1       0.819   0.762   3.500  0.00  0.00    +0.005 A 
ATOM     34  C   UNL     1       1.508   0.802   4.697  0.00  0.00    +0.000 A 
ENDBRANCH  28  32
BRANCH  28  35
ATOM     35  C   UNL     1      -1.219  -0.312   1.601  0.00  0.00    +0.077 C 
ATOM     36  N   UNL     1      -1.177  -1.363   1.171  0.00  0.00    -0.196 NA
ENDBRANCH  28  35
ENDBRANCH   1  28
TORSDOF 8
