REMARK  Name = ZINC39845445
REMARK  6 active torsions:
REMARK  status: ('A' for Active; 'I' for Inactive)
REMARK    1  A    between atoms: C_5  and  C_7
REMARK    2  A    between atoms: C_7  and  N_8
REMARK    3  A    between atoms: N_8  and  C_9
REMARK    4  A    between atoms: C_10  and  S_19
REMARK    5  A    between atoms: C_12  and  C_14
REMARK    6  A    between atoms: S_19  and  C_22
REMARK                            x       y       z     vdW  Elec       q    Type
REMARK                         _______ _______ _______ _____ _____    ______ ____
ROOT
ATOM      1  C   UNL     1       1.554  -4.047   1.575  0.00  0.00    +0.233 A 
ATOM      2  C   UNL     1       1.780  -4.643   2.771  0.00  0.00    +0.243 A 
ATOM      3  N   UNL     1       1.765  -5.970   2.577  0.00  0.00    -0.186 NA
ATOM      4  C   UNL     1       1.537  -6.208   1.305  0.00  0.00    +0.267 A 
ATOM      5  O   UNL     1       1.397  -5.030   0.664  0.00  0.00    -0.417 OA
ENDROOT
BRANCH   4   6
ATOM      6  C   UNL     1       1.445  -7.537   0.684  0.00  0.00    +0.189 A 
ATOM      7  C   UNL     1       1.215  -7.790  -0.636  0.00  0.00    +0.055 A 
ATOM      8  C   UNL     1       1.207  -9.190  -0.784  0.00  0.00    +0.042 A 
ATOM      9  C   UNL     1       1.431  -9.719   0.436  0.00  0.00    +0.196 A 
ATOM     10  O   UNL     1       1.580  -8.718   1.319  0.00  0.00    -0.458 OA
ENDBRANCH   4   6
BRANCH   2  11
ATOM     11  S   UNL     1       2.047  -3.821   4.306  0.00  0.00    +0.047 S 
ATOM     12  O   UNL     1       2.771  -4.724   5.130  0.00  0.00    -0.163 OA
ATOM     13  O   UNL     1       2.531  -2.522   3.993  0.00  0.00    -0.163 OA
BRANCH  11  14
ATOM     14  C   UNL     1       0.470  -3.602   5.061  0.00  0.00    +0.095 A 
ATOM     15  C   UNL     1      -0.266  -2.460   4.806  0.00  0.00    +0.028 A 
ATOM     16  C   UNL     1      -1.503  -2.288   5.398  0.00  0.00    +0.017 A 
ATOM     17  C   UNL     1      -2.004  -3.259   6.246  0.00  0.00    +0.018 A 
ATOM     18  C   UNL     1      -1.268  -4.402   6.501  0.00  0.00    +0.017 A 
ATOM     19  C   UNL     1      -0.033  -4.575   5.905  0.00  0.00    +0.028 A 
ATOM     20 BR   UNL     1      -3.697  -3.025   7.056  0.00  0.00    -0.050 Br
ENDBRANCH  11  14
ENDBRANCH   2  11
BRANCH   1  21
ATOM     21  N   UNL     1       1.489  -2.679   1.333  0.00  0.00    -0.308 N 
ATOM     22  H   UNL     1       1.615  -2.051   2.062  0.00  0.00    +0.149 HD
BRANCH  21  23
ATOM     23  C   UNL     1       1.229  -2.186  -0.022  0.00  0.00    +0.141 C 
BRANCH  23  28
ATOM     24  C   UNL     1      -0.017   1.378   0.010  0.00  0.00    +0.000 A 
ATOM     25  C   UNL     1       1.171   2.086   0.002  0.00  0.00    +0.001 A 
ATOM     26  C   UNL     1       2.377   1.412  -0.013  0.00  0.00    +0.020 A 
ATOM     27  C   UNL     1       2.397   0.029  -0.021  0.00  0.00    +0.046 A 
ATOM     28  C   UNL     1       1.208  -0.679  -0.013  0.00  0.00    -0.012 A 
ATOM     29  C   UNL     1       0.002  -0.004   0.002  0.00  0.00    +0.006 A 
ATOM     30 CL   UNL     1       3.912  -0.818  -0.041  0.00  0.00    -0.083 Cl
ENDBRANCH  23  28
ENDBRANCH  21  23
ENDBRANCH   1  21
TORSDOF 6
