REMARK  Name = ZINC04926405
REMARK  16 active torsions:
REMARK  status: ('A' for Active; 'I' for Inactive)
REMARK    1  A    between atoms: C_1  and  O_2
REMARK    2  A    between atoms: O_2  and  C_3
REMARK    3  A    between atoms: C_3  and  C_4
REMARK    4  A    between atoms: C_4  and  C_5
REMARK    5  A    between atoms: C_5  and  N_62
REMARK    6  A    between atoms: C_6  and  C_7
REMARK    7  A    between atoms: C_6  and  N_62
REMARK    8  A    between atoms: N_11  and  C_12
REMARK    9  A    between atoms: C_12  and  C_13
REMARK   10  A    between atoms: C_20  and  C_21
REMARK   11  A    between atoms: C_20  and  N_62
REMARK   12  A    between atoms: C_21  and  C_23
REMARK   13  A    between atoms: C_21  and  O_31
REMARK   14  A    between atoms: C_23  and  O_24
REMARK   15  A    between atoms: O_24  and  C_25
REMARK   16  A    between atoms: C_25  and  C_26
REMARK                            x       y       z     vdW  Elec       q    Type
REMARK                         _______ _______ _______ _____ _____    ______ ____
ROOT
ATOM      1  N   UNL     1      -1.232   2.528  -6.861  0.00  0.00    +0.385 N 
ATOM      2  H   UNL     1      -1.139   3.459  -6.438  0.00  0.00    -0.081 HD
ENDROOT
BRANCH   1   3
ATOM      3  C   UNL     1      -2.667   2.204  -6.997  0.00  0.00    -0.076 C 
BRANCH   3   4
ATOM      4  C   UNL     1      -2.848   0.775  -7.512  0.00  0.00    +0.009 C 
BRANCH   4   5
ATOM      5  C   UNL     1      -4.333   0.511  -7.773  0.00  0.00    +0.157 C 
BRANCH   5   7
ATOM      6  C   UNL     1      -5.855  -1.183  -8.519  0.00  0.00    +0.193 C 
ATOM      7  O   UNL     1      -4.515  -0.856  -8.146  0.00  0.00    -0.383 OA
ENDBRANCH   5   7
ENDBRANCH   4   5
ENDBRANCH   3   4
ENDBRANCH   1   3
BRANCH   1   8
ATOM      8  C   UNL     1      -0.588   2.539  -8.191  0.00  0.00    -0.024 C 
BRANCH   8   9
ATOM      9  C   UNL     1      -1.069   3.746  -8.954  0.00  0.00    +0.003 A 
ATOM     10  C   UNL     1      -2.085   3.767  -9.841  0.00  0.00    +0.021 A 
ATOM     11  C   UNL     1      -2.200   5.088 -10.318  0.00  0.00    +0.019 A 
ATOM     12  C   UNL     1      -1.252   5.824  -9.704  0.00  0.00    +0.086 A 
ATOM     13  N   UNL     1      -0.558   5.007  -8.861  0.00  0.00    -0.348 N 
BRANCH  13  14
ATOM     14  C   UNL     1       0.555   5.415  -8.000  0.00  0.00    +0.156 C 
BRANCH  14  15
ATOM     15  C   UNL     1       1.859   5.172  -8.716  0.00  0.00    -0.025 A 
ATOM     16  C   UNL     1       2.579   4.019  -8.467  0.00  0.00    +0.005 A 
ATOM     17  C   UNL     1       3.773   3.792  -9.127  0.00  0.00    +0.003 A 
ATOM     18  C   UNL     1       4.252   4.724 -10.029  0.00  0.00    +0.038 A 
ATOM     19  C   UNL     1       3.534   5.881 -10.275  0.00  0.00    +0.124 A 
ATOM     20  C   UNL     1       2.336   6.105  -9.617  0.00  0.00    +0.043 A 
ATOM     21  F   UNL     1       4.002   6.793 -11.156  0.00  0.00    -0.205 F 
ENDBRANCH  14  15
ENDBRANCH  13  14
ENDBRANCH   8   9
ENDBRANCH   1   8
BRANCH   1  22
ATOM     22  C   UNL     1      -0.571   1.535  -5.988  0.00  0.00    -0.044 C 
BRANCH  22  23
ATOM     23  C   UNL     1      -0.951   1.829  -4.535  0.00  0.00    +0.124 C 
BRANCH  23  24
ATOM     24  O   UNL     1      -2.346   1.581  -4.348  0.00  0.00    -0.391 OA
ATOM     25  H   UNL     1      -2.614   0.674  -4.547  0.00  0.00    +0.210 HD
ENDBRANCH  23  24
BRANCH  23  26
ATOM     26  C   UNL     1      -0.143   0.924  -3.603  0.00  0.00    +0.189 C 
BRANCH  26  27
ATOM     27  O   UNL     1      -0.411   1.278  -2.245  0.00  0.00    -0.370 OA
BRANCH  27  28
ATOM     28  C   UNL     1       0.298   0.489  -1.288  0.00  0.00    +0.234 C 
BRANCH  28  29
ATOM     29  C   UNL     1      -0.058   0.946   0.103  0.00  0.00    +0.130 A 
ATOM     30  C   UNL     1      -1.069   0.471   0.852  0.00  0.00    +0.047 A 
ATOM     31  C   UNL     1      -1.038   1.176   2.077  0.00  0.00    +0.041 A 
ATOM     32  C   UNL     1      -0.010   2.040   2.003  0.00  0.00    +0.195 A 
ATOM     33  O   UNL     1       0.584   1.892   0.808  0.00  0.00    -0.465 OA
ENDBRANCH  28  29
ENDBRANCH  27  28
ENDBRANCH  26  27
ENDBRANCH  23  26
ENDBRANCH  22  23
ENDBRANCH   1  22
TORSDOF 15
