REMARK  Name = ZINC42295180
REMARK  14 active torsions:
REMARK  status: ('A' for Active; 'I' for Inactive)
REMARK    1  A    between atoms: C_1  and  C_2
REMARK    2  A    between atoms: C_2  and  C_3
REMARK    3  A    between atoms: C_3  and  C_5
REMARK    4  A    between atoms: C_3  and  N_6
REMARK    5  A    between atoms: C_7  and  C_9
REMARK    6  A    between atoms: C_9  and  C_11
REMARK    7  A    between atoms: C_9  and  N_12
REMARK    8  A    between atoms: N_12  and  C_13
REMARK    9  A    between atoms: N_12  and  C_15
REMARK   10  A    between atoms: C_13  and  C_14
REMARK   11  A    between atoms: C_15  and  C_16
REMARK   12  A    between atoms: N_18  and  C_19
REMARK   13  A    between atoms: C_22  and  N_25
REMARK   14  A    between atoms: C_26  and  C_28
REMARK                            x       y       z     vdW  Elec       q    Type
REMARK                         _______ _______ _______ _____ _____    ______ ____
ROOT
ATOM      1  C   UNL     1      -6.286  -0.447   1.667  0.00  0.00    +0.020 C 
ENDROOT
BRANCH   1   2
ATOM      2  C   UNL     1      -7.738  -0.069   1.527  0.00  0.00    +0.201 C 
ATOM      3  O   UNL     1      -8.070   1.096   1.583  0.00  0.00    -0.278 OA
ATOM      4  N   UNL     1      -8.668  -1.026   1.340  0.00  0.00    -0.287 N 
ATOM      5  H   UNL     1      -8.415  -1.962   1.376  0.00  0.00    +0.155 HD
BRANCH   4   6
ATOM      6  C   UNL     1     -10.000  -0.670   1.094  0.00  0.00    +0.033 A 
ATOM      7  C   UNL     1     -10.290   0.514   0.429  0.00  0.00    +0.025 A 
ATOM      8  C   UNL     1     -11.603   0.866   0.186  0.00  0.00    +0.025 A 
ATOM      9  C   UNL     1     -12.633   0.035   0.607  0.00  0.00    +0.033 A 
ATOM     10  C   UNL     1     -12.343  -1.149   1.272  0.00  0.00    +0.025 A 
ATOM     11  C   UNL     1     -11.030  -1.503   1.509  0.00  0.00    +0.025 A 
BRANCH   9  12
ATOM     12  N   UNL     1     -13.966   0.392   0.361  0.00  0.00    -0.286 N 
ATOM     13  C   UNL     1     -14.934   0.011   1.217  0.00  0.00    +0.214 C 
ATOM     14  O   UNL     1     -14.643  -0.552   2.251  0.00  0.00    -0.276 OA
ATOM     15  C   UNL     1     -16.380   0.286   0.890  0.00  0.00    +0.109 C 
ATOM     16  H   UNL     1     -14.191   0.912  -0.426  0.00  0.00    +0.155 HD
ENDBRANCH   9  12
ENDBRANCH   4   6
ENDBRANCH   1   2
BRANCH   1  17
ATOM     17  N   UNL     1      -5.481   0.767   1.861  0.00  0.00    +0.393 N 
ATOM     18  H   UNL     1      -5.685   1.427   1.125  0.00  0.00    -0.080 HD
BRANCH  17  19
ATOM     19  C   UNL     1      -4.054   0.419   1.824  0.00  0.00    +0.017 C 
ATOM     20  C   UNL     1      -3.721  -0.228   0.478  0.00  0.00    -0.004 C 
BRANCH  19  22
ATOM     21  N   UNL     1      -2.465  -0.786   3.287  0.00  0.00    -0.314 N 
ATOM     22  C   UNL     1      -3.744  -0.549   2.937  0.00  0.00    +0.199 C 
ATOM     23  O   UNL     1      -4.646  -1.115   3.517  0.00  0.00    -0.278 OA
ATOM     24  H   UNL     1      -1.743  -0.333   2.823  0.00  0.00    +0.149 HD
BRANCH  21  25
ATOM     25  C   UNL     1      -2.163  -1.727   4.369  0.00  0.00    +0.070 C 
ATOM     26  C   UNL     1      -2.243  -1.001   5.713  0.00  0.00    +0.028 C 
BRANCH  25  28
ATOM     27  C   UNL     1      -0.708  -3.122   2.893  0.00  0.00    +0.005 C 
ATOM     28  C   UNL     1      -0.754  -2.291   4.177  0.00  0.00    +0.018 C 
ENDBRANCH  25  28
ENDBRANCH  21  25
ENDBRANCH  19  22
ENDBRANCH  17  19
BRANCH  17  29
ATOM     29  C   UNL     1      -5.805   1.367   3.161  0.00  0.00    -0.081 C 
ATOM     30  C   UNL     1      -5.019   2.669   3.332  0.00  0.00    -0.017 C 
ENDBRANCH  17  29
ENDBRANCH   1  17
TORSDOF 9
