REMARK  Name = ZINC37053797
REMARK  5 active torsions:
REMARK  status: ('A' for Active; 'I' for Inactive)
REMARK    1  A    between atoms: C_1  and  C_2
REMARK    2  A    between atoms: C_4  and  N_21
REMARK    3  A    between atoms: C_6  and  S_8
REMARK    4  A    between atoms: S_8  and  N_11
REMARK    5  A    between atoms: N_11  and  C_12
REMARK                            x       y       z     vdW  Elec       q    Type
REMARK                         _______ _______ _______ _____ _____    ______ ____
ROOT
ATOM      1  S   UNL     1       0.056  -2.967   2.717  0.00  0.00    +0.092 S 
ATOM      2  O   UNL     1      -0.502  -2.101   3.696  0.00  0.00    -0.148 OA
ATOM      3  O   UNL     1      -0.479  -4.256   2.447  0.00  0.00    -0.148 OA
ENDROOT
BRANCH   1   9
ATOM      4  C   UNL     1      -0.018   1.503   0.010  0.00  0.00    +0.044 C 
ATOM      5  C   UNL     1       0.002  -0.004   0.002  0.00  0.00    -0.047 A 
ATOM      6  C   UNL     1       0.006  -0.687  -1.198  0.00  0.00    +0.026 A 
ATOM      7  C   UNL     1       0.025  -2.076  -1.205  0.00  0.00    +0.027 A 
ATOM      8  C   UNL     1       0.041  -2.773  -0.004  0.00  0.00    +0.051 A 
ATOM      9  C   UNL     1       0.037  -2.084   1.193  0.00  0.00    +0.112 A 
ATOM     10  C   UNL     1       0.023  -0.701   1.196  0.00  0.00    +0.032 A 
BRANCH   7  11
ATOM     11  N   UNL     1       0.028  -2.770  -2.417  0.00  0.00    -0.358 N 
ATOM     12  H   UNL     1       0.017  -2.282  -3.256  0.00  0.00    +0.142 HD
ATOM     13  H   UNL     1       0.042  -3.740  -2.421  0.00  0.00    +0.142 HD
ENDBRANCH   7  11
ENDBRANCH   1   9
BRANCH   1  14
ATOM     14  N   UNL     1       1.643  -3.191   3.134  0.00  0.00    -0.095 NA
BRANCH  14  15
ATOM     15  C   UNL     1       1.968  -3.871   4.313  0.00  0.00    +0.112 A 
ATOM     16  C   UNL     1       0.961  -4.363   5.132  0.00  0.00    +0.032 A 
ATOM     17  C   UNL     1       1.282  -5.034   6.297  0.00  0.00    +0.043 A 
ATOM     18  C   UNL     1       2.608  -5.217   6.649  0.00  0.00    +0.161 A 
ATOM     19  C   UNL     1       3.618  -4.727   5.834  0.00  0.00    +0.195 A 
ATOM     20  C   UNL     1       3.300  -4.060   4.664  0.00  0.00    +0.186 A 
ATOM     21  F   UNL     1       4.283  -3.587   3.866  0.00  0.00    -0.200 F 
ATOM     22  F   UNL     1       4.911  -4.906   6.180  0.00  0.00    -0.199 F 
ATOM     23  F   UNL     1       2.919  -5.872   7.789  0.00  0.00    -0.202 F 
ENDBRANCH  14  15
ENDBRANCH   1  14
TORSDOF 4
