REMARK  Name = ZINC02973619
REMARK  6 active torsions:
REMARK  status: ('A' for Active; 'I' for Inactive)
REMARK    1  A    between atoms: C_4  and  C_7
REMARK    2  A    between atoms: C_7  and  C_9
REMARK    3  A    between atoms: C_9  and  S_10
REMARK    4  A    between atoms: S_10  and  C_11
REMARK    5  A    between atoms: N_21  and  N_22
REMARK    6  A    between atoms: N_22  and  C_23
REMARK                            x       y       z     vdW  Elec       q    Type
REMARK                         _______ _______ _______ _____ _____    ______ ____
ROOT
ATOM      1  C   UNL     1      -1.118  -2.037   0.003  0.00  0.00    +0.190 A 
ATOM      2  N   UNL     1      -1.136  -0.727   0.009  0.00  0.00    -0.222 NA
ATOM      3  C   UNL     1       0.002  -0.004   0.002  0.00  0.00    +0.079 A 
ATOM      4  C   UNL     1      -0.017   1.394   0.010  0.00  0.00    +0.028 A 
ATOM      5  C   UNL     1       1.161   2.086   0.002  0.00  0.00    +0.002 A 
ATOM      6  C   UNL     1       2.381   1.422  -0.014  0.00  0.00    +0.001 A 
ATOM      7  C   UNL     1       2.432   0.055  -0.021  0.00  0.00    +0.015 A 
ATOM      8  C   UNL     1       1.245  -0.677  -0.013  0.00  0.00    +0.066 A 
ATOM      9  C   UNL     1       1.240  -2.146  -0.021  0.00  0.00    +0.280 A 
ATOM     10  O   UNL     1       2.278  -2.781  -0.034  0.00  0.00    -0.265 OA
ATOM     11  N   UNL     1       0.037  -2.766  -0.012  0.00  0.00    -0.202 N 
ENDROOT
BRANCH  11  12
ATOM     12  N   UNL     1      -0.025  -4.166  -0.018  0.00  0.00    -0.248 N 
ATOM     13  H   UNL     1      -0.286  -4.709   0.902  0.00  0.00    +0.173 HD
BRANCH  12  14
ATOM     14  C   UNL     1       0.244  -4.866  -1.184  0.00  0.00    +0.057 A 
ATOM     15  C   UNL     1       0.570  -4.204  -2.357  0.00  0.00    +0.043 A 
ATOM     16  C   UNL     1       0.837  -4.934  -3.507  0.00  0.00    +0.085 A 
ATOM     17  N   UNL     1       0.783  -6.245  -3.524  0.00  0.00    -0.361 N 
ATOM     18  C   UNL     1       0.471  -6.949  -2.430  0.00  0.00    +0.050 A 
ATOM     19  C   UNL     1       0.189  -6.280  -1.215  0.00  0.00    +0.021 A 
ATOM     20  C   UNL     1      -0.139  -7.022  -0.072  0.00  0.00    +0.013 A 
ATOM     21  C   UNL     1      -0.182  -8.382  -0.141  0.00  0.00    +0.021 A 
ATOM     22  C   UNL     1       0.095  -9.045  -1.336  0.00  0.00    +0.043 A 
ATOM     23  C   UNL     1       0.417  -8.353  -2.464  0.00  0.00    +0.046 A 
ATOM     24 CL   UNL     1       0.030 -10.779  -1.385  0.00  0.00    -0.083 Cl
ATOM     25  H   UNL     1       0.998  -6.793  -4.454  0.00  0.00    +0.165 HD
ENDBRANCH  12  14
ENDBRANCH  11  12
BRANCH   1  26
ATOM     26  S   UNL     1      -2.655  -2.898   0.014  0.00  0.00    -0.078 S 
BRANCH  26  27
ATOM     27  C   UNL     1      -3.800  -1.496   0.033  0.00  0.00    +0.157 C 
BRANCH  27  28
ATOM     28  C   UNL     1      -5.218  -2.007   0.044  0.00  0.00    +0.173 C 
ATOM     29  O   UNL     1      -5.433  -3.200   0.041  0.00  0.00    -0.291 OA
BRANCH  28  33
ATOM     30  C   UNL     1      -8.457   0.732   0.090  0.00  0.00    +0.000 A 
ATOM     31  C   UNL     1      -8.707  -0.629   0.086  0.00  0.00    +0.001 A 
ATOM     32  C   UNL     1      -7.660  -1.526   0.071  0.00  0.00    +0.011 A 
ATOM     33  C   UNL     1      -6.342  -1.056   0.060  0.00  0.00    +0.018 A 
ATOM     34  C   UNL     1      -6.098   0.321   0.071  0.00  0.00    +0.011 A 
ATOM     35  C   UNL     1      -7.157   1.204   0.080  0.00  0.00    +0.001 A 
ENDBRANCH  28  33
ENDBRANCH  27  28
ENDBRANCH  26  27
ENDBRANCH   1  26
TORSDOF 6
