REMARK  Name = ZINC09516738
REMARK  5 active torsions:
REMARK  status: ('A' for Active; 'I' for Inactive)
REMARK    1  A    between atoms: C_4  and  C_7
REMARK    2  A    between atoms: N_14  and  C_29
REMARK    3  A    between atoms: C_15  and  C_17
REMARK    4  A    between atoms: C_17  and  N_56
REMARK    5  A    between atoms: C_29  and  C_30
REMARK                            x       y       z     vdW  Elec       q    Type
REMARK                         _______ _______ _______ _____ _____    ______ ____
ROOT
ATOM      1  C   UNL     1      -3.026   9.224  -1.035  0.00  0.00    +0.004 A 
ATOM      2  C   UNL     1      -2.431   9.661   0.102  0.00  0.00    +0.056 A 
ATOM      3  S   UNL     1      -2.095   8.157   0.997  0.00  0.00    -0.076 S 
ATOM      4  C   UNL     1      -2.753   6.987  -0.164  0.00  0.00    +0.116 A 
ATOM      5  C   UNL     1      -3.218   7.790  -1.218  0.00  0.00    +0.080 A 
ATOM      6  C   UNL     1      -3.812   7.089  -2.316  0.00  0.00    +0.264 A 
ATOM      7  O   UNL     1      -4.245   7.699  -3.278  0.00  0.00    -0.267 OA
ATOM      8  N   UNL     1      -3.879   5.745  -2.272  0.00  0.00    -0.284 N 
ATOM      9  C   UNL     1      -3.406   5.050  -1.206  0.00  0.00    +0.098 A 
ATOM     10  N   UNL     1      -2.860   5.662  -0.189  0.00  0.00    -0.228 NA
ENDROOT
BRANCH   1  14
ATOM     11  C   UNL     1      -4.305  11.978  -4.009  0.00  0.00    +0.000 A 
ATOM     12  C   UNL     1      -4.663  12.175  -2.687  0.00  0.00    +0.001 A 
ATOM     13  C   UNL     1      -4.251  11.285  -1.718  0.00  0.00    +0.008 A 
ATOM     14  C   UNL     1      -3.472  10.184  -2.072  0.00  0.00    -0.017 A 
ATOM     15  C   UNL     1      -3.109   9.994  -3.404  0.00  0.00    +0.008 A 
ATOM     16  C   UNL     1      -3.532  10.888  -4.366  0.00  0.00    +0.001 A 
ENDBRANCH   1  14
BRANCH   9  17
ATOM     17  C   UNL     1      -3.509   3.546  -1.198  0.00  0.00    -0.003 C 
BRANCH  17  27
ATOM     18  C   UNL     1      -3.794   3.321   1.196  0.00  0.00    -0.078 C 
ATOM     19  C   UNL     1      -3.096   2.890   2.487  0.00  0.00    -0.018 C 
ATOM     20  C   UNL     1      -2.797   1.390   2.425  0.00  0.00    +0.000 C 
ATOM     21  C   UNL     1      -1.933   1.102   1.193  0.00  0.00    -0.025 C 
ATOM     22  C   UNL     1      -2.668   1.582  -0.060  0.00  0.00    -0.065 C 
ATOM     23  C   UNL     1      -1.806   1.308  -1.294  0.00  0.00    -0.015 C 
ATOM     24  C   UNL     1      -0.477   2.055  -1.165  0.00  0.00    -0.002 C 
ATOM     25  C   UNL     1       0.258   1.574   0.087  0.00  0.00    +0.000 C 
ATOM     26  C   UNL     1      -0.603   1.848   1.322  0.00  0.00    +0.002 C 
ATOM     27  N   UNL     1      -2.904   3.037   0.050  0.00  0.00    +0.386 N 
ATOM     28  H   UNL     1      -2.005   3.510   0.202  0.00  0.00    -0.081 HD
ENDBRANCH  17  27
ENDBRANCH   9  17
BRANCH   8  29
ATOM     29  C   UNL     1      -4.479   5.019  -3.394  0.00  0.00    +0.245 C 
BRANCH  29  30
ATOM     30  C   UNL     1      -5.924   4.864  -3.160  0.00  0.00    +0.084 C 
ATOM     31  N   UNL     1      -7.040   4.745  -2.981  0.00  0.00    -0.195 NA
ENDBRANCH  29  30
ENDBRANCH   8  29
TORSDOF 5
