REMARK  Name = ZINC21200238
REMARK  8 active torsions:
REMARK  status: ('A' for Active; 'I' for Inactive)
REMARK    1  A    between atoms: C_1  and  C_2
REMARK    2  A    between atoms: C_5  and  N_12
REMARK    3  A    between atoms: C_7  and  S_8
REMARK    4  A    between atoms: S_8  and  N_11
REMARK    5  A    between atoms: C_13  and  C_15
REMARK    6  A    between atoms: C_15  and  S_16
REMARK    7  A    between atoms: S_16  and  C_17
REMARK    8  A    between atoms: N_27  and  C_28
REMARK                            x       y       z     vdW  Elec       q    Type
REMARK                         _______ _______ _______ _____ _____    ______ ____
ROOT
ATOM      1  S   UNL     1      -6.283   2.696  -0.257  0.00  0.00    -0.078 S 
ENDROOT
BRANCH   1   2
ATOM      2  C   UNL     1      -7.649   3.805  -0.356  0.00  0.00    +0.177 A 
ATOM      3  N   UNL     1      -7.411   5.093  -0.324  0.00  0.00    -0.223 NA
ATOM      4  C   UNL     1      -8.408   5.998  -0.400  0.00  0.00    +0.079 A 
ATOM      5  C   UNL     1      -8.153   7.372  -0.371  0.00  0.00    +0.028 A 
ATOM      6  C   UNL     1      -9.194   8.255  -0.445  0.00  0.00    +0.002 A 
ATOM      7  C   UNL     1     -10.504   7.807  -0.549  0.00  0.00    +0.001 A 
ATOM      8  C   UNL     1     -10.786   6.469  -0.580  0.00  0.00    +0.015 A 
ATOM      9  C   UNL     1      -9.743   5.546  -0.506  0.00  0.00    +0.065 A 
ATOM     10  C   UNL     1      -9.985   4.098  -0.535  0.00  0.00    +0.267 A 
ATOM     11  O   UNL     1     -11.113   3.648  -0.624  0.00  0.00    -0.267 OA
ATOM     12  N   UNL     1      -8.908   3.282  -0.457  0.00  0.00    -0.253 N 
BRANCH  12  13
ATOM     13  C   UNL     1      -9.084   1.891  -0.479  0.00  0.00    +0.087 A 
ATOM     14  C   UNL     1      -9.259   1.193   0.708  0.00  0.00    +0.029 A 
ATOM     15  C   UNL     1      -9.437  -0.176   0.682  0.00  0.00    +0.002 A 
ATOM     16  C   UNL     1      -9.431  -0.855  -0.523  0.00  0.00    +0.003 A 
ATOM     17  C   UNL     1      -9.253  -0.164  -1.707  0.00  0.00    +0.040 A 
ATOM     18  C   UNL     1      -9.079   1.208  -1.690  0.00  0.00    +0.147 A 
ATOM     19  F   UNL     1      -8.904   1.883  -2.847  0.00  0.00    -0.203 F 
ENDBRANCH  12  13
ENDBRANCH   1   2
BRANCH   1  20
ATOM     20  C   UNL     1      -4.921   3.883  -0.144  0.00  0.00    +0.173 C 
BRANCH  20  22
ATOM     21  N   UNL     1      -2.456   3.823   0.046  0.00  0.00    -0.285 N 
ATOM     22  C   UNL     1      -3.614   3.140  -0.048  0.00  0.00    +0.227 C 
ATOM     23  O   UNL     1      -3.604   1.927  -0.055  0.00  0.00    -0.275 OA
ATOM     24  H   UNL     1      -2.470   4.919   0.140  0.00  0.00    +0.155 HD
BRANCH  21  29
ATOM     25  C   UNL     1       2.490   1.045  -0.039  0.00  0.00    +0.046 C 
ATOM     26  C   UNL     1       1.176   1.784  -0.017  0.00  0.00    -0.024 A 
ATOM     27  C   UNL     1       0.104   1.307  -0.750  0.00  0.00    +0.007 A 
ATOM     28  C   UNL     1      -1.099   1.984  -0.735  0.00  0.00    +0.023 A 
ATOM     29  C   UNL     1      -1.236   3.138   0.025  0.00  0.00    +0.035 A 
ATOM     30  C   UNL     1      -0.158   3.615   0.758  0.00  0.00    +0.052 A 
ATOM     31  C   UNL     1       1.045   2.936   0.736  0.00  0.00    +0.110 A 
BRANCH  31  32
ATOM     32  S   UNL     1       2.414   3.539   1.667  0.00  0.00    +0.056 S 
ATOM     33  O   UNL     1       3.530   3.553   0.786  0.00  0.00    -0.153 OA
ATOM     34  O   UNL     1       1.963   4.705   2.343  0.00  0.00    -0.153 OA
BRANCH  32  35
ATOM     35  N   UNL     1       2.747   2.413   2.834  0.00  0.00    -0.204 NA
ATOM     36  H   UNL     1       3.599   2.754   3.440  0.00  0.00    +0.144 HD
ATOM     37  H   UNL     1       2.996   1.454   2.358  0.00  0.00    +0.144 HD
ENDBRANCH  32  35
ENDBRANCH  31  32
ENDBRANCH  21  29
ENDBRANCH  20  22
ENDBRANCH   1  20
TORSDOF 7
