REMARK  Name = ZINC09542752
REMARK  10 active torsions:
REMARK  status: ('A' for Active; 'I' for Inactive)
REMARK    1  A    between atoms: C_1  and  C_2
REMARK    2  A    between atoms: C_2  and  O_3
REMARK    3  A    between atoms: O_3  and  C_4
REMARK    4  A    between atoms: C_8  and  C_11
REMARK    5  A    between atoms: C_9  and  O_10
REMARK    6  A    between atoms: C_14  and  C_27
REMARK    7  A    between atoms: C_16  and  C_18
REMARK    8  A    between atoms: C_23  and  O_24
REMARK    9  A    between atoms: O_24  and  C_25
REMARK   10  A    between atoms: C_30  and  C_33
REMARK                            x       y       z     vdW  Elec       q    Type
REMARK                         _______ _______ _______ _____ _____    ______ ____
ROOT
ATOM      1  C   UNL     1      -0.799  -1.988  -2.015  0.00  0.00    -0.028 C 
ATOM      2  C   UNL     1      -2.082  -1.508  -2.703  0.00  0.00    +0.044 C 
ATOM      3  C   UNL     1      -2.651  -0.343  -1.944  0.00  0.00    +0.040 C 
ATOM      4  N   UNL     1      -2.294  -0.042  -0.753  0.00  0.00    -0.298 NA
ATOM      5  C   UNL     1      -1.292  -0.776   0.011  0.00  0.00    +0.084 C 
ATOM      6  N   UNL     1      -1.067  -2.109  -0.569  0.00  0.00    +0.401 N 
ATOM      7  H   UNL     1      -0.262  -2.549  -0.109  0.00  0.00    -0.081 HD
ATOM      8  H   UNL     1      -1.903  -2.688  -0.425  0.00  0.00    -0.081 HD
ENDROOT
BRANCH   5   9
ATOM      9  C   UNL     1       0.002  -0.004   0.002  0.00  0.00    +0.002 A 
ATOM     10  C   UNL     1       1.208  -0.678  -0.013  0.00  0.00    +0.022 A 
ATOM     11  C   UNL     1       2.397   0.030  -0.020  0.00  0.00    +0.018 A 
ATOM     12  C   UNL     1       2.380   1.414  -0.012  0.00  0.00    +0.019 A 
ATOM     13  C   UNL     1       1.176   2.091   0.002  0.00  0.00    +0.047 A 
ATOM     14  C   UNL     1      -0.017   1.383   0.010  0.00  0.00    +0.123 A 
ATOM     15 BR   UNL     1       4.046  -0.894  -0.040  0.00  0.00    -0.050 Br
BRANCH  14  16
ATOM     16  O   UNL     1      -1.202   2.047   0.019  0.00  0.00    -0.495 OA
ATOM     17  C   UNL     1      -1.146   3.475   0.026  0.00  0.00    +0.277 C 
ENDBRANCH  14  16
ENDBRANCH   5   9
BRANCH   3  18
ATOM     18  C   UNL     1      -3.672   0.495  -2.604  0.00  0.00    -0.004 A 
ATOM     19  C   UNL     1      -4.084   0.203  -3.906  0.00  0.00    +0.010 A 
ATOM     20  C   UNL     1      -5.042   0.987  -4.515  0.00  0.00    +0.004 A 
ATOM     21  C   UNL     1      -5.586   2.067  -3.843  0.00  0.00    -0.050 A 
ATOM     22  C   UNL     1      -5.178   2.366  -2.555  0.00  0.00    +0.004 A 
ATOM     23  C   UNL     1      -4.225   1.587  -1.932  0.00  0.00    +0.010 A 
ATOM     24  C   UNL     1      -6.627   2.922  -4.518  0.00  0.00    +0.044 C 
ENDBRANCH   3  18
BRANCH   1  29
ATOM     25  C   UNL     1       0.749  -4.647  -4.220  0.00  0.00    +0.162 A 
ATOM     26  C   UNL     1       0.338  -5.804  -3.578  0.00  0.00    +0.049 A 
ATOM     27  C   UNL     1      -0.438  -5.723  -2.437  0.00  0.00    +0.004 A 
ATOM     28  C   UNL     1      -0.805  -4.489  -1.933  0.00  0.00    +0.006 A 
ATOM     29  C   UNL     1      -0.398  -3.331  -2.568  0.00  0.00    -0.016 A 
ATOM     30  C   UNL     1       0.375  -3.405  -3.716  0.00  0.00    +0.160 A 
BRANCH  30  31
ATOM     31  O   UNL     1       0.772  -2.267  -4.345  0.00  0.00    -0.503 OA
ATOM     32  H   UNL     1       1.620  -1.921  -4.035  0.00  0.00    +0.292 HD
ENDBRANCH  30  31
BRANCH  25  33
ATOM     33  O   UNL     1       1.512  -4.725  -5.343  0.00  0.00    -0.489 OA
BRANCH  33  35
ATOM     34  C   UNL     1       2.707  -5.920  -7.071  0.00  0.00    +0.048 C 
ATOM     35  C   UNL     1       1.853  -6.033  -5.807  0.00  0.00    +0.226 C 
ENDBRANCH  33  35
ENDBRANCH  25  33
ENDBRANCH   1  29
TORSDOF 7
