REMARK  Name = ZINC02381237
REMARK  3 active torsions:
REMARK  status: ('A' for Active; 'I' for Inactive)
REMARK    1  A    between atoms: C_3  and  C_25
REMARK    2  A    between atoms: N_14  and  C_15
REMARK    3  A    between atoms: C_19  and  N_21
REMARK                            x       y       z     vdW  Elec       q    Type
REMARK                         _______ _______ _______ _____ _____    ______ ____
ROOT
ATOM      1  C   UNL     1       6.880   3.892   3.580  0.00  0.00    +0.018 A 
ATOM      2  C   UNL     1       6.669   4.606   2.408  0.00  0.00    +0.017 A 
ATOM      3  C   UNL     1       5.554   4.309   1.645  0.00  0.00    +0.093 A 
ATOM      4  C   UNL     1       4.686   3.311   2.076  0.00  0.00    +0.111 A 
ATOM      5  C   UNL     1       5.978   2.914   3.947  0.00  0.00    +0.084 A 
ATOM      6  N   UNL     1       3.562   3.002   1.320  0.00  0.00    -0.313 N 
ATOM      7  C   UNL     1       3.546   1.579   0.957  0.00  0.00    +0.125 C 
ATOM      8  C   UNL     1       2.396   1.317  -0.021  0.00  0.00    +0.128 C 
ATOM      9  N   UNL     1       1.150   1.821   0.577  0.00  0.00    -0.282 N 
ATOM     10  C   UNL     1       1.130   3.201   1.085  0.00  0.00    +0.128 C 
ATOM     11  C   UNL     1       2.332   3.386   2.025  0.00  0.00    +0.125 C 
ATOM     12  C   UNL     1       0.054   1.040   0.653  0.00  0.00    +0.307 C 
ATOM     13  O   UNL     1      -0.935   1.436   1.239  0.00  0.00    -0.252 OA
ATOM     14  N   UNL     1       0.057  -0.182   0.085  0.00  0.00    -0.269 N 
ATOM     15  H   UNL     1       0.877  -0.543  -0.285  0.00  0.00    +0.156 HD
ATOM     16  N   UNL     1       4.869   2.599   3.226  0.00  0.00    -0.349 N 
ATOM     17  H   UNL     1       4.210   1.873   3.528  0.00  0.00    +0.167 HD
ENDROOT
BRANCH  14  18
ATOM     18  C   UNL     1      -1.125  -0.931   0.029  0.00  0.00    +0.037 A 
ATOM     19  C   UNL     1      -2.349  -0.289  -0.103  0.00  0.00    +0.025 A 
ATOM     20  C   UNL     1      -3.513  -1.030  -0.162  0.00  0.00    +0.024 A 
ATOM     21  C   UNL     1      -3.461  -2.411  -0.080  0.00  0.00    +0.071 A 
ATOM     22  C   UNL     1      -2.243  -3.052   0.056  0.00  0.00    +0.146 A 
ATOM     23  C   UNL     1      -1.075  -2.316   0.111  0.00  0.00    +0.057 A 
ATOM     24 CL   UNL     1      -4.926  -3.339  -0.150  0.00  0.00    -0.081 Cl
BRANCH  22  25
ATOM     25  N   UNL     1      -2.191  -4.529   0.143  0.00  0.00    +0.058 N 
ATOM     26  O   UNL     1      -1.119  -5.094   0.263  0.00  0.00    -0.126 OA
ATOM     27  O   UNL     1      -3.220  -5.179   0.095  0.00  0.00    -0.126 OA
ENDBRANCH  22  25
ENDBRANCH  14  18
BRANCH   3  28
ATOM     28  C   UNL     1       5.283   5.057   0.365  0.00  0.00    +0.421 C 
ATOM     29  F   UNL     1       6.233   6.072   0.207  0.00  0.00    -0.166 F 
ATOM     30  F   UNL     1       5.360   4.173  -0.716  0.00  0.00    -0.166 F 
ATOM     31  F   UNL     1       4.003   5.621   0.417  0.00  0.00    -0.166 F 
ENDBRANCH   3  28
TORSDOF 3
