REMARK  Name = ZINC05377557
REMARK  3 active torsions:
REMARK  status: ('A' for Active; 'I' for Inactive)
REMARK    1  A    between atoms: C_4  and  N_7
REMARK    2  A    between atoms: C_16  and  C_30
REMARK    3  A    between atoms: N_31  and  O_32
REMARK                            x       y       z     vdW  Elec       q    Type
REMARK                         _______ _______ _______ _____ _____    ______ ____
ROOT
ATOM      1  N   UNL     1       3.624  -0.652  -0.037  0.00  0.00    -0.210 N 
ATOM      2  C   UNL     1       4.834  -0.021  -0.041  0.00  0.00    +0.231 C 
ATOM      3  O   UNL     1       5.047   1.149  -0.279  0.00  0.00    -0.274 OA
ATOM      4  C   UNL     1       5.864  -1.087   0.317  0.00  0.00    +0.101 C 
ATOM      5  C   UNL     1       5.117  -2.231  -0.420  0.00  0.00    +0.109 C 
ATOM      6  C   UNL     1       3.723  -2.027  -0.046  0.00  0.00    +0.232 C 
ATOM      7  O   UNL     1       2.869  -2.853   0.194  0.00  0.00    -0.274 OA
ATOM      8  C   UNL     1       5.953  -3.418  -0.785  0.00  0.00    +0.071 C 
ATOM      9  C   UNL     1       6.533  -2.777  -2.080  0.00  0.00    -0.027 A 
ATOM     10  C   UNL     1       6.545  -3.393  -3.291  0.00  0.00    +0.005 A 
ATOM     11  C   UNL     1       7.020  -2.679  -4.387  0.00  0.00    +0.000 A 
ATOM     12  C   UNL     1       7.454  -1.377  -4.224  0.00  0.00    +0.000 A 
ATOM     13  C   UNL     1       7.459  -0.775  -2.975  0.00  0.00    +0.004 A 
ATOM     14  C   UNL     1       7.027  -1.496  -1.886  0.00  0.00    -0.035 A 
ATOM     15  C   UNL     1       7.209  -0.966  -0.459  0.00  0.00    +0.062 C 
ATOM     16  C   UNL     1       7.907  -2.176   0.200  0.00  0.00    -0.035 A 
ATOM     17  C   UNL     1       7.227  -3.396   0.081  0.00  0.00    -0.027 A 
ATOM     18  C   UNL     1       7.706  -4.522   0.699  0.00  0.00    +0.005 A 
ATOM     19  C   UNL     1       8.891  -4.437   1.418  0.00  0.00    +0.000 A 
ATOM     20  C   UNL     1       9.578  -3.241   1.507  0.00  0.00    +0.000 A 
ATOM     21  C   UNL     1       9.081  -2.083   0.888  0.00  0.00    +0.004 A 
ENDROOT
BRANCH   1  25
ATOM     22  C   UNL     1      -0.017   1.379   0.010  0.00  0.00    +0.000 A 
ATOM     23  C   UNL     1       1.170   2.089   0.002  0.00  0.00    +0.002 A 
ATOM     24  C   UNL     1       2.377   1.419  -0.013  0.00  0.00    +0.024 A 
ATOM     25  C   UNL     1       2.399   0.031  -0.021  0.00  0.00    +0.044 A 
ATOM     26  C   UNL     1       1.207  -0.680  -0.013  0.00  0.00    +0.024 A 
ATOM     27  C   UNL     1       0.002  -0.004   0.002  0.00  0.00    +0.002 A 
ENDBRANCH   1  25
BRANCH   8  28
ATOM     28  C   UNL     1       5.239  -4.741  -0.892  0.00  0.00    +0.142 C 
ATOM     29  N   UNL     1       5.244  -5.383  -1.999  0.00  0.00    -0.099 NA
BRANCH  29  30
ATOM     30  O   UNL     1       4.573  -6.626  -2.100  0.00  0.00    -0.409 OA
ATOM     31  H   UNL     1       4.633  -7.036  -2.974  0.00  0.00    +0.328 HD
ENDBRANCH  29  30
ENDBRANCH   8  28
TORSDOF 3
