REMARK  Name = ZINC32745428
REMARK  14 active torsions:
REMARK  status: ('A' for Active; 'I' for Inactive)
REMARK    1  A    between atoms: C_1  and  C_2
REMARK    2  A    between atoms: C_4  and  C_28
REMARK    3  A    between atoms: C_8  and  N_27
REMARK    4  A    between atoms: C_9  and  C_11
REMARK    5  A    between atoms: C_11  and  O_13
REMARK    6  A    between atoms: O_13  and  C_14
REMARK    7  A    between atoms: C_14  and  C_15
REMARK    8  A    between atoms: N_17  and  C_18
REMARK    9  A    between atoms: N_17  and  C_19
REMARK   10  A    between atoms: C_19  and  C_20
REMARK   11  A    between atoms: N_22  and  C_23
REMARK   12  A    between atoms: C_23  and  C_24
REMARK   13  A    between atoms: C_23  and  C_25
REMARK   14  A    between atoms: C_23  and  C_26
REMARK                            x       y       z     vdW  Elec       q    Type
REMARK                         _______ _______ _______ _____ _____    ______ ____
ROOT
ATOM      1  C   UNL     1      -1.900   4.780  -0.097  0.00  0.00    +0.348 C 
ATOM      2  O   UNL     1      -3.091   4.529  -0.098  0.00  0.00    -0.244 OA
ENDROOT
BRANCH   1  11
ATOM      3  C   UNL     1      -1.325  -0.721   0.041  0.00  0.00    +0.044 C 
ATOM      4  C   UNL     1      -0.034   0.055   0.030  0.00  0.00    -0.037 A 
ATOM      5  C   UNL     1       1.175  -0.601   0.053  0.00  0.00    +0.025 A 
ATOM      6  C   UNL     1       2.362   0.116   0.044  0.00  0.00    +0.014 A 
ATOM      7  N   UNL     1       2.347   1.435   0.012  0.00  0.00    -0.353 N 
ATOM      8  C   UNL     1       1.216   2.107  -0.012  0.00  0.00    +0.088 A 
ATOM      9  C   UNL     1      -0.046   1.471  -0.005  0.00  0.00    +0.030 A 
ATOM     10  C   UNL     1      -1.191   2.369  -0.040  0.00  0.00    +0.055 A 
ATOM     11  C   UNL     1      -0.956   3.727  -0.065  0.00  0.00    +0.119 A 
ATOM     12  S   UNL     1       0.823   3.838  -0.057  0.00  0.00    -0.062 S 
ATOM     13  C   UNL     1       3.679  -0.616   0.070  0.00  0.00    +0.063 C 
ATOM     14  H   UNL     1       3.293   1.996   0.004  0.00  0.00    +0.166 HD
BRANCH  10  15
ATOM     15  N   UNL     1      -2.485   1.871  -0.043  0.00  0.00    -0.356 N 
ATOM     16  H   UNL     1      -3.340   2.562  -0.069  0.00  0.00    +0.142 HD
ATOM     17  H   UNL     1      -2.656   0.785  -0.019  0.00  0.00    +0.142 HD
ENDBRANCH  10  15
ENDBRANCH   1  11
BRANCH   1  18
ATOM     18  O   UNL     1      -1.480   6.063  -0.124  0.00  0.00    -0.451 OA
BRANCH  18  19
ATOM     19  C   UNL     1      -2.488   7.075  -0.155  0.00  0.00    +0.328 C 
BRANCH  19  20
ATOM     20  C   UNL     1      -1.836   8.433  -0.183  0.00  0.00    +0.253 C 
ATOM     21  O   UNL     1      -0.627   8.525  -0.178  0.00  0.00    -0.272 OA
ATOM     22  N   UNL     1      -2.596   9.545  -0.215  0.00  0.00    -0.293 N 
ATOM     23  C   UNL     1      -4.057   9.434  -0.222  0.00  0.00    +0.132 C 
BRANCH  22  24
ATOM     24  C   UNL     1      -1.962  10.866  -0.242  0.00  0.00    +0.203 C 
BRANCH  24  25
ATOM     25  C   UNL     1      -1.735  11.284  -1.672  0.00  0.00    +0.231 C 
ATOM     26  O   UNL     1      -2.071  10.552  -2.579  0.00  0.00    -0.274 OA
ATOM     27  N   UNL     1      -1.160  12.473  -1.943  0.00  0.00    -0.309 N 
ATOM     28  H   UNL     1      -0.856  13.137  -1.121  0.00  0.00    +0.149 HD
BRANCH  27  29
ATOM     29  C   UNL     1      -0.940  12.880  -3.333  0.00  0.00    +0.026 C 
ATOM     30  C   UNL     1      -2.282  12.943  -4.065  0.00  0.00    +0.031 C 
ATOM     31  C   UNL     1      -0.277  14.259  -3.362  0.00  0.00    +0.031 C 
ATOM     32  C   UNL     1      -0.029  11.862  -4.024  0.00  0.00    +0.031 C 
ENDBRANCH  27  29
ENDBRANCH  24  25
ENDBRANCH  22  24
ENDBRANCH  19  20
ENDBRANCH  18  19
ENDBRANCH   1  18
TORSDOF 8
