REMARK  Name = ZINC35233057
REMARK  5 active torsions:
REMARK  status: ('A' for Active; 'I' for Inactive)
REMARK    1  A    between atoms: C_1  and  C_2
REMARK    2  A    between atoms: C_4  and  C_18
REMARK    3  A    between atoms: C_6  and  N_8
REMARK    4  A    between atoms: N_8  and  S_9
REMARK    5  A    between atoms: S_9  and  C_12
REMARK                            x       y       z     vdW  Elec       q    Type
REMARK                         _______ _______ _______ _____ _____    ______ ____
ROOT
ATOM      1  N   UNL     1       0.051  -2.796   2.390  0.00  0.00    -0.097 NA
ENDROOT
BRANCH   1   7
ATOM      2  C   UNL     1      -0.018   1.503   0.010  0.00  0.00    +0.044 C 
ATOM      3  C   UNL     1       0.002  -0.004   0.002  0.00  0.00    -0.048 A 
ATOM      4  C   UNL     1       0.006  -0.688  -1.200  0.00  0.00    +0.006 A 
ATOM      5  C   UNL     1       0.024  -2.071  -1.212  0.00  0.00    -0.048 A 
ATOM      6  C   UNL     1       0.039  -2.773  -0.023  0.00  0.00    +0.030 A 
ATOM      7  C   UNL     1       0.036  -2.089   1.186  0.00  0.00    +0.075 A 
ATOM      8  C   UNL     1       0.023  -0.700   1.195  0.00  0.00    +0.030 A 
ATOM      9  C   UNL     1       0.027  -2.812  -2.524  0.00  0.00    +0.044 C 
ENDBRANCH   1   7
BRANCH   1  10
ATOM     10  S   UNL     1       0.048  -1.979   3.831  0.00  0.00    +0.099 S 
ATOM     11  O   UNL     1       1.284  -1.283   3.906  0.00  0.00    -0.148 OA
ATOM     12  O   UNL     1      -1.206  -1.316   3.918  0.00  0.00    -0.148 OA
BRANCH  10  13
ATOM     13  C   UNL     1       0.070  -3.186   5.114  0.00  0.00    +0.168 A 
ATOM     14  C   UNL     1       1.125  -3.761   5.744  0.00  0.00    +0.149 A 
ATOM     15  N   UNL     1       0.851  -4.647   6.683  0.00  0.00    -0.234 NA
ATOM     16  C   UNL     1      -0.386  -4.954   6.989  0.00  0.00    +0.169 A 
ATOM     17  S   UNL     1      -1.290  -3.984   5.952  0.00  0.00    -0.036 S 
ATOM     18 CL   UNL     1      -0.954  -6.082   8.181  0.00  0.00    -0.054 Cl
ENDBRANCH  10  13
ENDBRANCH   1  10
TORSDOF 3
