REMARK  Name = ZINC58192821
REMARK  9 active torsions:
REMARK  status: ('A' for Active; 'I' for Inactive)
REMARK    1  A    between atoms: C_1  and  C_2
REMARK    2  A    between atoms: C_7  and  N_12
REMARK    3  A    between atoms: C_9  and  C_11
REMARK    4  A    between atoms: N_12  and  C_13
REMARK    5  A    between atoms: N_12  and  C_23
REMARK    6  A    between atoms: C_13  and  C_14
REMARK    7  A    between atoms: C_23  and  C_24
REMARK    8  A    between atoms: N_26  and  C_27
REMARK    9  A    between atoms: C_30  and  C_33
REMARK                            x       y       z     vdW  Elec       q    Type
REMARK                         _______ _______ _______ _____ _____    ______ ____
ROOT
ATOM      1  N   UNL     1       1.425  -0.593   5.396  0.00  0.00    +0.390 N 
ATOM      2  H   UNL     1       1.716  -1.200   6.147  0.00  0.00    -0.080 HD
ENDROOT
BRANCH   1   8
ATOM      3  C   UNL     1       0.389  -3.968   2.995  0.00  0.00    +0.008 C 
ATOM      4  C   UNL     1      -0.710  -3.312   3.834  0.00  0.00    -0.013 C 
ATOM      5  C   UNL     1      -1.561  -2.407   2.942  0.00  0.00    +0.003 C 
ATOM      6  C   UNL     1      -0.677  -1.323   2.323  0.00  0.00    -0.001 C 
ATOM      7  C   UNL     1      -0.039  -0.488   3.436  0.00  0.00    -0.015 C 
ATOM      8  C   UNL     1       0.813  -1.394   4.328  0.00  0.00    -0.064 C 
ATOM      9  C   UNL     1      -0.072  -2.478   4.947  0.00  0.00    -0.025 C 
ATOM     10  C   UNL     1       0.780  -3.383   5.839  0.00  0.00    +0.006 C 
ENDBRANCH   1   8
BRANCH   1  11
ATOM     11  C   UNL     1       0.446   0.378   5.903  0.00  0.00    -0.042 C 
BRANCH  11  12
ATOM     12  C   UNL     1      -0.691  -0.355   6.567  0.00  0.00    -0.060 A 
ATOM     13  C   UNL     1      -1.943  -0.362   5.981  0.00  0.00    +0.005 A 
ATOM     14  C   UNL     1      -2.989  -1.034   6.586  0.00  0.00    +0.050 A 
ATOM     15  C   UNL     1      -2.784  -1.702   7.783  0.00  0.00    +0.166 A 
ATOM     16  C   UNL     1      -1.522  -1.695   8.373  0.00  0.00    +0.166 A 
ATOM     17  C   UNL     1      -0.478  -1.024   7.758  0.00  0.00    +0.051 A 
ATOM     18  O   UNL     1      -1.579  -2.415   9.531  0.00  0.00    -0.453 OA
ATOM     19  C   UNL     1      -2.978  -2.519   9.852  0.00  0.00    +0.466 C 
ATOM     20  O   UNL     1      -3.630  -2.427   8.571  0.00  0.00    -0.453 OA
ENDBRANCH  11  12
ENDBRANCH   1  11
BRANCH   1  21
ATOM     21  C   UNL     1       2.593   0.122   4.864  0.00  0.00    +0.020 C 
BRANCH  21  22
ATOM     22  C   UNL     1       3.651  -0.873   4.463  0.00  0.00    +0.201 C 
ATOM     23  O   UNL     1       3.454  -2.060   4.609  0.00  0.00    -0.278 OA
ATOM     24  N   UNL     1       4.818  -0.443   3.942  0.00  0.00    -0.287 N 
ATOM     25  H   UNL     1       5.013   0.507   3.909  0.00  0.00    +0.155 HD
BRANCH  24  26
ATOM     26  C   UNL     1       5.743  -1.363   3.450  0.00  0.00    +0.033 A 
ATOM     27  C   UNL     1       5.301  -2.531   2.837  0.00  0.00    +0.024 A 
ATOM     28  C   UNL     1       6.212  -3.441   2.350  0.00  0.00    +0.015 A 
ATOM     29  C   UNL     1       7.582  -3.191   2.473  0.00  0.00    +0.037 A 
ATOM     30  C   UNL     1       8.022  -2.016   3.089  0.00  0.00    +0.015 A 
ATOM     31  C   UNL     1       7.106  -1.108   3.569  0.00  0.00    +0.024 A 
BRANCH  29  32
ATOM     32  C   UNL     1       8.561  -4.165   1.952  0.00  0.00    +0.242 C 
ATOM     33  O   UNL     1       8.176  -5.186   1.417  0.00  0.00    -0.270 OA
ATOM     34  N   UNL     1       9.881  -3.922   2.071  0.00  0.00    -0.325 N 
ATOM     35  H   UNL     1      10.188  -3.107   2.499  0.00  0.00    +0.145 HD
ATOM     36  H   UNL     1      10.525  -4.562   1.730  0.00  0.00    +0.145 HD
ENDBRANCH  29  32
ENDBRANCH  24  26
ENDBRANCH  21  22
ENDBRANCH   1  21
TORSDOF 7
