REMARK  Name = ZINC13135112
REMARK  9 active torsions:
REMARK  status: ('A' for Active; 'I' for Inactive)
REMARK    1  A    between atoms: C_2  and  C_28
REMARK    2  A    between atoms: C_4  and  N_10
REMARK    3  A    between atoms: C_6  and  C_7
REMARK    4  A    between atoms: C_11  and  C_13
REMARK    5  A    between atoms: C_13  and  O_14
REMARK    6  A    between atoms: O_14  and  C_15
REMARK    7  A    between atoms: C_15  and  C_17
REMARK    8  A    between atoms: C_17  and  O_18
REMARK    9  A    between atoms: O_18  and  C_19
REMARK                            x       y       z     vdW  Elec       q    Type
REMARK                         _______ _______ _______ _____ _____    ______ ____
ROOT
ATOM      1  N   UNL     1      -6.089   1.524   0.041  0.00  0.00    -0.283 N 
ATOM      2  C   UNL     1      -6.106   2.868   0.150  0.00  0.00    +0.255 C 
ATOM      3  O   UNL     1      -5.065   3.490   0.148  0.00  0.00    -0.272 OA
ATOM      4  H   UNL     1      -6.922   1.033  -0.035  0.00  0.00    +0.155 HD
ENDROOT
BRANCH   1   8
ATOM      5  C   UNL     1      -2.441  -0.527   0.028  0.00  0.00    +0.026 A 
ATOM      6  C   UNL     1      -3.513  -1.006  -0.722  0.00  0.00    +0.039 A 
ATOM      7  C   UNL     1      -4.728  -0.319  -0.716  0.00  0.00    +0.036 A 
ATOM      8  C   UNL     1      -4.869   0.838   0.036  0.00  0.00    +0.035 A 
ATOM      9  C   UNL     1      -3.805   1.314   0.788  0.00  0.00    +0.036 A 
ATOM     10  C   UNL     1      -2.585   0.635   0.782  0.00  0.00    +0.039 A 
BRANCH  10  11
ATOM     11  C   UNL     1      -1.450   1.146   1.580  0.00  0.00    +0.242 C 
ATOM     12  O   UNL     1      -1.577   2.160   2.238  0.00  0.00    -0.270 OA
ATOM     13  N   UNL     1      -0.274   0.487   1.578  0.00  0.00    -0.325 N 
ATOM     14  H   UNL     1      -0.173  -0.323   1.053  0.00  0.00    +0.145 HD
ATOM     15  H   UNL     1       0.472   0.824   2.098  0.00  0.00    +0.145 HD
ENDBRANCH  10  11
BRANCH   6  16
ATOM     16  C   UNL     1      -3.364  -2.239  -1.524  0.00  0.00    +0.242 C 
ATOM     17  O   UNL     1      -4.300  -2.656  -2.178  0.00  0.00    -0.270 OA
ATOM     18  N   UNL     1      -2.191  -2.902  -1.529  0.00  0.00    -0.325 N 
ATOM     19  H   UNL     1      -1.444  -2.570  -1.007  0.00  0.00    +0.145 HD
ATOM     20  H   UNL     1      -2.093  -3.711  -2.055  0.00  0.00    +0.145 HD
ENDBRANCH   6  16
ENDBRANCH   1   8
BRANCH   2  21
ATOM     21  C   UNL     1      -7.419   3.597   0.274  0.00  0.00    +0.328 C 
BRANCH  21  22
ATOM     22  O   UNL     1      -7.173   5.024   0.377  0.00  0.00    -0.453 OA
BRANCH  22  23
ATOM     23  C   UNL     1      -8.246   5.821   0.494  0.00  0.00    +0.346 C 
ATOM     24  O   UNL     1      -9.355   5.342   0.511  0.00  0.00    -0.247 OA
BRANCH  23  25
ATOM     25  C   UNL     1      -8.068   7.313   0.606  0.00  0.00    +0.349 C 
BRANCH  25  26
ATOM     26  O   UNL     1      -9.348   7.938   0.720  0.00  0.00    -0.479 OA
BRANCH  26  27
ATOM     27  C   UNL     1      -9.366   9.293   0.830  0.00  0.00    +0.141 A 
ATOM     28  C   UNL     1      -8.176  10.005   0.828  0.00  0.00    +0.068 A 
ATOM     29  C   UNL     1      -8.195  11.383   0.940  0.00  0.00    +0.063 A 
ATOM     30  C   UNL     1      -9.403  12.052   1.053  0.00  0.00    +0.061 A 
ATOM     31  C   UNL     1     -10.591  11.344   1.056  0.00  0.00    +0.045 A 
ATOM     32  C   UNL     1     -10.575   9.966   0.939  0.00  0.00    +0.084 A 
ATOM     33 CL   UNL     1     -12.066   9.078   0.935  0.00  0.00    -0.080 Cl
ATOM     34 CL   UNL     1      -9.425  13.782   1.194  0.00  0.00    -0.082 Cl
ATOM     35 CL   UNL     1      -6.706  12.275   0.937  0.00  0.00    -0.082 Cl
ENDBRANCH  26  27
ENDBRANCH  25  26
ENDBRANCH  23  25
ENDBRANCH  22  23
ENDBRANCH  21  22
ENDBRANCH   2  21
TORSDOF 9
