REMARK  Name = ZINC01215216
REMARK  7 active torsions:
REMARK  status: ('A' for Active; 'I' for Inactive)
REMARK    1  A    between atoms: C_1  and  O_2
REMARK    2  A    between atoms: O_2  and  C_3
REMARK    3  A    between atoms: C_6  and  C_11
REMARK    4  A    between atoms: C_8  and  O_9
REMARK    5  A    between atoms: O_9  and  C_10
REMARK    6  A    between atoms: C_16  and  C_26
REMARK    7  A    between atoms: C_30  and  N_32
REMARK                            x       y       z     vdW  Elec       q    Type
REMARK                         _______ _______ _______ _____ _____    ______ ____
ROOT
ATOM      1  C   UNL     1       5.253   5.093  -1.599  0.00  0.00    +0.032 C 
ATOM      2  C   UNL     1       3.791   5.193  -1.167  0.00  0.00    +0.059 C 
ATOM      3  C   UNL     1       3.256   3.811  -0.830  0.00  0.00    +0.017 C 
ATOM      4  C   UNL     1       3.697   2.731  -1.497  0.00  0.00    +0.036 C 
ATOM      5  C   UNL     1       3.230   1.310  -1.291  0.00  0.00    +0.136 C 
ATOM      6  N   UNL     1       2.423   1.111  -0.106  0.00  0.00    -0.331 N 
ATOM      7  C   UNL     1       1.174   1.717   0.026  0.00  0.00    +0.049 A 
ATOM      8  C   UNL     1       0.006   0.972   0.032  0.00  0.00    +0.025 A 
ATOM      9  C   UNL     1      -1.215   1.623   0.063  0.00  0.00    +0.002 A 
ATOM     10  C   UNL     1      -1.271   3.004   0.099  0.00  0.00    +0.002 A 
ATOM     11  C   UNL     1      -0.105   3.751   0.109  0.00  0.00    +0.025 A 
ATOM     12  C   UNL     1       1.117   3.101   0.088  0.00  0.00    +0.052 A 
ATOM     13  N   UNL     1       2.324   3.787   0.156  0.00  0.00    -0.316 N 
ATOM     14  C   UNL     1       4.693   2.867  -2.494  0.00  0.00    +0.163 C 
ATOM     15  O   UNL     1       5.058   1.876  -3.095  0.00  0.00    -0.292 OA
ATOM     16  C   UNL     1       5.313   4.188  -2.835  0.00  0.00    +0.088 C 
ATOM     17  H   UNL     1       2.756   0.546   0.609  0.00  0.00    +0.147 HD
ATOM     18  H   UNL     1       2.514   4.285   0.966  0.00  0.00    +0.152 HD
ENDROOT
BRANCH   5  19
ATOM     19  C   UNL     1       2.425   0.892  -2.494  0.00  0.00    -0.020 A 
ATOM     20  C   UNL     1       2.869  -0.142  -3.297  0.00  0.00    +0.009 A 
ATOM     21  C   UNL     1       2.129  -0.531  -4.397  0.00  0.00    +0.053 A 
ATOM     22  C   UNL     1       0.946   0.126  -4.703  0.00  0.00    +0.209 A 
ATOM     23  C   UNL     1       0.505   1.167  -3.899  0.00  0.00    +0.173 A 
ATOM     24  C   UNL     1       1.246   1.548  -2.797  0.00  0.00    +0.042 A 
ATOM     25  O   UNL     1       0.219  -0.251  -5.788  0.00  0.00    -0.285 OA
BRANCH  23  26
ATOM     26  N   UNL     1      -0.757   1.869  -4.223  0.00  0.00    +0.060 N 
ATOM     27  O   UNL     1      -1.143   2.784  -3.517  0.00  0.00    -0.126 OA
ATOM     28  O   UNL     1      -1.409   1.533  -5.195  0.00  0.00    -0.126 OA
ENDBRANCH  23  26
ENDBRANCH   5  19
BRANCH   1  32
ATOM     29  C   UNL     1       6.746   8.980  -2.574  0.00  0.00    +0.161 A 
ATOM     30  C   UNL     1       5.647   8.468  -3.245  0.00  0.00    +0.049 A 
ATOM     31  C   UNL     1       5.167   7.211  -2.928  0.00  0.00    +0.008 A 
ATOM     32  C   UNL     1       5.781   6.462  -1.941  0.00  0.00    -0.040 A 
ATOM     33  C   UNL     1       6.875   6.969  -1.264  0.00  0.00    +0.053 A 
ATOM     34  C   UNL     1       7.364   8.226  -1.581  0.00  0.00    +0.162 A 
BRANCH  29  36
ATOM     35  C   UNL     1       6.534  10.933  -3.913  0.00  0.00    +0.277 C 
ATOM     36  O   UNL     1       7.219  10.216  -2.884  0.00  0.00    -0.491 OA
ENDBRANCH  29  36
BRANCH  34  37
ATOM     37  O   UNL     1       8.443   8.723  -0.920  0.00  0.00    -0.491 OA
ATOM     38  C   UNL     1       9.027   7.893   0.087  0.00  0.00    +0.277 C 
ENDBRANCH  34  37
ENDBRANCH   1  32
TORSDOF 5
