REMARK  Name = ZINC66168234
REMARK  17 active torsions:
REMARK  status: ('A' for Active; 'I' for Inactive)
REMARK    1  A    between atoms: C_1  and  C_2
REMARK    2  A    between atoms: C_2  and  C_3
REMARK    3  A    between atoms: C_3  and  C_4
REMARK    4  A    between atoms: C_4  and  C_5
REMARK    5  A    between atoms: C_5  and  C_6
REMARK    6  A    between atoms: C_6  and  O_7
REMARK    7  A    between atoms: O_7  and  C_8
REMARK    8  A    between atoms: C_12  and  N_14
REMARK    9  A    between atoms: N_14  and  C_15
REMARK   10  A    between atoms: C_15  and  C_16
REMARK   11  A    between atoms: C_16  and  C_18
REMARK   12  A    between atoms: C_16  and  O_19
REMARK   13  A    between atoms: O_19  and  C_20
REMARK   14  A    between atoms: C_25  and  C_26
REMARK   15  A    between atoms: C_26  and  C_28
REMARK   16  A    between atoms: C_26  and  C_29
REMARK   17  A    between atoms: C_29  and  C_30
REMARK                            x       y       z     vdW  Elec       q    Type
REMARK                         _______ _______ _______ _____ _____    ______ ____
ROOT
ATOM      1  N   UNL     1       3.306  -8.538  -6.201  0.00  0.00    -0.340 N 
ATOM      2  H   UNL     1       3.632  -7.837  -6.787  0.00  0.00    +0.146 HD
ENDROOT
BRANCH   1   7
ATOM      3  C   UNL     1       1.424  -6.569  -3.729  0.00  0.00    +0.122 A 
ATOM      4  C   UNL     1       0.959  -7.576  -2.894  0.00  0.00    +0.046 A 
ATOM      5  C   UNL     1       1.274  -8.895  -3.159  0.00  0.00    +0.005 A 
ATOM      6  C   UNL     1       2.051  -9.217  -4.254  0.00  0.00    +0.023 A 
ATOM      7  C   UNL     1       2.519  -8.213  -5.093  0.00  0.00    +0.031 A 
ATOM      8  C   UNL     1       2.199  -6.888  -4.833  0.00  0.00    +0.068 A 
BRANCH   3   9
ATOM      9  O   UNL     1       1.113  -5.272  -3.468  0.00  0.00    -0.492 OA
BRANCH   9  10
ATOM     10  C   UNL     1       0.310  -5.017  -2.314  0.00  0.00    +0.229 C 
BRANCH  10  11
ATOM     11  C   UNL     1       0.067  -3.512  -2.185  0.00  0.00    +0.041 C 
BRANCH  11  12
ATOM     12  C   UNL     1      -0.793  -3.239  -0.949  0.00  0.00    +0.003 C 
BRANCH  12  13
ATOM     13  C   UNL     1      -1.036  -1.734  -0.820  0.00  0.00    -0.000 C 
BRANCH  13  15
ATOM     14  C   UNL     1      -2.139   0.045   0.545  0.00  0.00    +0.004 C 
ATOM     15  C   UNL     1      -1.896  -1.460   0.415  0.00  0.00    -0.003 C 
ENDBRANCH  13  15
ENDBRANCH  12  13
ENDBRANCH  11  12
ENDBRANCH  10  11
ENDBRANCH   9  10
ENDBRANCH   3   9
ENDBRANCH   1   7
BRANCH   1  16
ATOM     16  C   UNL     1       3.638  -9.938  -6.479  0.00  0.00    +0.145 C 
BRANCH  16  17
ATOM     17  C   UNL     1       4.502 -10.017  -7.738  0.00  0.00    +0.187 C 
ATOM     18  C   UNL     1       4.849 -11.478  -8.028  0.00  0.00    +0.053 C 
BRANCH  17  19
ATOM     19  O   UNL     1       3.783  -9.469  -8.845  0.00  0.00    -0.487 OA
BRANCH  19  20
ATOM     20  C   UNL     1       4.518  -8.983  -9.879  0.00  0.00    +0.124 A 
ATOM     21  C   UNL     1       5.898  -9.132  -9.882  0.00  0.00    +0.046 A 
ATOM     22  C   UNL     1       6.643  -8.637 -10.934  0.00  0.00    +0.004 A 
ATOM     23  C   UNL     1       6.015  -7.993 -11.985  0.00  0.00    +0.001 A 
ATOM     24  C   UNL     1       4.641  -7.843 -11.984  0.00  0.00    +0.007 A 
ATOM     25  C   UNL     1       3.890  -8.341 -10.937  0.00  0.00    -0.003 A 
BRANCH  25  26
ATOM     26  C   UNL     1       2.392  -8.183 -10.940  0.00  0.00    +0.019 C 
ATOM     27  C   UNL     1       1.808  -8.880 -12.170  0.00  0.00    +0.012 C 
BRANCH  26  28
ATOM     28  C   UNL     1       2.036  -6.695 -10.981  0.00  0.00    +0.004 C 
ATOM     29  C   UNL     1       0.520  -6.530 -10.859  0.00  0.00    +0.004 C 
ENDBRANCH  26  28
ENDBRANCH  25  26
ENDBRANCH  19  20
ENDBRANCH  17  19
ENDBRANCH  16  17
ENDBRANCH   1  16
TORSDOF 13
