REMARK  Name = ZINC12660785
REMARK  9 active torsions:
REMARK  status: ('A' for Active; 'I' for Inactive)
REMARK    1  A    between atoms: C_1  and  C_2
REMARK    2  A    between atoms: C_7  and  C_39
REMARK    3  A    between atoms: C_20  and  C_22
REMARK    4  A    between atoms: C_22  and  N_23
REMARK    5  A    between atoms: C_28  and  O_37
REMARK    6  A    between atoms: C_29  and  O_35
REMARK    7  A    between atoms: C_32  and  C_34
REMARK    8  A    between atoms: O_35  and  C_36
REMARK    9  A    between atoms: O_37  and  C_38
REMARK                            x       y       z     vdW  Elec       q    Type
REMARK                         _______ _______ _______ _____ _____    ______ ____
ROOT
ATOM      1  C   UNL     1      -0.444   1.448   0.111  0.00  0.00    +0.010 C 
ATOM      2  C   UNL     1      -0.495  -0.081   0.127  0.00  0.00    +0.021 C 
ATOM      3  C   UNL     1      -0.096  -0.627  -1.248  0.00  0.00    +0.006 C 
ATOM      4  C   UNL     1       1.349  -0.245  -1.565  0.00  0.00    +0.001 C 
ATOM      5  C   UNL     1       2.300  -0.860  -0.533  0.00  0.00    +0.010 C 
ATOM      6  C   UNL     1       1.961  -0.299   0.847  0.00  0.00    +0.003 C 
ATOM      7  C   UNL     1       0.499  -0.622   1.163  0.00  0.00    +0.104 C 
ATOM      8  C   UNL     1       0.081  -0.765   2.610  0.00  0.00    +0.159 C 
ATOM      9  O   UNL     1       0.186  -1.895   1.727  0.00  0.00    -0.363 OA
ATOM     10  C   UNL     1       1.095  -0.764   3.750  0.00  0.00    +0.073 C 
ATOM     11  C   UNL     1       2.499  -0.351   3.273  0.00  0.00    +0.183 C 
ATOM     12  C   UNL     1       2.849  -0.903   1.928  0.00  0.00    +0.054 C 
ATOM     13  O   UNL     1       2.423   1.080   3.183  0.00  0.00    -0.461 OA
ATOM     14  C   UNL     1       1.705   1.526   4.235  0.00  0.00    +0.309 C 
ATOM     15  O   UNL     1       1.804   2.619   4.739  0.00  0.00    -0.251 OA
ATOM     16  C   UNL     1       0.743   0.423   4.690  0.00  0.00    +0.090 C 
ATOM     17  C   UNL     1       2.141   1.220   0.835  0.00  0.00    +0.014 C 
ENDROOT
BRANCH  16  18
ATOM     18  C   UNL     1      -0.713   0.851   4.491  0.00  0.00    -0.063 C 
BRANCH  18  19
ATOM     19  N   UNL     1      -1.605  -0.235   4.918  0.00  0.00    +0.385 N 
ATOM     20  C   UNL     1      -1.471  -0.441   6.368  0.00  0.00    -0.073 C 
ATOM     21  C   UNL     1      -2.159  -1.754   6.740  0.00  0.00    +0.017 C 
ATOM     22  C   UNL     1      -3.556  -1.778   6.172  0.00  0.00    -0.044 A 
ATOM     23  C   UNL     1      -4.459  -2.703   6.671  0.00  0.00    +0.053 A 
ATOM     24  C   UNL     1      -5.749  -2.759   6.173  0.00  0.00    +0.162 A 
ATOM     25  C   UNL     1      -6.138  -1.881   5.166  0.00  0.00    +0.162 A 
ATOM     26  C   UNL     1      -5.233  -0.958   4.673  0.00  0.00    +0.051 A 
ATOM     27  C   UNL     1      -3.941  -0.905   5.176  0.00  0.00    -0.054 A 
ATOM     28  C   UNL     1      -2.993   0.122   4.613  0.00  0.00    -0.040 C 
ATOM     29  C   UNL     1      -3.173   0.196   3.096  0.00  0.00    -0.008 C 
ATOM     30  H   UNL     1      -1.360  -1.084   4.431  0.00  0.00    -0.081 HD
BRANCH  25  31
ATOM     31  O   UNL     1      -7.403  -1.929   4.669  0.00  0.00    -0.491 OA
ATOM     32  C   UNL     1      -7.730  -0.997   3.637  0.00  0.00    +0.277 C 
ENDBRANCH  25  31
BRANCH  24  33
ATOM     33  O   UNL     1      -6.633  -3.669   6.665  0.00  0.00    -0.491 OA
ATOM     34  C   UNL     1      -6.162  -4.538   7.697  0.00  0.00    +0.277 C 
ENDBRANCH  24  33
ENDBRANCH  18  19
ENDBRANCH  16  18
TORSDOF 4
