REMARK  Name = ZINC25287722
REMARK  5 active torsions:
REMARK  status: ('A' for Active; 'I' for Inactive)
REMARK    1  A    between atoms: C_1  and  C_2
REMARK    2  A    between atoms: C_3  and  C_8
REMARK    3  A    between atoms: C_5  and  C_7
REMARK    4  A    between atoms: N_13  and  S_16
REMARK    5  A    between atoms: S_16  and  C_19
REMARK                            x       y       z     vdW  Elec       q    Type
REMARK                         _______ _______ _______ _____ _____    ______ ____
ROOT
ATOM      1  C   UNL     1      -0.547   3.887   2.070  0.00  0.00    +0.255 C 
ATOM      2  O   UNL     1      -0.752   3.401   3.166  0.00  0.00    -0.269 OA
ATOM      3  N   UNL     1      -0.186   3.096   1.040  0.00  0.00    -0.295 N 
ATOM      4  C   UNL     1       0.054   1.661   1.250  0.00  0.00    +0.125 C 
ATOM      5  C   UNL     1       1.460   1.320   0.742  0.00  0.00    +0.128 C 
ATOM      6  N   UNL     1       1.623   1.878  -0.608  0.00  0.00    -0.173 NA
ATOM      7  C   UNL     1       1.386   3.313  -0.814  0.00  0.00    +0.128 C 
ATOM      8  C   UNL     1      -0.022   3.654  -0.310  0.00  0.00    +0.125 C 
ENDROOT
BRANCH   1  11
ATOM      9  C   UNL     1       0.508   6.130   3.923  0.00  0.00    +0.067 C 
ATOM     10  C   UNL     1      -0.253   6.379   2.647  0.00  0.00    +0.058 A 
ATOM     11  C   UNL     1      -0.694   5.332   1.868  0.00  0.00    +0.097 A 
ATOM     12  S   UNL     1      -1.502   6.226   0.548  0.00  0.00    -0.068 S 
ATOM     13  C   UNL     1      -1.181   7.829   1.133  0.00  0.00    +0.076 A 
ATOM     14  N   UNL     1      -0.511   7.596   2.243  0.00  0.00    -0.249 NA
ATOM     15  C   UNL     1      -1.570   9.152   0.524  0.00  0.00    +0.073 C 
ENDBRANCH   1  11
BRANCH   6  16
ATOM     16  S   UNL     1       2.067   0.906  -1.873  0.00  0.00    +0.067 S 
ATOM     17  O   UNL     1       2.670   1.752  -2.842  0.00  0.00    -0.152 OA
ATOM     18  O   UNL     1       2.743  -0.210  -1.310  0.00  0.00    -0.152 OA
BRANCH  16  19
ATOM     19  C   UNL     1       0.586   0.285  -2.598  0.00  0.00    +0.144 A 
ATOM     20  C   UNL     1      -0.162   0.814  -3.596  0.00  0.00    +0.037 A 
ATOM     21  C   UNL     1      -1.300   0.145  -4.008  0.00  0.00    +0.025 A 
ATOM     22  C   UNL     1      -1.633  -1.020  -3.401  0.00  0.00    +0.057 A 
ATOM     23  S   UNL     1      -0.314  -1.207  -2.212  0.00  0.00    -0.062 S 
ATOM     24 BR   UNL     1      -3.107  -2.157  -3.732  0.00  0.00    -0.043 Br
ENDBRANCH  16  19
ENDBRANCH   6  16
TORSDOF 3
