REMARK  Name = ZINC15882462
REMARK  4 active torsions:
REMARK  status: ('A' for Active; 'I' for Inactive)
REMARK    1  A    between atoms: C_4  and  S_7
REMARK    2  A    between atoms: S_7  and  N_10
REMARK    3  A    between atoms: N_10  and  C_11
REMARK    4  A    between atoms: C_14  and  C_17
REMARK                            x       y       z     vdW  Elec       q    Type
REMARK                         _______ _______ _______ _____ _____    ______ ____
ROOT
ATOM      1  C   UNL     1       1.287   3.515   0.201  0.00  0.00    +0.247 C 
ATOM      2  O   UNL     1       0.242   4.137   0.223  0.00  0.00    -0.270 OA
ATOM      3  N   UNL     1       2.463   4.173   0.221  0.00  0.00    -0.295 N 
ATOM      4  C   UNL     1       2.507   5.637   0.360  0.00  0.00    +0.127 C 
ATOM      5  C   UNL     1       3.476   5.984   1.502  0.00  0.00    +0.126 C 
ATOM      6  N   UNL     1       4.774   5.345   1.247  0.00  0.00    -0.307 N 
ATOM      7  C   UNL     1       4.656   3.881   1.244  0.00  0.00    +0.126 C 
ATOM      8  C   UNL     1       3.736   3.447   0.098  0.00  0.00    +0.127 C 
ATOM      9  C   UNL     1       5.720   5.764   2.161  0.00  0.00    +0.162 A 
ATOM     10  N   UNL     1       6.103   6.987   2.448  0.00  0.00    -0.225 NA
ATOM     11  C   UNL     1       7.050   7.252   3.376  0.00  0.00    +0.080 A 
ATOM     12  C   UNL     1       7.549   8.512   3.777  0.00  0.00    +0.032 A 
ATOM     13  C   UNL     1       8.518   8.607   4.742  0.00  0.00    +0.040 A 
ATOM     14  C   UNL     1       9.043   7.478   5.357  0.00  0.00    +0.125 A 
ATOM     15  C   UNL     1       8.576   6.227   4.987  0.00  0.00    +0.055 A 
ATOM     16  C   UNL     1       7.606   6.125   4.022  0.00  0.00    +0.043 A 
ATOM     17  S   UNL     1       6.729   4.780   3.260  0.00  0.00    -0.052 S 
ATOM     18  F   UNL     1       9.997   7.598   6.305  0.00  0.00    -0.205 F 
ENDROOT
BRANCH   1  22
ATOM     19  C   UNL     1       1.230  -0.728   0.064  0.00  0.00    +0.048 A 
ATOM     20  C   UNL     1       0.401  -0.051   0.954  0.00  0.00    +0.025 A 
ATOM     21  C   UNL     1       0.417   1.324   1.001  0.00  0.00    +0.015 A 
ATOM     22  C   UNL     1       1.267   2.041   0.154  0.00  0.00    +0.037 A 
ATOM     23  C   UNL     1       2.098   1.358  -0.739  0.00  0.00    +0.015 A 
ATOM     24  C   UNL     1       2.077  -0.017  -0.782  0.00  0.00    +0.025 A 
BRANCH  19  25
ATOM     25  N   UNL     1       1.211  -2.118   0.019  0.00  0.00    -0.216 N 
ATOM     26  H   UNL     1       1.231  -2.630   0.842  0.00  0.00    +0.174 HD
BRANCH  25  27
ATOM     27  S   UNL     1       1.154  -2.898  -1.441  0.00  0.00    +0.072 S 
ATOM     28  O   UNL     1       2.209  -2.364  -2.229  0.00  0.00    -0.150 OA
ATOM     29  O   UNL     1       1.045  -4.286  -1.155  0.00  0.00    -0.150 OA
BRANCH  27  33
ATOM     30  C   UNL     1      -2.712  -1.685  -3.458  0.00  0.00    +0.000 A 
ATOM     31  C   UNL     1      -1.539  -1.014  -3.752  0.00  0.00    +0.002 A 
ATOM     32  C   UNL     1      -0.358  -1.385  -3.135  0.00  0.00    +0.029 A 
ATOM     33  C   UNL     1      -0.350  -2.426  -2.226  0.00  0.00    +0.108 A 
ATOM     34  C   UNL     1      -1.522  -3.100  -1.937  0.00  0.00    +0.029 A 
ATOM     35  C   UNL     1      -2.704  -2.726  -2.549  0.00  0.00    +0.002 A 
ENDBRANCH  27  33
ENDBRANCH  25  27
ENDBRANCH  19  25
ENDBRANCH   1  22
TORSDOF 4
