REMARK  Name = ZINC46551518
REMARK  9 active torsions:
REMARK  status: ('A' for Active; 'I' for Inactive)
REMARK    1  A    between atoms: C_1  and  C_2
REMARK    2  A    between atoms: C_2  and  C_4
REMARK    3  A    between atoms: C_2  and  N_20
REMARK    4  A    between atoms: N_6  and  C_7
REMARK    5  A    between atoms: C_11  and  S_13
REMARK    6  A    between atoms: S_13  and  N_16
REMARK    7  A    between atoms: N_16  and  C_17
REMARK    8  A    between atoms: N_16  and  C_18
REMARK    9  A    between atoms: N_23  and  C_26
REMARK                            x       y       z     vdW  Elec       q    Type
REMARK                         _______ _______ _______ _____ _____    ______ ____
ROOT
ATOM      1  C   UNL     1       1.052  -0.296  -0.009  0.00  0.00    +0.203 C 
ATOM      2  O   UNL     1       1.904  -1.157  -0.049  0.00  0.00    -0.277 OA
ATOM      3  N   UNL     1       0.556   0.107   1.177  0.00  0.00    -0.287 N 
ATOM      4  H   UNL     1      -0.173   0.747   1.206  0.00  0.00    +0.155 HD
ENDROOT
BRANCH   3   5
ATOM      5  C   UNL     1       1.091  -0.397   2.368  0.00  0.00    +0.035 A 
ATOM      6  C   UNL     1       0.263  -0.642   3.455  0.00  0.00    +0.025 A 
ATOM      7  C   UNL     1       0.794  -1.140   4.628  0.00  0.00    +0.024 A 
ATOM      8  C   UNL     1       2.151  -1.394   4.722  0.00  0.00    +0.067 A 
ATOM      9  C   UNL     1       2.979  -1.151   3.640  0.00  0.00    +0.125 A 
ATOM     10  C   UNL     1       2.452  -0.659   2.462  0.00  0.00    +0.053 A 
ATOM     11 CL   UNL     1       2.816  -2.019   6.199  0.00  0.00    -0.082 Cl
BRANCH   9  12
ATOM     12  S   UNL     1       4.707  -1.476   3.764  0.00  0.00    +0.062 S 
ATOM     13  O   UNL     1       5.276  -1.124   2.510  0.00  0.00    -0.153 OA
ATOM     14  O   UNL     1       5.142  -0.899   4.987  0.00  0.00    -0.153 OA
BRANCH  12  15
ATOM     15  N   UNL     1       4.887  -3.114   3.922  0.00  0.00    -0.183 NA
ATOM     16  C   UNL     1       4.854  -3.973   2.736  0.00  0.00    +0.131 C 
ATOM     17  C   UNL     1       5.078  -3.705   5.249  0.00  0.00    +0.131 C 
ENDBRANCH  12  15
ENDBRANCH   9  12
ENDBRANCH   3   5
BRANCH   1  19
ATOM     18  C   UNL     1       1.366   1.577  -1.604  0.00  0.00    -0.004 C 
ATOM     19  C   UNL     1       0.547   0.324  -1.287  0.00  0.00    +0.017 C 
BRANCH  19  20
ATOM     20  N   UNL     1       0.683  -0.641  -2.386  0.00  0.00    +0.389 N 
ATOM     21  C   UNL     1       0.261  -0.011  -3.643  0.00  0.00    -0.059 C 
ATOM     22  C   UNL     1       0.509  -0.976  -4.806  0.00  0.00    +0.086 C 
ATOM     23  N   UNL     1      -0.166  -2.249  -4.508  0.00  0.00    -0.332 N 
ATOM     24  C   UNL     1       0.074  -2.871  -3.197  0.00  0.00    +0.086 C 
ATOM     25  C   UNL     1      -0.154  -1.816  -2.110  0.00  0.00    -0.059 C 
ATOM     26  H   UNL     1       1.647  -0.927  -2.463  0.00  0.00    -0.081 HD
BRANCH  23  27
ATOM     27  C   UNL     1      -1.012  -2.850  -5.445  0.00  0.00    +0.048 A 
ATOM     28  C   UNL     1      -0.500  -3.756  -6.364  0.00  0.00    +0.024 A 
ATOM     29  C   UNL     1      -1.338  -4.349  -7.288  0.00  0.00    +0.002 A 
ATOM     30  C   UNL     1      -2.686  -4.041  -7.299  0.00  0.00    +0.002 A 
ATOM     31  C   UNL     1      -3.200  -3.139  -6.385  0.00  0.00    +0.022 A 
ATOM     32  C   UNL     1      -2.368  -2.546  -5.454  0.00  0.00    +0.062 A 
ATOM     33 CL   UNL     1      -3.015  -1.419  -4.303  0.00  0.00    -0.082 Cl
ENDBRANCH  23  27
ENDBRANCH  19  20
ENDBRANCH   1  19
TORSDOF 6
