REMARK  Name = ZINC35292376
REMARK  6 active torsions:
REMARK  status: ('A' for Active; 'I' for Inactive)
REMARK    1  A    between atoms: C_1  and  C_2
REMARK    2  A    between atoms: C_2  and  C_3
REMARK    3  A    between atoms: C_9  and  C_11
REMARK    4  A    between atoms: C_12  and  N_26
REMARK    5  A    between atoms: C_17  and  C_25
REMARK    6  A    between atoms: C_19  and  C_24
REMARK                            x       y       z     vdW  Elec       q    Type
REMARK                         _______ _______ _______ _____ _____    ______ ____
ROOT
ATOM      1  C   UNL     1      -7.323  -2.709   0.269  0.00  0.00    +0.097 A 
ATOM      2  C   UNL     1      -8.374  -3.102  -0.527  0.00  0.00    +0.053 A 
ATOM      3  C   UNL     1      -9.600  -3.555   0.117  0.00  0.00    +0.028 A 
ATOM      4  C   UNL     1     -10.789  -3.998  -0.488  0.00  0.00    +0.022 A 
ATOM      5  C   UNL     1     -11.857  -4.393   0.325  0.00  0.00    -0.000 A 
ATOM      6  C   UNL     1     -13.067  -4.844  -0.237  0.00  0.00    +0.013 A 
ATOM      7  C   UNL     1     -14.088  -5.222   0.577  0.00  0.00    -0.050 A 
ATOM      8  C   UNL     1     -13.958  -5.169   1.964  0.00  0.00    +0.008 A 
ATOM      9  C   UNL     1     -12.805  -4.738   2.544  0.00  0.00    -0.026 A 
ATOM     10  C   UNL     1     -11.725  -4.340   1.737  0.00  0.00    +0.050 A 
ATOM     11  N   UNL     1     -10.582  -3.914   2.281  0.00  0.00    -0.348 N 
ATOM     12  C   UNL     1      -9.570  -3.540   1.539  0.00  0.00    +0.088 A 
ATOM     13  S   UNL     1      -7.941  -2.943   1.923  0.00  0.00    -0.064 S 
ATOM     14  C   UNL     1     -12.686  -4.689   4.045  0.00  0.00    +0.046 C 
ATOM     15  C   UNL     1     -15.381  -5.705  -0.029  0.00  0.00    +0.044 C 
ATOM     16  H   UNL     1     -10.500  -3.880   3.247  0.00  0.00    +0.166 HD
ENDROOT
BRANCH   1  23
ATOM     17  C   UNL     1      -1.412  -0.526   0.013  0.00  0.00    +0.103 A 
ATOM     18  N   UNL     1      -2.214  -0.819  -0.991  0.00  0.00    -0.145 NA
ATOM     19  N   UNL     1      -3.385  -1.252  -0.811  0.00  0.00    -0.126 NA
ATOM     20  C   UNL     1      -3.882  -1.439   0.404  0.00  0.00    +0.188 A 
ATOM     21  S   UNL     1      -2.478  -0.931   1.393  0.00  0.00    -0.035 S 
ATOM     22  N   UNL     1      -5.132  -1.902   0.797  0.00  0.00    -0.259 N 
ATOM     23  C   UNL     1      -6.049  -2.238  -0.132  0.00  0.00    +0.258 C 
ATOM     24  O   UNL     1      -5.782  -2.136  -1.316  0.00  0.00    -0.269 OA
ATOM     25  H   UNL     1      -5.345  -1.983   1.740  0.00  0.00    +0.157 HD
BRANCH  17  27
ATOM     26  C   UNL     1      -0.019   1.526   0.010  0.00  0.00    +0.011 C 
ATOM     27  C   UNL     1       0.002  -0.004   0.002  0.00  0.00    +0.061 C 
ENDBRANCH  17  27
ENDBRANCH   1  23
BRANCH   2  28
ATOM     28  N   UNL     1      -8.269  -3.066  -1.910  0.00  0.00    -0.356 N 
ATOM     29  H   UNL     1      -7.448  -2.763  -2.326  0.00  0.00    +0.142 HD
ATOM     30  H   UNL     1      -9.018  -3.345  -2.460  0.00  0.00    +0.142 HD
ENDBRANCH   2  28
TORSDOF 3
