REMARK  Name = ZINC66165413
REMARK  16 active torsions:
REMARK  status: ('A' for Active; 'I' for Inactive)
REMARK    1  A    between atoms: C_1  and  C_2
REMARK    2  A    between atoms: C_2  and  C_3
REMARK    3  A    between atoms: C_3  and  C_4
REMARK    4  A    between atoms: C_4  and  C_5
REMARK    5  A    between atoms: C_5  and  C_6
REMARK    6  A    between atoms: C_6  and  O_7
REMARK    7  A    between atoms: O_7  and  C_8
REMARK    8  A    between atoms: C_11  and  N_14
REMARK    9  A    between atoms: N_14  and  C_15
REMARK   10  A    between atoms: C_15  and  C_16
REMARK   11  A    between atoms: C_16  and  O_17
REMARK   12  A    between atoms: O_17  and  C_18
REMARK   13  A    between atoms: C_23  and  C_24
REMARK   14  A    between atoms: C_24  and  C_25
REMARK   15  A    between atoms: C_24  and  C_26
REMARK   16  A    between atoms: C_24  and  C_27
REMARK                            x       y       z     vdW  Elec       q    Type
REMARK                         _______ _______ _______ _____ _____    ______ ____
ROOT
ATOM      1  N   UNL     1       2.576  -9.983  -4.369  0.00  0.00    -0.341 N 
ATOM      2  H   UNL     1       2.202 -10.583  -3.704  0.00  0.00    +0.146 HD
ENDROOT
BRANCH   1   6
ATOM      3  C   UNL     1       2.251  -5.857  -3.871  0.00  0.00    +0.121 A 
ATOM      4  C   UNL     1       1.716  -6.715  -2.920  0.00  0.00    +0.047 A 
ATOM      5  C   UNL     1       1.823  -8.082  -3.084  0.00  0.00    +0.026 A 
ATOM      6  C   UNL     1       2.466  -8.598  -4.202  0.00  0.00    +0.027 A 
ATOM      7  C   UNL     1       3.001  -7.739  -5.153  0.00  0.00    +0.026 A 
ATOM      8  C   UNL     1       2.888  -6.372  -4.990  0.00  0.00    +0.047 A 
BRANCH   3   9
ATOM      9  O   UNL     1       2.145  -4.511  -3.708  0.00  0.00    -0.492 OA
BRANCH   9  10
ATOM     10  C   UNL     1       1.476  -4.051  -2.532  0.00  0.00    +0.229 C 
BRANCH  10  11
ATOM     11  C   UNL     1       1.455  -2.521  -2.524  0.00  0.00    +0.041 C 
BRANCH  11  12
ATOM     12  C   UNL     1       0.739  -2.027  -1.265  0.00  0.00    +0.003 C 
BRANCH  12  13
ATOM     13  C   UNL     1       0.718  -0.497  -1.257  0.00  0.00    -0.000 C 
BRANCH  13  15
ATOM     14  C   UNL     1      -0.019   1.526   0.010  0.00  0.00    +0.004 C 
ATOM     15  C   UNL     1       0.002  -0.004   0.002  0.00  0.00    -0.003 C 
ENDBRANCH  13  15
ENDBRANCH  12  13
ENDBRANCH  11  12
ENDBRANCH  10  11
ENDBRANCH   9  10
ENDBRANCH   3   9
ENDBRANCH   1   6
BRANCH   1  16
ATOM     16  C   UNL     1       3.254 -10.527  -5.548  0.00  0.00    +0.142 C 
BRANCH  16  17
ATOM     17  C   UNL     1       3.235 -12.056  -5.487  0.00  0.00    +0.247 C 
BRANCH  17  18
ATOM     18  O   UNL     1       1.886 -12.520  -5.579  0.00  0.00    -0.490 OA
BRANCH  18  19
ATOM     19  C   UNL     1       1.692 -13.864  -5.540  0.00  0.00    +0.124 A 
ATOM     20  C   UNL     1       2.776 -14.720  -5.410  0.00  0.00    +0.046 A 
ATOM     21  C   UNL     1       2.576 -16.086  -5.370  0.00  0.00    +0.004 A 
ATOM     22  C   UNL     1       1.296 -16.601  -5.460  0.00  0.00    +0.001 A 
ATOM     23  C   UNL     1       0.213 -15.751  -5.590  0.00  0.00    +0.008 A 
ATOM     24  C   UNL     1       0.408 -14.383  -5.625  0.00  0.00    -0.000 A 
BRANCH  24  25
ATOM     25  C   UNL     1      -0.773 -13.457  -5.761  0.00  0.00    -0.009 C 
ATOM     26  C   UNL     1      -2.061 -14.279  -5.833  0.00  0.00    +0.015 C 
ATOM     27  C   UNL     1      -0.831 -12.524  -4.549  0.00  0.00    +0.015 C 
ATOM     28  C   UNL     1      -0.625 -12.626  -7.037  0.00  0.00    +0.015 C 
ENDBRANCH  24  25
ENDBRANCH  18  19
ENDBRANCH  17  18
ENDBRANCH  16  17
ENDBRANCH   1  16
TORSDOF 12
