REMARK  Name = ZINC41334166
REMARK  4 active torsions:
REMARK  status: ('A' for Active; 'I' for Inactive)
REMARK    1  A    between atoms: C_5  and  N_7
REMARK    2  A    between atoms: C_16  and  N_30
REMARK    3  A    between atoms: C_17  and  N_19
REMARK    4  A    between atoms: N_19  and  C_20
REMARK                            x       y       z     vdW  Elec       q    Type
REMARK                         _______ _______ _______ _____ _____    ______ ____
ROOT
ATOM      1  N   UNL     1       4.128  -3.263  -0.747  0.00  0.00    -0.326 N 
ATOM      2  C   UNL     1       4.137  -4.019   0.513  0.00  0.00    +0.124 C 
ATOM      3  C   UNL     1       2.692  -4.381   0.877  0.00  0.00    +0.127 C 
ATOM      4  N   UNL     1       2.046  -4.976  -0.301  0.00  0.00    -0.297 N 
ATOM      5  C   UNL     1       2.037  -4.221  -1.561  0.00  0.00    +0.127 C 
ATOM      6  C   UNL     1       3.478  -3.856  -1.924  0.00  0.00    +0.124 C 
ATOM      7  C   UNL     1       1.457  -6.226  -0.225  0.00  0.00    +0.221 A 
ATOM      8  N   UNL     1       1.373  -6.829   0.952  0.00  0.00    -0.197 NA
ATOM      9  C   UNL     1       0.813  -8.031   1.063  0.00  0.00    +0.154 A 
ATOM     10  C   UNL     1       0.312  -8.653  -0.077  0.00  0.00    +0.205 A 
ATOM     11  C   UNL     1       0.418  -7.989  -1.295  0.00  0.00    +0.160 A 
ATOM     12  N   UNL     1       0.987  -6.785  -1.329  0.00  0.00    -0.197 NA
ATOM     13  N   UNL     1       0.730  -8.655   2.298  0.00  0.00    -0.341 N 
ATOM     14  H   UNL     1       1.081  -8.216   3.088  0.00  0.00    +0.144 HD
ATOM     15  H   UNL     1       0.320  -9.532   2.372  0.00  0.00    +0.144 HD
ENDROOT
BRANCH   1  20
ATOM     16  C   UNL     1       4.570   0.384  -0.622  0.00  0.00    +0.002 A 
ATOM     17  C   UNL     1       5.901   0.499  -0.977  0.00  0.00    +0.002 A 
ATOM     18  C   UNL     1       6.646  -0.632  -1.257  0.00  0.00    +0.022 A 
ATOM     19  C   UNL     1       6.061  -1.882  -1.181  0.00  0.00    +0.062 A 
ATOM     20  C   UNL     1       4.723  -2.001  -0.824  0.00  0.00    +0.048 A 
ATOM     21  C   UNL     1       3.979  -0.862  -0.544  0.00  0.00    +0.024 A 
ATOM     22 CL   UNL     1       6.997  -3.302  -1.533  0.00  0.00    -0.082 Cl
ENDBRANCH   1  20
BRANCH  10  23
ATOM     23  N   UNL     1      -0.318  -9.991   0.004  0.00  0.00    +0.063 N 
ATOM     24  O   UNL     1      -1.506 -10.088   0.202  0.00  0.00    -0.126 OA
ATOM     25  O   UNL     1       0.357 -10.986  -0.127  0.00  0.00    -0.126 OA
ENDBRANCH  10  23
BRANCH  11  26
ATOM     26  N   UNL     1      -0.066  -8.570  -2.457  0.00  0.00    -0.296 N 
ATOM     27  H   UNL     1      -0.397  -9.482  -2.442  0.00  0.00    +0.154 HD
BRANCH  26  28
ATOM     28  C   UNL     1      -0.078  -7.844  -3.648  0.00  0.00    +0.059 A 
ATOM     29  C   UNL     1       0.115  -6.479  -3.631  0.00  0.00    +0.025 A 
ATOM     30  C   UNL     1       0.105  -5.743  -4.812  0.00  0.00    +0.003 A 
ATOM     31  C   UNL     1      -0.095  -6.350  -6.015  0.00  0.00    +0.010 A 
ATOM     32  C   UNL     1      -0.295  -7.738  -6.074  0.00  0.00    +0.002 A 
ATOM     33  C   UNL     1      -0.282  -8.502  -4.881  0.00  0.00    +0.092 A 
ATOM     34  N   UNL     1      -0.467  -9.823  -4.935  0.00  0.00    -0.253 NA
ATOM     35  C   UNL     1      -0.656 -10.440  -6.076  0.00  0.00    +0.111 A 
ATOM     36  C   UNL     1      -0.674  -9.750  -7.287  0.00  0.00    +0.020 A 
ATOM     37  C   UNL     1      -0.505  -8.395  -7.302  0.00  0.00    +0.011 A 
ENDBRANCH  26  28
ENDBRANCH  11  26
TORSDOF 4
