REMARK  Name = ZINC08791407
REMARK  3 active torsions:
REMARK  status: ('A' for Active; 'I' for Inactive)
REMARK    1  A    between atoms: C_17  and  C_19
REMARK    2  A    between atoms: C_22  and  C_24
REMARK    3  A    between atoms: C_27  and  N_31
REMARK                            x       y       z     vdW  Elec       q    Type
REMARK                         _______ _______ _______ _____ _____    ______ ____
ROOT
ATOM      1  C   UNL     1       1.332   5.864   0.939  0.00  0.00    +0.007 A 
ATOM      2  C   UNL     1       0.884   4.616   1.388  0.00  0.00    +0.022 A 
ATOM      3  C   UNL     1      -0.350   4.161   1.043  0.00  0.00    +0.027 A 
ATOM      4  N   UNL     1      -1.193   4.937   0.324  0.00  0.00    -0.312 N 
ATOM      5  C   UNL     1      -0.755   6.115  -0.187  0.00  0.00    +0.251 A 
ATOM      6  O   UNL     1      -1.476   6.752  -0.938  0.00  0.00    -0.268 OA
ATOM      7  C   UNL     1       0.516   6.608   0.139  0.00  0.00    +0.070 A 
ATOM      8  C   UNL     1      -2.589   4.582   0.070  0.00  0.00    +0.130 C 
ATOM      9  C   UNL     1      -2.849   3.096   0.243  0.00  0.00    +0.027 C 
ATOM     10  C   UNL     1      -2.212   2.620   1.549  0.00  0.00    +0.018 C 
ATOM     11  C   UNL     1      -0.692   2.774   1.432  0.00  0.00    +0.054 C 
ATOM     12  C   UNL     1      -0.198   1.833   0.319  0.00  0.00    +0.117 C 
ATOM     13  N   UNL     1      -0.874   2.231  -0.926  0.00  0.00    -0.294 N 
ATOM     14  C   UNL     1      -2.340   2.286  -0.941  0.00  0.00    +0.113 C 
ATOM     15  C   UNL     1      -0.162   2.538  -2.028  0.00  0.00    +0.282 C 
ATOM     16  O   UNL     1       1.053   2.598  -1.972  0.00  0.00    -0.267 OA
ENDROOT
BRANCH  15  17
ATOM     17  C   UNL     1      -0.849   2.800  -3.295  0.00  0.00    +0.190 A 
ATOM     18  C   UNL     1      -0.261   3.250  -4.457  0.00  0.00    +0.055 A 
ATOM     19  C   UNL     1      -1.280   3.356  -5.410  0.00  0.00    +0.051 A 
ATOM     20  C   UNL     1      -2.442   2.981  -4.799  0.00  0.00    +0.137 A 
ATOM     21  O   UNL     1      -2.171   2.647  -3.526  0.00  0.00    -0.450 OA
BRANCH  20  22
ATOM     22  C   UNL     1      -3.775   2.946  -5.433  0.00  0.00    +0.036 A 
ATOM     23  C   UNL     1      -4.284   4.086  -6.059  0.00  0.00    +0.015 A 
ATOM     24  C   UNL     1      -5.527   4.045  -6.654  0.00  0.00    +0.033 A 
ATOM     25  C   UNL     1      -6.276   2.882  -6.622  0.00  0.00    +0.128 A 
ATOM     26  C   UNL     1      -5.782   1.750  -5.998  0.00  0.00    +0.053 A 
ATOM     27  C   UNL     1      -4.536   1.775  -5.403  0.00  0.00    +0.054 A 
ATOM     28 CL   UNL     1      -3.917   0.354  -4.621  0.00  0.00    -0.083 Cl
BRANCH  25  29
ATOM     29  N   UNL     1      -7.613   2.848  -7.257  0.00  0.00    +0.056 N 
ATOM     30  O   UNL     1      -8.275   1.826  -7.230  0.00  0.00    -0.126 OA
ATOM     31  O   UNL     1      -8.051   3.843  -7.807  0.00  0.00    -0.126 OA
ENDBRANCH  25  29
ENDBRANCH  20  22
ENDBRANCH  15  17
TORSDOF 3
