REMARK  Name = ZINC63991032
REMARK  5 active torsions:
REMARK  status: ('A' for Active; 'I' for Inactive)
REMARK    1  A    between atoms: C_7  and  C_10
REMARK    2  A    between atoms: C_10  and  C_11
REMARK    3  A    between atoms: N_13  and  C_14
REMARK    4  A    between atoms: C_17  and  N_20
REMARK    5  A    between atoms: C_23  and  C_26
REMARK                            x       y       z     vdW  Elec       q    Type
REMARK                         _______ _______ _______ _____ _____    ______ ____
ROOT
ATOM      1  C   UNL     1      -0.463  -5.137  -3.009  0.00  0.00    +0.034 A 
ATOM      2  C   UNL     1       0.255  -4.505  -4.015  0.00  0.00    +0.025 A 
ATOM      3  C   UNL     1       0.147  -4.942  -5.320  0.00  0.00    +0.025 A 
ATOM      4  C   UNL     1      -0.679  -6.015  -5.627  0.00  0.00    +0.030 A 
ATOM      5  C   UNL     1      -1.397  -6.648  -4.620  0.00  0.00    +0.025 A 
ATOM      6  C   UNL     1      -1.285  -6.214  -3.314  0.00  0.00    +0.025 A 
ENDROOT
BRANCH   4   7
ATOM      7  N   UNL     1      -0.789  -6.459  -6.949  0.00  0.00    -0.330 N 
ATOM      8  C   UNL     1      -1.754  -7.506  -7.309  0.00  0.00    +0.106 C 
ATOM      9  C   UNL     1      -2.631  -6.996  -8.457  0.00  0.00    +0.031 C 
ATOM     10  C   UNL     1      -1.737  -6.540  -9.613  0.00  0.00    +0.078 C 
ATOM     11  C   UNL     1      -0.839  -5.393  -9.143  0.00  0.00    +0.031 C 
ATOM     12  C   UNL     1       0.054  -5.881  -8.004  0.00  0.00    +0.106 C 
BRANCH  10  13
ATOM     13  C   UNL     1      -2.597  -6.068 -10.757  0.00  0.00    +0.214 C 
ATOM     14  O   UNL     1      -3.805  -6.094 -10.658  0.00  0.00    -0.276 OA
ATOM     15  N   UNL     1      -2.023  -5.617 -11.890  0.00  0.00    -0.329 N 
ATOM     16  H   UNL     1      -1.056  -5.596 -11.969  0.00  0.00    +0.145 HD
ATOM     17  H   UNL     1      -2.576  -5.314 -12.626  0.00  0.00    +0.145 HD
ENDBRANCH  10  13
ENDBRANCH   4   7
BRANCH   1  20
ATOM     18  C   UNL     1      -0.395  -5.580  -0.670  0.00  0.00    +0.221 C 
ATOM     19  O   UNL     1      -0.609  -6.752  -0.899  0.00  0.00    -0.275 OA
ATOM     20  N   UNL     1      -0.353  -4.693  -1.684  0.00  0.00    -0.285 N 
ATOM     21  H   UNL     1      -0.246  -3.747  -1.497  0.00  0.00    +0.155 HD
BRANCH  18  22
ATOM     22  C   UNL     1      -0.177  -5.116   0.747  0.00  0.00    +0.129 C 
BRANCH  22  29
ATOM     23  C   UNL     1       2.984  -7.901   2.565  0.00  0.00    +0.001 A 
ATOM     24  C   UNL     1       2.447  -8.890   3.401  0.00  0.00    +0.002 A 
ATOM     25  C   UNL     1       1.124  -9.002   3.643  0.00  0.00    +0.026 A 
ATOM     26  C   UNL     1       0.205  -8.098   3.041  0.00  0.00    +0.043 A 
ATOM     27  N   UNL     1      -1.101  -8.002   3.116  0.00  0.00    -0.380 N 
ATOM     28  C   UNL     1      -1.535  -6.876   2.283  0.00  0.00    +0.145 C 
ATOM     29  C   UNL     1      -0.275  -6.294   1.682  0.00  0.00    -0.033 C 
ATOM     30  C   UNL     1       0.746  -7.045   2.153  0.00  0.00    -0.001 A 
ATOM     31  C   UNL     1       2.198  -6.992   1.944  0.00  0.00    +0.010 A 
ATOM     32  H   UNL     1      -1.682  -8.580   3.635  0.00  0.00    +0.160 HD
ENDBRANCH  22  29
ENDBRANCH  18  22
ENDBRANCH   1  20
TORSDOF 5
