REMARK  Name = ZINC49937847
REMARK  2 active torsions:
REMARK  status: ('A' for Active; 'I' for Inactive)
REMARK    1  A    between atoms: C_6  and  C_7
REMARK    2  A    between atoms: C_18  and  C_20
REMARK                            x       y       z     vdW  Elec       q    Type
REMARK                         _______ _______ _______ _____ _____    ______ ____
ROOT
ATOM      1  C   UNL     1      -1.561  -0.812   0.180  0.00  0.00    +0.154 C 
ATOM      2  C   UNL     1      -1.386  -1.733   1.401  0.00  0.00    +0.113 C 
ATOM      3  C   UNL     1      -1.290  -3.219   1.089  0.00  0.00    +0.065 C 
ATOM      4  C   UNL     1      -0.801  -4.089   2.164  0.00  0.00    +0.040 A 
ATOM      5  C   UNL     1      -0.991  -5.469   2.130  0.00  0.00    +0.033 A 
ATOM      6  C   UNL     1      -0.505  -6.250   3.159  0.00  0.00    +0.042 A 
ATOM      7  C   UNL     1       0.169  -5.663   4.220  0.00  0.00    +0.023 A 
ATOM      8  C   UNL     1       0.358  -4.296   4.265  0.00  0.00    +0.048 A 
ATOM      9  C   UNL     1      -0.124  -3.491   3.244  0.00  0.00    +0.130 A 
ATOM     10  O   UNL     1       0.048  -2.149   3.297  0.00  0.00    -0.483 OA
ATOM     11  C   UNL     1      -0.072  -1.380   2.098  0.00  0.00    +0.215 C 
ATOM     12 CL   UNL     1      -0.737  -7.971   3.126  0.00  0.00    -0.084 Cl
ATOM     13  N   UNL     1      -1.571  -3.648  -0.096  0.00  0.00    -0.215 NA
ATOM     14  C   UNL     1      -1.859  -2.851  -1.156  0.00  0.00    +0.249 A 
ATOM     15  N   UNL     1      -1.841  -1.500  -1.090  0.00  0.00    -0.221 N 
ATOM     16  N   UNL     1      -2.136  -1.027  -2.374  0.00  0.00    -0.156 NA
ATOM     17  C   UNL     1      -2.343  -2.079  -3.125  0.00  0.00    +0.247 A 
ATOM     18  N   UNL     1      -2.187  -3.172  -2.402  0.00  0.00    -0.198 NA
ENDROOT
BRANCH   1  24
ATOM     19  C   UNL     1       0.893  -0.639  -0.283  0.00  0.00    +0.008 A 
ATOM     20  C   UNL     1       2.050   0.101  -0.437  0.00  0.00    +0.038 A 
ATOM     21  C   UNL     1       2.015   1.478  -0.295  0.00  0.00    +0.123 A 
ATOM     22  C   UNL     1       0.820   2.112   0.002  0.00  0.00    +0.038 A 
ATOM     23  C   UNL     1      -0.336   1.370   0.155  0.00  0.00    +0.008 A 
ATOM     24  C   UNL     1      -0.299  -0.005   0.013  0.00  0.00    -0.022 A 
ATOM     25  F   UNL     1       3.145   2.202  -0.445  0.00  0.00    -0.205 F 
ENDBRANCH   1  24
BRANCH  11  26
ATOM     26  C   UNL     1      -0.063   0.088   2.439  0.00  0.00    -0.004 A 
ATOM     27  C   UNL     1      -1.248   0.770   2.670  0.00  0.00    +0.027 A 
ATOM     28  C   UNL     1      -1.200   2.116   2.980  0.00  0.00    +0.111 A 
ATOM     29  N   UNL     1      -0.046   2.750   3.057  0.00  0.00    -0.263 NA
ATOM     30  C   UNL     1       1.100   2.133   2.845  0.00  0.00    +0.111 A 
ATOM     31  C   UNL     1       1.131   0.786   2.536  0.00  0.00    +0.027 A 
ENDBRANCH  11  26
TORSDOF 2
