REMARK  Name = ZINC32664944
REMARK  13 active torsions:
REMARK  status: ('A' for Active; 'I' for Inactive)
REMARK    1  A    between atoms: C_1  and  C_2
REMARK    2  A    between atoms: C_2  and  C_3
REMARK    3  A    between atoms: C_6  and  C_9
REMARK    4  A    between atoms: C_9  and  C_11
REMARK    5  A    between atoms: C_9  and  N_12
REMARK    6  A    between atoms: N_12  and  C_13
REMARK    7  A    between atoms: C_13  and  C_15
REMARK    8  A    between atoms: C_13  and  C_16
REMARK    9  A    between atoms: N_18  and  C_19
REMARK   10  A    between atoms: C_22  and  C_25
REMARK   11  A    between atoms: N_27  and  C_28
REMARK   12  A    between atoms: C_33  and  O_34
REMARK   13  A    between atoms: O_34  and  C_35
REMARK                            x       y       z     vdW  Elec       q    Type
REMARK                         _______ _______ _______ _____ _____    ______ ____
ROOT
ATOM      1  C   UNL     1      -5.695  -2.862  -0.195  0.00  0.00    +0.203 C 
ATOM      2  O   UNL     1      -4.599  -3.376  -0.117  0.00  0.00    -0.277 OA
ATOM      3  N   UNL     1      -5.805  -1.523  -0.303  0.00  0.00    -0.287 N 
ATOM      4  H   UNL     1      -6.790  -1.064  -0.472  0.00  0.00    +0.155 HD
ENDROOT
BRANCH   3   5
ATOM      5  C   UNL     1      -4.670  -0.720  -0.202  0.00  0.00    +0.033 A 
ATOM      6  C   UNL     1      -3.566  -1.165   0.519  0.00  0.00    +0.024 A 
ATOM      7  C   UNL     1      -2.444  -0.375   0.621  0.00  0.00    +0.015 A 
ATOM      8  C   UNL     1      -2.414   0.877  -0.000  0.00  0.00    +0.037 A 
ATOM      9  C   UNL     1      -3.526   1.324  -0.719  0.00  0.00    +0.015 A 
ATOM     10  C   UNL     1      -4.643   0.526  -0.821  0.00  0.00    +0.024 A 
BRANCH   8  11
ATOM     11  C   UNL     1      -1.212   1.727   0.107  0.00  0.00    +0.248 C 
ATOM     12  O   UNL     1      -0.247   1.339   0.737  0.00  0.00    -0.270 OA
ATOM     13  N   UNL     1      -1.185   2.933  -0.493  0.00  0.00    -0.279 N 
ATOM     14  H   UNL     1      -2.083   3.316  -1.001  0.00  0.00    +0.155 HD
BRANCH  13  15
ATOM     15  C   UNL     1      -0.013   3.701  -0.469  0.00  0.00    +0.076 A 
ATOM     16  C   UNL     1       0.817   3.669   0.642  0.00  0.00    +0.027 A 
ATOM     17  C   UNL     1       1.974   4.424   0.661  0.00  0.00    +0.002 A 
ATOM     18  C   UNL     1       2.303   5.219  -0.421  0.00  0.00    +0.004 A 
ATOM     19  C   UNL     1       1.478   5.260  -1.530  0.00  0.00    +0.047 A 
ATOM     20  C   UNL     1       0.318   4.503  -1.559  0.00  0.00    +0.141 A 
BRANCH  20  21
ATOM     21  O   UNL     1      -0.494   4.543  -2.648  0.00  0.00    -0.493 OA
ATOM     22  C   UNL     1      -0.090   5.387  -3.728  0.00  0.00    +0.277 C 
ENDBRANCH  20  21
ENDBRANCH  13  15
ENDBRANCH   8  11
ENDBRANCH   3   5
BRANCH   1  23
ATOM     23  C   UNL     1      -6.933  -3.721  -0.172  0.00  0.00    +0.014 C 
ATOM     24  C   UNL     1      -7.718  -3.518  -1.470  0.00  0.00    -0.004 C 
BRANCH  23  25
ATOM     25  N   UNL     1      -6.547  -5.133  -0.049  0.00  0.00    +0.391 N 
ATOM     26  H   UNL     1      -5.648  -5.199   0.581  0.00  0.00    -0.084 HD
ATOM     27  H   UNL     1      -6.323  -5.526  -1.051  0.00  0.00    -0.084 HD
BRANCH  25  28
ATOM     28  C   UNL     1      -7.628  -5.923   0.556  0.00  0.00    -0.043 C 
ATOM     29  C   UNL     1      -7.535  -5.832   2.081  0.00  0.00    -0.009 C 
BRANCH  28  33
ATOM     30  C   UNL     1      -7.258 -10.003  -0.653  0.00  0.00    -0.048 A 
ATOM     31  C   UNL     1      -8.507  -9.415  -0.577  0.00  0.00    +0.004 A 
ATOM     32  C   UNL     1      -8.627  -8.095  -0.185  0.00  0.00    +0.002 A 
ATOM     33  C   UNL     1      -7.498  -7.362   0.130  0.00  0.00    -0.062 A 
ATOM     34  C   UNL     1      -6.248  -7.948   0.048  0.00  0.00    +0.002 A 
ATOM     35  C   UNL     1      -6.129  -9.270  -0.338  0.00  0.00    +0.004 A 
BRANCH  30  37
ATOM     36  C   UNL     1      -6.971 -11.511  -2.601  0.00  0.00    +0.009 C 
ATOM     37  C   UNL     1      -7.128 -11.442  -1.080  0.00  0.00    +0.032 C 
ENDBRANCH  30  37
ENDBRANCH  28  33
ENDBRANCH  25  28
ENDBRANCH  23  25
ENDBRANCH   1  23
TORSDOF 9
