REMARK  Name = ZINC04753249
REMARK  3 active torsions:
REMARK  status: ('A' for Active; 'I' for Inactive)
REMARK    1  A    between atoms: C_1  and  C_2
REMARK    2  A    between atoms: C_2  and  N_3
REMARK    3  A    between atoms: C_16  and  C_18
REMARK                            x       y       z     vdW  Elec       q    Type
REMARK                         _______ _______ _______ _____ _____    ______ ____
ROOT
ATOM      1  N   UNL     1      -1.376   0.753   3.290  0.00  0.00    -0.300 N 
ATOM      2  C   UNL     1      -1.104   0.562   1.984  0.00  0.00    +0.302 C 
ATOM      3  O   UNL     1      -1.170  -0.554   1.507  0.00  0.00    -0.253 OA
ATOM      4  N   UNL     1      -0.759   1.608   1.207  0.00  0.00    -0.285 N 
ATOM      5  C   UNL     1      -0.568   1.433  -0.239  0.00  0.00    +0.112 C 
ATOM      6  C   UNL     1      -1.455   2.441  -0.980  0.00  0.00    +0.056 C 
ATOM      7  C   UNL     1      -1.180   3.842  -0.455  0.00  0.00    +0.087 C 
ATOM      8  C   UNL     1      -1.459   3.942   1.038  0.00  0.00    +0.056 C 
ATOM      9  C   UNL     1      -0.571   2.943   1.791  0.00  0.00    +0.112 C 
ATOM     10  N   UNL     1       0.191   4.265  -0.767  0.00  0.00    -0.282 N 
ATOM     11  C   UNL     1       0.318   5.349  -1.741  0.00  0.00    +0.120 C 
ATOM     12  C   UNL     1      -0.902   6.314  -1.659  0.00  0.00    +0.090 C 
ATOM     13  S   UNL     1      -2.224   5.055  -1.358  0.00  0.00    -0.133 S 
ATOM     14  C   UNL     1       1.266   3.691  -0.191  0.00  0.00    +0.249 C 
ATOM     15  O   UNL     1       1.137   2.667   0.452  0.00  0.00    -0.270 OA
ATOM     16  H   UNL     1      -1.252   1.629   3.688  0.00  0.00    +0.150 HD
ENDROOT
BRANCH  14  17
ATOM     17  C   UNL     1       2.600   4.307  -0.339  0.00  0.00    +0.055 A 
ATOM     18  C   UNL     1       2.894   5.079  -1.465  0.00  0.00    +0.016 A 
ATOM     19  C   UNL     1       4.141   5.652  -1.598  0.00  0.00    +0.021 A 
ATOM     20  C   UNL     1       5.103   5.462  -0.618  0.00  0.00    +0.042 A 
ATOM     21  C   UNL     1       4.819   4.697   0.500  0.00  0.00    +0.040 A 
ATOM     22  C   UNL     1       3.571   4.123   0.648  0.00  0.00    +0.054 A 
ATOM     23 CL   UNL     1       3.213   3.171   2.055  0.00  0.00    -0.083 Cl
ATOM     24 CL   UNL     1       6.671   6.186  -0.794  0.00  0.00    -0.083 Cl
ENDBRANCH  14  17
BRANCH   1  26
ATOM     25  C   UNL     1      -2.089   0.121   5.543  0.00  0.00    +0.024 C 
ATOM     26  C   UNL     1      -1.859  -0.361   4.109  0.00  0.00    +0.102 C 
ENDBRANCH   1  26
TORSDOF 2
