REMARK  Name = ZINC16139092
REMARK  7 active torsions:
REMARK  status: ('A' for Active; 'I' for Inactive)
REMARK    1  A    between atoms: C_1  and  C_2
REMARK    2  A    between atoms: N_4  and  C_5
REMARK    3  A    between atoms: C_5  and  N_7
REMARK    4  A    between atoms: N_7  and  C_8
REMARK    5  A    between atoms: C_11  and  N_14
REMARK    6  A    between atoms: C_15  and  C_16
REMARK    7  A    between atoms: C_18  and  N_23
REMARK                            x       y       z     vdW  Elec       q    Type
REMARK                         _______ _______ _______ _____ _____    ______ ____
ROOT
ATOM      1  C   UNL     1       2.455  -6.925  -0.055  0.00  0.00    +0.033 A 
ATOM      2  C   UNL     1       2.952  -6.205  -1.136  0.00  0.00    +0.025 A 
ATOM      3  C   UNL     1       2.912  -4.828  -1.126  0.00  0.00    +0.029 A 
ATOM      4  C   UNL     1       2.372  -4.155  -0.027  0.00  0.00    +0.064 A 
ATOM      5  C   UNL     1       1.879  -4.881   1.060  0.00  0.00    +0.029 A 
ATOM      6  C   UNL     1       1.916  -6.258   1.040  0.00  0.00    +0.025 A 
ENDROOT
BRANCH   1   7
ATOM      7  N   UNL     1       2.496  -8.322  -0.070  0.00  0.00    -0.297 N 
ATOM      8  H   UNL     1       2.220  -8.807  -0.864  0.00  0.00    +0.154 HD
BRANCH   7   9
ATOM      9  C   UNL     1       2.917  -8.995   1.019  0.00  0.00    +0.141 C 
ATOM     10  S   UNL     1       3.300  -8.146   2.455  0.00  0.00    -0.018 S 
BRANCH   9  14
ATOM     11  C   UNL     1       3.595 -12.511   2.018  0.00  0.00    +0.109 C 
ATOM     12  C   UNL     1       3.460 -11.010   2.065  0.00  0.00    +0.215 C 
ATOM     13  O   UNL     1       3.731 -10.409   3.083  0.00  0.00    -0.276 OA
ATOM     14  N   UNL     1       3.038 -10.337   0.977  0.00  0.00    -0.268 N 
ATOM     15  H   UNL     1       2.821 -10.818   0.163  0.00  0.00    +0.156 HD
ENDBRANCH   9  14
ENDBRANCH   7   9
ENDBRANCH   1   7
BRANCH   4  16
ATOM     16  N   UNL     1       2.331  -2.787  -0.013  0.00  0.00    -0.255 NA
ATOM     17  C   UNL     1       1.248  -2.171   0.371  0.00  0.00    +0.123 C 
BRANCH  17  18
ATOM     18  C   UNL     1       1.204  -0.702   0.386  0.00  0.00    +0.043 A 
ATOM     19  C   UNL     1       0.045  -0.036   0.798  0.00  0.00    +0.046 A 
ATOM     20  C   UNL     1       0.010   1.341   0.809  0.00  0.00    +0.128 A 
ATOM     21  C   UNL     1       1.119   2.071   0.414  0.00  0.00    +0.051 A 
ATOM     22  C   UNL     1       2.272   1.428   0.005  0.00  0.00    +0.067 A 
ATOM     23  C   UNL     1       2.325   0.042  -0.013  0.00  0.00    +0.201 A 
ATOM     24 BR   UNL     1       3.778   2.438  -0.530  0.00  0.00    -0.046 Br
ATOM     25  O   UNL     1       3.456  -0.592  -0.415  0.00  0.00    -0.286 OA
BRANCH  20  26
ATOM     26  N   UNL     1      -1.220   2.043   1.238  0.00  0.00    +0.056 N 
ATOM     27  O   UNL     1      -2.198   1.404   1.581  0.00  0.00    -0.126 OA
ATOM     28  O   UNL     1      -1.254   3.261   1.250  0.00  0.00    -0.126 OA
ENDBRANCH  20  26
ENDBRANCH  17  18
ENDBRANCH   4  16
TORSDOF 6
