REMARK  Name = ZINC27492356
REMARK  4 active torsions:
REMARK  status: ('A' for Active; 'I' for Inactive)
REMARK    1  A    between atoms: C_2  and  C_25
REMARK    2  A    between atoms: N_11  and  C_14
REMARK    3  A    between atoms: C_14  and  C_15
REMARK    4  A    between atoms: C_20  and  O_21
REMARK                            x       y       z     vdW  Elec       q    Type
REMARK                         _______ _______ _______ _____ _____    ______ ____
ROOT
ATOM      1  C   UNL     1       5.316   5.910   7.059  0.00  0.00    +0.037 A 
ATOM      2  C   UNL     1       5.997   4.750   7.403  0.00  0.00    +0.074 A 
ATOM      3  C   UNL     1       6.070   3.713   6.494  0.00  0.00    +0.125 A 
ATOM      4  N   UNL     1       5.501   3.812   5.307  0.00  0.00    -0.238 NA
ATOM      5  C   UNL     1       4.843   4.900   4.941  0.00  0.00    +0.140 A 
ATOM      6  C   UNL     1       4.734   5.987   5.805  0.00  0.00    +0.081 A 
ATOM      7 CL   UNL     1       3.876   7.416   5.319  0.00  0.00    -0.080 Cl
ATOM      8  N   UNL     1       4.259   4.961   3.680  0.00  0.00    -0.318 N 
ATOM      9  C   UNL     1       5.095   4.285   2.679  0.00  0.00    +0.088 C 
ATOM     10  C   UNL     1       4.459   4.443   1.296  0.00  0.00    -0.059 C 
ATOM     11  N   UNL     1       3.104   3.876   1.316  0.00  0.00    +0.384 N 
ATOM     12  C   UNL     1       2.267   4.552   2.317  0.00  0.00    -0.059 C 
ATOM     13  C   UNL     1       2.903   4.394   3.700  0.00  0.00    +0.088 C 
ATOM     14  H   UNL     1       3.183   2.816   1.599  0.00  0.00    -0.081 HD
ENDROOT
BRANCH   2  15
ATOM     15  C   UNL     1       6.651   4.624   8.755  0.00  0.00    +0.419 C 
ATOM     16  F   UNL     1       7.268   3.373   8.860  0.00  0.00    -0.166 F 
ATOM     17  F   UNL     1       7.610   5.631   8.905  0.00  0.00    -0.166 F 
ATOM     18  F   UNL     1       5.681   4.751   9.755  0.00  0.00    -0.166 F 
ENDBRANCH   2  15
BRANCH  11  19
ATOM     19  C   UNL     1       2.487   3.940  -0.016  0.00  0.00    -0.039 C 
BRANCH  19  20
ATOM     20  C   UNL     1       1.211   3.137  -0.018  0.00  0.00    -0.019 A 
ATOM     21  C   UNL     1      -0.011   3.783   0.003  0.00  0.00    +0.055 A 
ATOM     22  C   UNL     1      -1.185   3.048   0.001  0.00  0.00    +0.167 A 
ATOM     23  C   UNL     1      -1.133   1.657  -0.028  0.00  0.00    +0.170 A 
ATOM     24  C   UNL     1       0.092   1.012  -0.044  0.00  0.00    +0.095 A 
ATOM     25  C   UNL     1       1.265   1.752  -0.041  0.00  0.00    +0.122 A 
ATOM     26  O   UNL     1      -2.410   1.173  -0.021  0.00  0.00    -0.452 OA
ATOM     27  C   UNL     1      -3.236   2.268   0.417  0.00  0.00    +0.466 C 
ATOM     28  O   UNL     1      -2.494   3.436   0.018  0.00  0.00    -0.453 OA
BRANCH  25  29
ATOM     29  O   UNL     1       2.468   1.119  -0.062  0.00  0.00    -0.506 OA
ATOM     30  H   UNL     1       2.511   0.020  -0.080  0.00  0.00    +0.292 HD
ENDBRANCH  25  29
ENDBRANCH  19  20
ENDBRANCH  11  19
TORSDOF 4
