REMARK  Name = ZINC08855432
REMARK  4 active torsions:
REMARK  status: ('A' for Active; 'I' for Inactive)
REMARK    1  A    between atoms: C_3  and  N_8
REMARK    2  A    between atoms: N_11  and  C_14
REMARK    3  A    between atoms: C_15  and  C_19
REMARK    4  A    between atoms: N_21  and  C_22
REMARK                            x       y       z     vdW  Elec       q    Type
REMARK                         _______ _______ _______ _____ _____    ______ ____
ROOT
ATOM      1  C   UNL     1       3.824   1.290   0.028  0.00  0.00    +0.111 A 
ATOM      2  C   UNL     1       3.122   0.698   1.092  0.00  0.00    +0.075 A 
ATOM      3  C   UNL     1       3.097  -0.698   1.188  0.00  0.00    +0.018 A 
ATOM      4  C   UNL     1       3.758  -1.436   0.222  0.00  0.00    +0.018 A 
ATOM      5  C   UNL     1       4.427  -0.781  -0.796  0.00  0.00    +0.084 A 
ATOM      6  N   UNL     1       4.483   0.571  -0.927  0.00  0.00    -0.349 N 
ATOM      7  H   UNL     1       4.990   1.023  -1.697  0.00  0.00    +0.167 HD
ENDROOT
BRANCH   1  11
ATOM      8  N   UNL     1       4.672   5.137  -1.251  0.00  0.00    -0.327 N 
ATOM      9  C   UNL     1       5.234   4.696   0.033  0.00  0.00    +0.124 C 
ATOM     10  C   UNL     1       5.240   3.166   0.085  0.00  0.00    +0.125 C 
ATOM     11  N   UNL     1       3.868   2.667  -0.085  0.00  0.00    -0.313 N 
ATOM     12  C   UNL     1       3.307   3.109  -1.370  0.00  0.00    +0.125 C 
ATOM     13  C   UNL     1       3.301   4.638  -1.422  0.00  0.00    +0.124 C 
BRANCH   8  16
ATOM     14  C   UNL     1       5.288   8.671  -0.449  0.00  0.00    +0.003 A 
ATOM     15  C   UNL     1       5.241   7.295  -0.332  0.00  0.00    +0.023 A 
ATOM     16  C   UNL     1       4.717   6.529  -1.365  0.00  0.00    +0.031 A 
ATOM     17  C   UNL     1       4.232   7.149  -2.510  0.00  0.00    +0.043 A 
ATOM     18  C   UNL     1       4.278   8.526  -2.619  0.00  0.00    +0.043 A 
ATOM     19  C   UNL     1       4.805   9.286  -1.589  0.00  0.00    +0.020 A 
ATOM     20 CL   UNL     1       3.672   9.303  -4.049  0.00  0.00    -0.083 Cl
ENDBRANCH   8  16
ENDBRANCH   1  11
BRANCH   2  21
ATOM     21  C   UNL     1       2.430   1.532   2.091  0.00  0.00    +0.252 C 
ATOM     22  O   UNL     1       2.385   2.739   1.949  0.00  0.00    -0.270 OA
ATOM     23  N   UNL     1       1.849   0.957   3.162  0.00  0.00    -0.279 N 
ATOM     24  H   UNL     1       1.829  -0.009   3.243  0.00  0.00    +0.155 HD
BRANCH  23  25
ATOM     25  C   UNL     1       1.267   1.755   4.156  0.00  0.00    +0.069 A 
ATOM     26  C   UNL     1       0.639   2.945   3.813  0.00  0.00    +0.029 A 
ATOM     27  C   UNL     1       0.067   3.731   4.795  0.00  0.00    +0.040 A 
ATOM     28  C   UNL     1       0.118   3.333   6.120  0.00  0.00    +0.126 A 
ATOM     29  C   UNL     1       0.744   2.147   6.466  0.00  0.00    +0.078 A 
ATOM     30  C   UNL     1       1.313   1.354   5.487  0.00  0.00    +0.147 A 
ATOM     31  F   UNL     1       1.919   0.195   5.823  0.00  0.00    -0.203 F 
ATOM     32  F   UNL     1      -0.444   4.104   7.077  0.00  0.00    -0.205 F 
ENDBRANCH  23  25
ENDBRANCH   2  21
TORSDOF 4
