REMARK  Name = ZINC15420175
REMARK  12 active torsions:
REMARK  status: ('A' for Active; 'I' for Inactive)
REMARK    1  A    between atoms: C_1  and  C_2
REMARK    2  A    between atoms: C_2  and  N_3
REMARK    3  A    between atoms: N_3  and  C_4
REMARK    4  A    between atoms: N_3  and  C_18
REMARK    5  A    between atoms: C_4  and  C_5
REMARK    6  A    between atoms: N_7  and  C_8
REMARK    7  A    between atoms: C_11  and  N_14
REMARK    8  A    between atoms: C_15  and  C_17
REMARK    9  A    between atoms: C_18  and  C_19
REMARK   10  A    between atoms: N_21  and  C_22
REMARK   11  A    between atoms: C_22  and  C_24
REMARK   12  A    between atoms: C_22  and  C_25
REMARK                            x       y       z     vdW  Elec       q    Type
REMARK                         _______ _______ _______ _____ _____    ______ ____
ROOT
ATOM      1  N   UNL     1       1.278  -0.384   2.060  0.00  0.00    +0.391 N 
ATOM      2  H   UNL     1       2.148   0.073   1.831  0.00  0.00    -0.080 HD
ENDROOT
BRANCH   1   4
ATOM      3  C   UNL     1       0.175   1.338   0.713  0.00  0.00    -0.017 C 
ATOM      4  C   UNL     1       0.310  -0.163   0.978  0.00  0.00    -0.081 C 
ENDBRANCH   1   4
BRANCH   1   5
ATOM      5  C   UNL     1       1.510  -1.825   2.223  0.00  0.00    +0.020 C 
BRANCH   5   6
ATOM      6  C   UNL     1       2.167  -2.372   0.981  0.00  0.00    +0.201 C 
ATOM      7  O   UNL     1       2.418  -1.633   0.052  0.00  0.00    -0.278 OA
ATOM      8  N   UNL     1       2.476  -3.682   0.903  0.00  0.00    -0.287 N 
ATOM      9  H   UNL     1       2.339  -4.259   1.671  0.00  0.00    +0.155 HD
BRANCH   8  10
ATOM     10  C   UNL     1       2.996  -4.209  -0.285  0.00  0.00    +0.033 A 
ATOM     11  C   UNL     1       3.850  -3.445  -1.069  0.00  0.00    +0.025 A 
ATOM     12  C   UNL     1       4.363  -3.965  -2.241  0.00  0.00    +0.025 A 
ATOM     13  C   UNL     1       4.023  -5.252  -2.636  0.00  0.00    +0.033 A 
ATOM     14  C   UNL     1       3.169  -6.016  -1.853  0.00  0.00    +0.025 A 
ATOM     15  C   UNL     1       2.661  -5.498  -0.678  0.00  0.00    +0.025 A 
BRANCH  13  16
ATOM     16  N   UNL     1       4.543  -5.779  -3.825  0.00  0.00    -0.286 N 
ATOM     17  C   UNL     1       3.797  -6.617  -4.573  0.00  0.00    +0.214 C 
ATOM     18  O   UNL     1       2.649  -6.850  -4.261  0.00  0.00    -0.276 OA
ATOM     19  C   UNL     1       4.392  -7.266  -5.796  0.00  0.00    +0.109 C 
ATOM     20  H   UNL     1       5.439  -5.541  -4.111  0.00  0.00    +0.155 HD
ENDBRANCH  13  16
ENDBRANCH   8  10
ENDBRANCH   5   6
ENDBRANCH   1   5
BRANCH   1  21
ATOM     21  C   UNL     1       0.749   0.172   3.312  0.00  0.00    +0.019 C 
BRANCH  21  22
ATOM     22  C   UNL     1       1.804   0.088   4.385  0.00  0.00    +0.197 C 
ATOM     23  O   UNL     1       2.923  -0.289   4.107  0.00  0.00    -0.278 OA
ATOM     24  N   UNL     1       1.505   0.432   5.653  0.00  0.00    -0.310 N 
ATOM     25  H   UNL     1       0.610   0.734   5.875  0.00  0.00    +0.149 HD
BRANCH  24  26
ATOM     26  C   UNL     1       2.530   0.351   6.696  0.00  0.00    +0.101 C 
ATOM     27  C   UNL     1       3.275   1.685   6.783  0.00  0.00    +0.033 C 
BRANCH  26  28
ATOM     28  C   UNL     1       1.878   0.052   8.020  0.00  0.00    -0.020 A 
ATOM     29  C   UNL     1       0.555   0.313   8.206  0.00  0.00    +0.006 A 
ATOM     30  C   UNL     1      -0.066   0.043   9.424  0.00  0.00    +0.001 A 
ATOM     31  C   UNL     1       0.632  -0.489  10.464  0.00  0.00    +0.008 A 
ATOM     32  C   UNL     1       2.000  -0.772  10.310  0.00  0.00    -0.018 A 
ATOM     33  C   UNL     1       2.630  -0.503   9.069  0.00  0.00    -0.013 A 
ATOM     34  C   UNL     1       3.997  -0.792   8.914  0.00  0.00    +0.009 A 
ATOM     35  C   UNL     1       4.694  -1.329   9.952  0.00  0.00    +0.001 A 
ATOM     36  C   UNL     1       4.073  -1.600  11.170  0.00  0.00    +0.001 A 
ATOM     37  C   UNL     1       2.754  -1.321  11.361  0.00  0.00    +0.008 A 
ENDBRANCH  26  28
ENDBRANCH  24  26
ENDBRANCH  21  22
ENDBRANCH   1  21
TORSDOF 9
