REMARK  Name = ZINC12476914
REMARK  13 active torsions:
REMARK  status: ('A' for Active; 'I' for Inactive)
REMARK    1  A    between atoms: C_1  and  C_2
REMARK    2  A    between atoms: C_5  and  C_8
REMARK    3  A    between atoms: C_8  and  C_10
REMARK    4  A    between atoms: C_8  and  N_17
REMARK    5  A    between atoms: N_12  and  C_13
REMARK    6  A    between atoms: C_13  and  C_14
REMARK    7  A    between atoms: C_13  and  C_15
REMARK    8  A    between atoms: C_13  and  C_16
REMARK    9  A    between atoms: N_17  and  C_18
REMARK   10  A    between atoms: C_18  and  C_19
REMARK   11  A    between atoms: C_26  and  C_28
REMARK   12  A    between atoms: C_29  and  N_36
REMARK   13  A    between atoms: C_30  and  C_33
REMARK                            x       y       z     vdW  Elec       q    Type
REMARK                         _______ _______ _______ _____ _____    ______ ____
ROOT
ATOM      1  N   UNL     1      -1.353   0.528  -1.784  0.00  0.00    -0.277 N 
ATOM      2  C   UNL     1      -1.311   1.321  -2.873  0.00  0.00    +0.258 C 
ATOM      3  O   UNL     1      -0.241   1.593  -3.386  0.00  0.00    -0.269 OA
ENDROOT
BRANCH   2   4
ATOM      4  C   UNL     1      -2.551   1.853  -3.440  0.00  0.00    +0.115 A 
ATOM      5  C   UNL     1      -2.728   2.796  -4.455  0.00  0.00    +0.076 A 
ATOM      6  C   UNL     1      -4.074   3.049  -4.720  0.00  0.00    +0.155 A 
ATOM      7  N   UNL     1      -4.996   2.415  -4.030  0.00  0.00    -0.203 NA
ATOM      8  S   UNL     1      -4.239   1.467  -3.024  0.00  0.00    +0.019 S 
BRANCH   6   9
ATOM      9  C   UNL     1      -4.458   4.019  -5.762  0.00  0.00    +0.262 C 
ATOM     10  O   UNL     1      -3.599   4.602  -6.396  0.00  0.00    -0.269 OA
ATOM     11  N   UNL     1      -5.760   4.259  -6.012  0.00  0.00    -0.324 N 
ATOM     12  H   UNL     1      -6.445   3.793  -5.507  0.00  0.00    +0.145 HD
ATOM     13  H   UNL     1      -6.013   4.897  -6.698  0.00  0.00    +0.145 HD
ENDBRANCH   6   9
BRANCH   5  14
ATOM     14  N   UNL     1      -1.680   3.412  -5.126  0.00  0.00    -0.355 N 
ATOM     15  H   UNL     1      -0.763   3.194  -4.897  0.00  0.00    +0.142 HD
ATOM     16  H   UNL     1      -1.865   4.059  -5.824  0.00  0.00    +0.142 HD
ENDBRANCH   5  14
ENDBRANCH   2   4
BRANCH   1  17
ATOM     17  C   UNL     1      -0.108   0.043  -1.183  0.00  0.00    +0.193 C 
BRANCH  17  22
ATOM     18  C   UNL     1       2.586   4.416   1.464  0.00  0.00    +0.044 C 
ATOM     19  C   UNL     1       1.884   3.275   0.774  0.00  0.00    -0.050 A 
ATOM     20  C   UNL     1       2.595   2.420  -0.045  0.00  0.00    +0.004 A 
ATOM     21  C   UNL     1       1.951   1.374  -0.679  0.00  0.00    +0.006 A 
ATOM     22  C   UNL     1       0.594   1.183  -0.492  0.00  0.00    -0.018 A 
ATOM     23  C   UNL     1      -0.118   2.042   0.324  0.00  0.00    +0.006 A 
ATOM     24  C   UNL     1       0.527   3.085   0.961  0.00  0.00    +0.004 A 
ENDBRANCH  17  22
BRANCH  17  25
ATOM     25  C   UNL     1      -0.423  -1.036  -0.178  0.00  0.00    +0.239 C 
ATOM     26  O   UNL     1      -1.444  -1.681  -0.282  0.00  0.00    -0.273 OA
ATOM     27  N   UNL     1       0.430  -1.282   0.835  0.00  0.00    -0.309 N 
ATOM     28  H   UNL     1       1.219  -0.729   0.951  0.00  0.00    +0.149 HD
BRANCH  27  29
ATOM     29  C   UNL     1       0.167  -2.386   1.762  0.00  0.00    +0.026 C 
ATOM     30  C   UNL     1       0.114  -3.703   0.985  0.00  0.00    +0.031 C 
ATOM     31  C   UNL     1       1.285  -2.454   2.805  0.00  0.00    +0.031 C 
ATOM     32  C   UNL     1      -1.172  -2.154   2.465  0.00  0.00    +0.031 C 
ENDBRANCH  27  29
ENDBRANCH  17  25
ENDBRANCH   1  17
BRANCH   1  33
ATOM     33  C   UNL     1      -2.643   0.153  -1.201  0.00  0.00    +0.144 C 
BRANCH  33  34
ATOM     34  C   UNL     1      -3.204  -1.033  -1.942  0.00  0.00    -0.030 A 
ATOM     35  C   UNL     1      -2.740  -1.338  -3.208  0.00  0.00    +0.008 A 
ATOM     36  C   UNL     1      -3.250  -2.429  -3.887  0.00  0.00    +0.038 A 
ATOM     37  C   UNL     1      -4.232  -3.210  -3.303  0.00  0.00    +0.123 A 
ATOM     38  C   UNL     1      -4.699  -2.900  -2.037  0.00  0.00    +0.038 A 
ATOM     39  C   UNL     1      -4.185  -1.812  -1.358  0.00  0.00    +0.008 A 
ATOM     40  F   UNL     1      -4.734  -4.274  -3.968  0.00  0.00    -0.205 F 
ENDBRANCH  33  34
ENDBRANCH   1  33
TORSDOF 9
