REMARK  Name = ZINC39480325
REMARK  2 active torsions:
REMARK  status: ('A' for Active; 'I' for Inactive)
REMARK    1  A    between atoms: C_1  and  N_2
REMARK    2  A    between atoms: C_12  and  O_21
REMARK                            x       y       z     vdW  Elec       q    Type
REMARK                         _______ _______ _______ _____ _____    ______ ____
ROOT
ATOM      1  C   UNL     1      -0.018   1.461   0.010  0.00  0.00    +0.137 C 
ATOM      2  N   UNL     1       0.002  -0.004   0.002  0.00  0.00    -0.284 N 
ATOM      3  C   UNL     1      -1.244  -0.586   0.005  0.00  0.00    +0.074 A 
ATOM      4  C   UNL     1      -2.255   0.125   0.623  0.00  0.00    -0.013 A 
ATOM      5  C   UNL     1      -3.564   0.034   0.329  0.00  0.00    +0.020 A 
ATOM      6  C   UNL     1      -3.939  -1.079  -0.435  0.00  0.00    +0.016 A 
ATOM      7  C   UNL     1      -2.972  -1.987  -0.836  0.00  0.00    +0.054 A 
ATOM      8  C   UNL     1      -1.619  -1.760  -0.630  0.00  0.00    +0.146 A 
ATOM      9  F   UNL     1      -0.694  -2.656  -1.038  0.00  0.00    -0.203 F 
ATOM     10  I   UNL     1      -5.945  -1.369  -0.965  0.00  0.00    -0.044 I 
ATOM     11  C   UNL     1      -1.765   0.593   2.032  0.00  0.00    +0.132 C 
ATOM     12  C   UNL     1      -0.374  -0.030   1.994  0.00  0.00    +0.192 C 
ATOM     13  N   UNL     1       0.759   0.588   1.903  0.00  0.00    -0.211 NA
ATOM     14  C   UNL     1       1.755  -0.136   1.321  0.00  0.00    +0.144 A 
ATOM     15  C   UNL     1       1.257  -0.549  -0.013  0.00  0.00    +0.156 A 
ATOM     16  N   UNL     1       2.016  -1.238  -0.776  0.00  0.00    -0.218 NA
ATOM     17  C   UNL     1       3.237  -1.587  -0.382  0.00  0.00    +0.225 A 
ATOM     18  N   UNL     1       3.722  -1.246   0.796  0.00  0.00    -0.222 NA
ATOM     19  C   UNL     1       3.002  -0.524   1.674  0.00  0.00    +0.160 A 
ATOM     20 CL   UNL     1       3.659  -0.088   3.221  0.00  0.00    -0.060 Cl
ENDROOT
BRANCH  12  21
ATOM     21  O   UNL     1      -0.318  -1.377   2.064  0.00  0.00    -0.495 OA
ATOM     22  H   UNL     1       0.580  -1.735   2.037  0.00  0.00    +0.293 HD
ENDBRANCH  12  21
TORSDOF 1
