REMARK  Name = ZINC22696461
REMARK  10 active torsions:
REMARK  status: ('A' for Active; 'I' for Inactive)
REMARK    1  A    between atoms: C_1  and  N_2
REMARK    2  A    between atoms: N_2  and  C_3
REMARK    3  A    between atoms: N_2  and  C_4
REMARK    4  A    between atoms: C_4  and  C_5
REMARK    5  A    between atoms: C_5  and  C_7
REMARK    6  A    between atoms: C_5  and  N_13
REMARK    7  A    between atoms: C_14  and  C_16
REMARK    8  A    between atoms: C_20  and  S_22
REMARK    9  A    between atoms: S_22  and  N_25
REMARK   10  A    between atoms: N_25  and  C_26
REMARK                            x       y       z     vdW  Elec       q    Type
REMARK                         _______ _______ _______ _____ _____    ______ ____
ROOT
ATOM      1  C   UNL     1       1.405  -0.142  -0.332  0.00  0.00    +0.039 A 
ATOM      2  C   UNL     1       2.352   0.883  -0.337  0.00  0.00    +0.013 A 
ATOM      3  C   UNL     1       1.940   2.200  -0.335  0.00  0.00    +0.003 A 
ATOM      4  C   UNL     1       0.591   2.505  -0.328  0.00  0.00    +0.029 A 
ATOM      5  C   UNL     1      -0.354   1.494  -0.322  0.00  0.00    +0.109 A 
ATOM      6  C   UNL     1       0.045   0.173  -0.324  0.00  0.00    +0.041 A 
ENDROOT
BRANCH   1   8
ATOM      7  N   UNL     1       3.153  -1.856  -0.340  0.00  0.00    -0.306 N 
ATOM      8  C   UNL     1       1.839  -1.555  -0.333  0.00  0.00    +0.245 C 
ATOM      9  O   UNL     1       1.012  -2.445  -0.328  0.00  0.00    -0.270 OA
ATOM     10  H   UNL     1       3.901  -1.053  -0.423  0.00  0.00    +0.150 HD
BRANCH   7  11
ATOM     11  C   UNL     1       3.585  -3.252  -0.239  0.00  0.00    +0.087 C 
BRANCH  11  12
ATOM     12  C   UNL     1       4.985  -3.385  -0.781  0.00  0.00    -0.029 A 
ATOM     13  C   UNL     1       5.924  -2.406  -0.517  0.00  0.00    +0.005 A 
ATOM     14  C   UNL     1       7.210  -2.530  -1.011  0.00  0.00    +0.000 A 
ATOM     15  C   UNL     1       7.553  -3.629  -1.776  0.00  0.00    +0.000 A 
ATOM     16  C   UNL     1       6.612  -4.606  -2.044  0.00  0.00    +0.000 A 
ATOM     17  C   UNL     1       5.328  -4.484  -1.547  0.00  0.00    +0.005 A 
ENDBRANCH  11  12
BRANCH  11  18
ATOM     18  C   UNL     1       3.562  -3.687   1.228  0.00  0.00    -0.052 C 
BRANCH  18  20
ATOM     19  C   UNL     1       4.260  -5.482   2.696  0.00  0.00    -0.097 C 
ATOM     20  N   UNL     1       3.900  -5.114   1.320  0.00  0.00    +0.377 N 
ATOM     21  C   UNL     1       2.798  -5.949   0.823  0.00  0.00    -0.097 C 
ATOM     22  H   UNL     1       4.776  -5.296   0.681  0.00  0.00    -0.083 HD
ENDBRANCH  18  20
ENDBRANCH  11  18
ENDBRANCH   7  11
ENDBRANCH   1   8
BRANCH   5  23
ATOM     23  S   UNL     1      -2.070   1.895  -0.320  0.00  0.00    +0.072 S 
ATOM     24  O   UNL     1      -2.183   3.200  -0.869  0.00  0.00    -0.150 OA
ATOM     25  O   UNL     1      -2.749   0.774  -0.871  0.00  0.00    -0.150 OA
BRANCH  23  26
ATOM     26  N   UNL     1      -2.545   2.004   1.263  0.00  0.00    -0.213 N 
ATOM     27  H   UNL     1      -3.327   1.334   1.650  0.00  0.00    +0.174 HD
BRANCH  26  28
ATOM     28  C   UNL     1      -1.952   2.948   2.107  0.00  0.00    +0.083 A 
ATOM     29  C   UNL     1      -1.582   4.191   1.610  0.00  0.00    +0.027 A 
ATOM     30  C   UNL     1      -1.001   5.123   2.448  0.00  0.00    +0.002 A 
ATOM     31  C   UNL     1      -0.778   4.817   3.778  0.00  0.00    +0.003 A 
ATOM     32  C   UNL     1      -1.140   3.579   4.276  0.00  0.00    +0.040 A 
ATOM     33  C   UNL     1      -1.727   2.643   3.445  0.00  0.00    +0.146 A 
ATOM     34  F   UNL     1      -2.080   1.433   3.932  0.00  0.00    -0.204 F 
ENDBRANCH  26  28
ENDBRANCH  23  26
ENDBRANCH   5  23
TORSDOF 8
