REMARK  Name = ZINC46722425
REMARK  5 active torsions:
REMARK  status: ('A' for Active; 'I' for Inactive)
REMARK    1  A    between atoms: C_6  and  N_7
REMARK    2  A    between atoms: C_8  and  C_10
REMARK    3  A    between atoms: C_10  and  N_11
REMARK    4  A    between atoms: N_11  and  S_12
REMARK    5  A    between atoms: S_12  and  C_15
REMARK                            x       y       z     vdW  Elec       q    Type
REMARK                         _______ _______ _______ _____ _____    ______ ____
ROOT
ATOM      1  N   UNL     1      -4.785   0.085   0.362  0.00  0.00    -0.181 NA
ATOM      2  H   UNL     1      -4.623   1.019   0.569  0.00  0.00    +0.149 HD
ENDROOT
BRANCH   1   3
ATOM      3  S   UNL     1      -6.334  -0.456   0.138  0.00  0.00    +0.060 S 
ATOM      4  O   UNL     1      -7.188   0.663   0.337  0.00  0.00    -0.153 OA
ATOM      5  O   UNL     1      -6.332  -1.206  -1.069  0.00  0.00    -0.153 OA
BRANCH   3   6
ATOM      6  C   UNL     1      -6.682  -1.593   1.438  0.00  0.00    +0.127 A 
ATOM      7  C   UNL     1      -7.661  -1.296   2.369  0.00  0.00    +0.077 A 
ATOM      8  C   UNL     1      -7.935  -2.189   3.390  0.00  0.00    +0.144 A 
ATOM      9  C   UNL     1      -7.223  -3.385   3.477  0.00  0.00    +0.077 A 
ATOM     10  C   UNL     1      -6.244  -3.677   2.543  0.00  0.00    +0.049 A 
ATOM     11  C   UNL     1      -5.979  -2.781   1.520  0.00  0.00    +0.069 A 
ATOM     12 CL   UNL     1      -4.758  -3.148   0.343  0.00  0.00    -0.081 Cl
ATOM     13  N   UNL     1      -7.510  -4.279   4.518  0.00  0.00    -0.280 N 
ATOM     14  C   UNL     1      -8.657  -4.127   5.215  0.00  0.00    +0.255 C 
ATOM     15  O   UNL     1      -8.912  -4.870   6.139  0.00  0.00    -0.272 OA
ATOM     16  C   UNL     1      -9.620  -3.029   4.839  0.00  0.00    +0.325 C 
ATOM     17  O   UNL     1      -8.895  -1.914   4.313  0.00  0.00    -0.481 OA
ATOM     18  H   UNL     1      -6.894  -4.997   4.734  0.00  0.00    +0.155 HD
ENDBRANCH   3   6
ENDBRANCH   1   3
BRANCH   1  19
ATOM     19  C   UNL     1      -3.660  -0.846   0.249  0.00  0.00    +0.201 C 
BRANCH  19  21
ATOM     20  N   UNL     1      -1.201  -0.722   0.010  0.00  0.00    -0.282 N 
ATOM     21  C   UNL     1      -2.375  -0.070   0.127  0.00  0.00    +0.233 C 
ATOM     22  O   UNL     1      -2.396   1.143   0.134  0.00  0.00    -0.274 OA
ATOM     23  H   UNL     1      -1.189  -1.690  -0.061  0.00  0.00    +0.155 HD
BRANCH  20  29
ATOM     24  C   UNL     1       0.054   1.248  -0.608  0.00  0.00    +0.029 A 
ATOM     25  C   UNL     1       1.240   1.956  -0.626  0.00  0.00    +0.043 A 
ATOM     26  C   UNL     1       2.378   1.420  -0.049  0.00  0.00    +0.161 A 
ATOM     27  C   UNL     1       2.330   0.171   0.551  0.00  0.00    +0.195 A 
ATOM     28  C   UNL     1       1.144  -0.542   0.572  0.00  0.00    +0.182 A 
ATOM     29  C   UNL     1       0.001  -0.003  -0.009  0.00  0.00    +0.072 A 
ATOM     30  F   UNL     1       1.096  -1.760   1.155  0.00  0.00    -0.200 F 
ATOM     31  F   UNL     1       3.442  -0.351   1.114  0.00  0.00    -0.199 F 
ATOM     32  F   UNL     1       3.536   2.115  -0.069  0.00  0.00    -0.202 F 
ENDBRANCH  20  29
ENDBRANCH  19  21
ENDBRANCH   1  19
TORSDOF 5
