REMARK  Name = ZINC20796615
REMARK  4 active torsions:
REMARK  status: ('A' for Active; 'I' for Inactive)
REMARK    1  A    between atoms: C_6  and  S_7
REMARK    2  A    between atoms: S_7  and  N_10
REMARK    3  A    between atoms: N_13  and  C_16
REMARK    4  A    between atoms: C_16  and  C_17
REMARK                            x       y       z     vdW  Elec       q    Type
REMARK                         _______ _______ _______ _____ _____    ______ ____
ROOT
ATOM      1  N   UNL     1      -3.660   3.365  -8.908  0.00  0.00    -0.174 NA
ATOM      2  C   UNL     1      -2.508   4.250  -9.135  0.00  0.00    +0.125 C 
ATOM      3  C   UNL     1      -1.236   3.513  -8.703  0.00  0.00    +0.102 C 
ATOM      4  N   UNL     1      -1.393   3.040  -7.321  0.00  0.00    -0.293 NA
ATOM      5  C   UNL     1      -2.486   2.065  -7.213  0.00  0.00    +0.102 C 
ATOM      6  C   UNL     1      -3.810   2.742  -7.584  0.00  0.00    +0.125 C 
ENDROOT
BRANCH   1   7
ATOM      7  S   UNL     1      -4.761   3.076 -10.112  0.00  0.00    +0.061 S 
ATOM      8  O   UNL     1      -5.971   2.693  -9.473  0.00  0.00    -0.153 OA
ATOM      9  O   UNL     1      -4.686   4.180 -11.004  0.00  0.00    -0.153 OA
BRANCH   7  15
ATOM     10  C   UNL     1      -3.362   1.830 -12.097  0.00  0.00    +0.031 A 
ATOM     11  C   UNL     1      -2.914   0.725 -12.796  0.00  0.00    +0.042 A 
ATOM     12  C   UNL     1      -3.310  -0.544 -12.412  0.00  0.00    +0.142 A 
ATOM     13  C   UNL     1      -4.151  -0.707 -11.323  0.00  0.00    +0.078 A 
ATOM     14  C   UNL     1      -4.593   0.400 -10.621  0.00  0.00    +0.051 A 
ATOM     15  C   UNL     1      -4.196   1.667 -11.007  0.00  0.00    +0.107 A 
ATOM     16 CL   UNL     1      -4.648  -2.298 -10.839  0.00  0.00    -0.081 Cl
ATOM     17  F   UNL     1      -2.876  -1.624 -13.099  0.00  0.00    -0.204 F 
ENDBRANCH   7  15
ENDBRANCH   1   7
BRANCH   4  18
ATOM     18  C   UNL     1      -0.135   2.480  -6.809  0.00  0.00    +0.158 C 
BRANCH  18  19
ATOM     19  C   UNL     1      -0.261   2.234  -5.328  0.00  0.00    +0.126 A 
ATOM     20  N   UNL     1       0.793   1.715  -4.647  0.00  0.00    -0.194 NA
ATOM     21  C   UNL     1       0.724   1.479  -3.323  0.00  0.00    +0.282 A 
ATOM     22  O   UNL     1       1.678   1.012  -2.725  0.00  0.00    -0.265 OA
ATOM     23  C   UNL     1      -0.492   1.786  -2.631  0.00  0.00    +0.075 A 
ATOM     24  C   UNL     1      -0.791   1.612  -1.202  0.00  0.00    -0.023 A 
ATOM     25  C   UNL     1      -2.016   1.978  -0.788  0.00  0.00    -0.004 A 
ATOM     26  S   UNL     1      -2.837   2.567  -2.251  0.00  0.00    -0.075 S 
ATOM     27  C   UNL     1      -1.523   2.318  -3.416  0.00  0.00    +0.092 A 
ATOM     28  N   UNL     1      -1.381   2.524  -4.723  0.00  0.00    -0.336 N 
ATOM     29  C   UNL     1      -2.207   1.760   0.689  0.00  0.00    +0.043 C 
ATOM     30  C   UNL     1      -0.772   1.602   1.246  0.00  0.00    +0.010 C 
ATOM     31  C   UNL     1      -0.013   1.086   0.008  0.00  0.00    +0.037 C 
ATOM     32  H   UNL     1      -2.222   2.944  -5.294  0.00  0.00    +0.168 HD
ENDBRANCH  18  19
ENDBRANCH   4  18
TORSDOF 4
