REMARK  Name = ZINC31160399
REMARK  7 active torsions:
REMARK  status: ('A' for Active; 'I' for Inactive)
REMARK    1  A    between atoms: C_1  and  C_2
REMARK    2  A    between atoms: C_2  and  C_35
REMARK    3  A    between atoms: C_13  and  C_30
REMARK    4  A    between atoms: C_14  and  O_29
REMARK    5  A    between atoms: C_30  and  C_31
REMARK    6  A    between atoms: C_30  and  C_32
REMARK    7  A    between atoms: C_30  and  C_33
REMARK                            x       y       z     vdW  Elec       q    Type
REMARK                         _______ _______ _______ _____ _____    ______ ____
ROOT
ATOM      1  C   UNK A   1       0.136  -3.235   6.129  0.00  0.00    +0.060 C 
ATOM      2  C   UNK A   1      -0.189  -1.800   6.549  0.00  0.00    +0.124 C 
ATOM      3  C   UNK A   1       0.489  -1.501   7.860  0.00  0.00    +0.020 C 
ATOM      4  C   UNK A   1       1.721  -1.004   7.876  0.00  0.00    +0.011 C 
ATOM      5  C   UNK A   1       2.384  -0.725   6.584  0.00  0.00    +0.018 A 
ATOM      6  C   UNK A   1       3.750  -0.470   6.509  0.00  0.00    +0.012 A 
ATOM      7  C   UNK A   1       4.336  -0.236   5.280  0.00  0.00    +0.009 A 
ATOM      8  C   UNK A   1       3.580  -0.248   4.129  0.00  0.00    +0.012 A 
ATOM      9  C   UNK A   1       2.189  -0.454   4.196  0.00  0.00    +0.078 A 
ATOM     10  C   UNK A   1       1.599  -0.701   5.425  0.00  0.00    +0.150 A 
ATOM     11  O   UNK A   1       0.259  -0.900   5.535  0.00  0.00    -0.480 OA
ATOM     12  N   UNK A   1       1.617  -0.356   2.890  0.00  0.00    -0.317 N 
ATOM     13  C   UNK A   1       2.525   0.545   2.237  0.00  0.00    +0.144 C 
ATOM     14  C   UNK A   1       3.881  -0.168   2.655  0.00  0.00    +0.133 C 
ATOM     15  C   UNK A   1       4.815   0.953   2.163  0.00  0.00    +0.075 C 
ATOM     16  C   UNK A   1       4.208   1.179   0.752  0.00  0.00    +0.167 C 
ATOM     17  N   UNK A   1       2.731   0.924   0.897  0.00  0.00    -0.263 N 
ATOM     18  C   PRO A   2       1.900   1.155  -0.151  0.00  0.00    +0.238 C 
ATOM     19  O   PRO A   2       0.761   0.741  -0.192  0.00  0.00    -0.273 OA
ATOM     20  CA  PRO A   2       2.522   1.979  -1.272  0.00  0.00    +0.162 C 
ATOM     21  CB  PRO A   2       1.424   2.761  -2.009  0.00  0.00    +0.033 C 
ATOM     22  CG  PRO A   2       1.594   4.227  -1.560  0.00  0.00    +0.021 C 
ATOM     23  CD  PRO A   2       3.073   4.306  -1.122  0.00  0.00    +0.109 C 
ATOM     24  N   PRO A   2       3.402   2.977  -0.621  0.00  0.00    -0.288 N 
ATOM     25  C   UNK A   1       4.312   2.633   0.332  0.00  0.00    +0.237 C 
ATOM     26  O   UNK A   1       5.122   3.408   0.797  0.00  0.00    -0.274 OA
ATOM     27  C   UNK A   1      -1.702  -1.655   6.718  0.00  0.00    +0.060 C 
ATOM     28  H   UNK A   1       0.752  -0.759   2.342  0.00  0.00    +0.148 HD
ENDROOT
BRANCH  13  29
ATOM     29  C   UNK A   1       2.530   1.833   3.062  0.00  0.00    +0.024 C 
ATOM     30  C   UNK A   1       3.576   1.724   4.173  0.00  0.00    +0.019 C 
ATOM     31  C   UNK A   1       2.870   3.018   2.156  0.00  0.00    +0.019 C 
BRANCH  29  32
ATOM     32  C   UNK A   1       1.168   2.043   3.673  0.00  0.00    -0.024 C 
ATOM     33  C   UNK A   1       0.531   3.172   3.482  0.00  0.00    +0.004 C 
ENDBRANCH  29  32
ENDBRANCH  13  29
BRANCH  14  34
ATOM     34  O   UNK A   1       4.111  -1.432   2.029  0.00  0.00    -0.380 OA
ATOM     35  H   UNK A   1       4.339  -1.480   0.954  0.00  0.00    +0.211 HD
ENDBRANCH  14  34
TORSDOF 3
