REMARK  Name = ZINC18099590
REMARK  4 active torsions:
REMARK  status: ('A' for Active; 'I' for Inactive)
REMARK    1  A    between atoms: C_1  and  N_2
REMARK    2  A    between atoms: C_12  and  N_13
REMARK    3  A    between atoms: C_12  and  S_22
REMARK    4  A    between atoms: N_13  and  C_14
REMARK                            x       y       z     vdW  Elec       q    Type
REMARK                         _______ _______ _______ _____ _____    ______ ____
ROOT
ATOM      1  C   UNL     1       0.455   1.768   0.433  0.00  0.00    +0.157 C 
ATOM      2  N   UNL     1       0.217   0.326   0.523  0.00  0.00    -0.205 N 
ATOM      3  C   UNL     1      -0.210  -0.403  -0.589  0.00  0.00    +0.062 A 
ATOM      4  C   UNL     1      -1.035   0.229  -1.516  0.00  0.00    +0.025 A 
ATOM      5  C   UNL     1      -1.468  -0.449  -2.636  0.00  0.00    +0.002 A 
ATOM      6  C   UNL     1      -1.081  -1.763  -2.846  0.00  0.00    +0.001 A 
ATOM      7  C   UNL     1      -0.272  -2.403  -1.936  0.00  0.00    +0.013 A 
ATOM      8  C   UNL     1       0.171  -1.732  -0.787  0.00  0.00    +0.046 A 
ATOM      9  C   UNL     1       1.006  -2.478   0.174  0.00  0.00    +0.217 C 
ATOM     10  O   UNL     1       1.516  -3.530  -0.174  0.00  0.00    -0.285 OA
ATOM     11  C   UNL     1       1.230  -2.010   1.476  0.00  0.00    +0.183 C 
ATOM     12  C   UNL     1       2.031  -2.707   2.357  0.00  0.00    +0.093 C 
ATOM     13  S   UNL     1       0.456  -0.495   1.951  0.00  0.00    +0.080 S 
ATOM     14  O   UNL     1      -0.829  -0.829   2.458  0.00  0.00    -0.150 OA
ATOM     15  O   UNL     1       1.411   0.243   2.700  0.00  0.00    -0.150 OA
ENDROOT
BRANCH  12  16
ATOM     16  N   UNL     1       2.632  -3.875   1.960  0.00  0.00    -0.308 N 
ATOM     17  H   UNL     1       3.249  -3.873   1.211  0.00  0.00    +0.153 HD
BRANCH  16  18
ATOM     18  C   UNL     1       2.356  -5.069   2.635  0.00  0.00    +0.033 A 
ATOM     19  C   UNL     1       1.340  -5.114   3.581  0.00  0.00    +0.026 A 
ATOM     20  C   UNL     1       1.067  -6.293   4.246  0.00  0.00    +0.041 A 
ATOM     21  C   UNL     1       1.807  -7.431   3.971  0.00  0.00    +0.142 A 
ATOM     22  C   UNL     1       2.821  -7.389   3.028  0.00  0.00    +0.078 A 
ATOM     23  C   UNL     1       3.093  -6.212   2.356  0.00  0.00    +0.046 A 
ATOM     24 CL   UNL     1       3.747  -8.818   2.686  0.00  0.00    -0.081 Cl
ATOM     25  F   UNL     1       1.539  -8.584   4.623  0.00  0.00    -0.204 F 
ENDBRANCH  16  18
ENDBRANCH  12  16
BRANCH  12  26
ATOM     26  S   UNL     1       2.282  -2.099   3.991  0.00  0.00    -0.126 S 
ATOM     27  H   UNL     1       3.191  -2.940   4.516  0.00  0.00    +0.108 HD
ENDBRANCH  12  26
TORSDOF 3
