REMARK  Name = ZINC13449437
REMARK  10 active torsions:
REMARK  status: ('A' for Active; 'I' for Inactive)
REMARK    1  A    between atoms: C_1  and  C_2
REMARK    2  A    between atoms: C_5  and  N_9
REMARK    3  A    between atoms: C_6  and  C_8
REMARK    4  A    between atoms: C_13  and  C_15
REMARK    5  A    between atoms: C_15  and  S_16
REMARK    6  A    between atoms: S_16  and  C_17
REMARK    7  A    between atoms: C_21  and  C_25
REMARK    8  A    between atoms: C_22  and  C_24
REMARK    9  A    between atoms: C_25  and  C_26
REMARK   10  A    between atoms: C_26  and  C_27
REMARK                            x       y       z     vdW  Elec       q    Type
REMARK                         _______ _______ _______ _____ _____    ______ ____
ROOT
ATOM      1  N   UNL     1       0.059  -4.170  -0.021  0.00  0.00    -0.269 N 
ATOM      2  C   UNL     1      -0.040  -4.839  -1.187  0.00  0.00    +0.310 C 
ATOM      3  O   UNL     1      -0.054  -4.229  -2.238  0.00  0.00    -0.252 OA
ATOM      4  N   UNL     1      -0.124  -6.184  -1.187  0.00  0.00    -0.239 N 
ATOM      5  C   UNL     1      -0.223  -6.853  -2.353  0.00  0.00    +0.231 C 
ATOM      6  O   UNL     1      -0.237  -6.244  -3.401  0.00  0.00    -0.274 OA
ATOM      7  H   UNL     1       0.135  -4.658   0.814  0.00  0.00    +0.156 HD
ATOM      8  H   UNL     1      -0.113  -6.671  -0.348  0.00  0.00    +0.159 HD
ENDROOT
BRANCH   1  13
ATOM      9  C   UNL     1       0.025   1.503   0.005  0.00  0.00    +0.044 C 
ATOM     10  C   UNL     1       0.034  -0.004  -0.002  0.00  0.00    -0.050 A 
ATOM     11  C   UNL     1       0.632  -0.685  -1.046  0.00  0.00    +0.005 A 
ATOM     12  C   UNL     1       0.641  -2.066  -1.055  0.00  0.00    +0.024 A 
ATOM     13  C   UNL     1       0.051  -2.771  -0.014  0.00  0.00    +0.038 A 
ATOM     14  C   UNL     1      -0.548  -2.083   1.033  0.00  0.00    -0.029 A 
ATOM     15  C   UNL     1      -0.551  -0.702   1.039  0.00  0.00    +0.008 A 
ATOM     16  C   UNL     1      -1.191  -2.843   2.165  0.00  0.00    +0.045 C 
ENDBRANCH   1  13
BRANCH   5  17
ATOM     17  C   UNL     1      -0.317  -8.357  -2.353  0.00  0.00    +0.173 C 
BRANCH  17  18
ATOM     18  S   UNL     1      -0.438  -8.955  -4.061  0.00  0.00    -0.077 S 
BRANCH  18  19
ATOM     19  C   UNL     1      -0.539 -10.706  -3.894  0.00  0.00    +0.192 A 
ATOM     20  N   UNL     1      -0.518 -11.242  -2.682  0.00  0.00    -0.183 NA
ATOM     21  C   UNL     1      -0.592 -12.557  -2.522  0.00  0.00    +0.277 A 
ATOM     22  O   UNL     1      -0.571 -13.101  -1.281  0.00  0.00    -0.265 OA
ATOM     23  C   UNL     1      -0.692 -13.372  -3.650  0.00  0.00    +0.040 A 
ATOM     24  C   UNL     1      -0.711 -12.774  -4.896  0.00  0.00    +0.049 A 
ATOM     25  N   UNL     1      -0.639 -11.455  -4.983  0.00  0.00    -0.227 NA
ATOM     26  C   UNL     1      -0.818 -13.615  -6.142  0.00  0.00    +0.066 C 
BRANCH  23  27
ATOM     27  C   UNL     1      -0.778 -14.870  -3.512  0.00  0.00    +0.054 C 
BRANCH  27  28
ATOM     28  C   UNL     1      -2.246 -15.289  -3.401  0.00  0.00    +0.130 C 
BRANCH  28  29
ATOM     29  C   UNL     1      -2.332 -16.787  -3.264  0.00  0.00    +0.356 C 
ATOM     30  O   UNL     1      -1.314 -17.458  -3.256  0.00  0.00    -0.246 OA
ATOM     31  O   UNL     1      -3.419 -17.328  -3.161  0.00  0.00    -0.246 OA
ENDBRANCH  28  29
ENDBRANCH  27  28
ENDBRANCH  23  27
ENDBRANCH  18  19
ENDBRANCH  17  18
ENDBRANCH   5  17
TORSDOF 7
