REMARK  Name = ZINC48892027
REMARK  3 active torsions:
REMARK  status: ('A' for Active; 'I' for Inactive)
REMARK    1  A    between atoms: C_1  and  C_2
REMARK    2  A    between atoms: C_4  and  C_8
REMARK    3  A    between atoms: C_13  and  C_23
REMARK                            x       y       z     vdW  Elec       q    Type
REMARK                         _______ _______ _______ _____ _____    ______ ____
ROOT
ATOM      1  C   UNL     1       0.041  -3.356  -1.443  0.00  0.00    +0.266 C 
ATOM      2  O   UNL     1      -0.042  -3.302  -2.656  0.00  0.00    -0.268 OA
ATOM      3  N   UNL     1       0.162  -4.550  -0.829  0.00  0.00    -0.293 N 
ATOM      4  C   UNL     1       0.168  -4.647   0.639  0.00  0.00    +0.109 C 
ATOM      5  C   UNL     1       1.413  -5.418   1.086  0.00  0.00    +0.022 C 
ATOM      6  C   UNL     1       1.474  -6.766   0.360  0.00  0.00    -0.008 C 
ATOM      7  C   UNL     1       1.557  -6.521  -1.146  0.00  0.00    +0.012 C 
ATOM      8  C   UNL     1       0.287  -5.788  -1.606  0.00  0.00    +0.080 C 
ATOM      9  C   UNL     1       0.400  -5.477  -3.098  0.00  0.00    +0.023 C 
ATOM     10  C   UNL     1       0.521  -6.791  -3.874  0.00  0.00    +0.002 C 
ATOM     11  C   UNL     1       1.760  -7.557  -3.408  0.00  0.00    +0.000 C 
ATOM     12  C   UNL     1       1.662  -7.844  -1.903  0.00  0.00    +0.005 C 
ATOM     13  C   UNL     1       0.216  -7.576   0.679  0.00  0.00    +0.008 C 
ENDROOT
BRANCH   1  17
ATOM     14  C   UNL     1       0.745   1.375   0.243  0.00  0.00    +0.068 C 
ATOM     15  C   UNL     1       0.305  -0.059   0.102  0.00  0.00    +0.074 A 
ATOM     16  C   UNL     1       0.632  -0.920  -0.950  0.00  0.00    +0.070 A 
ATOM     17  C   UNL     1       0.009  -2.120  -0.648  0.00  0.00    +0.135 A 
ATOM     18  N   UNL     1      -0.642  -1.923   0.538  0.00  0.00    -0.271 N 
ATOM     19  H   UNL     1      -1.170  -2.591   1.003  0.00  0.00    +0.189 HD
ATOM     20  N   UNL     1      -0.445  -0.722   0.945  0.00  0.00    -0.177 NA
ATOM     21 BR   UNL     1       1.696  -0.530  -2.463  0.00  0.00    -0.046 Br
ENDBRANCH   1  17
TORSDOF 1
