REMARK  Name = ZINC03362127
REMARK  8 active torsions:
REMARK  status: ('A' for Active; 'I' for Inactive)
REMARK    1  A    between atoms: C_3  and  S_25
REMARK    2  A    between atoms: C_6  and  C_7
REMARK    3  A    between atoms: C_7  and  C_8
REMARK    4  A    between atoms: C_8  and  N_9
REMARK    5  A    between atoms: C_10  and  C_12
REMARK    6  A    between atoms: C_12  and  O_13
REMARK    7  A    between atoms: O_13  and  C_14
REMARK    8  A    between atoms: S_25  and  N_28
REMARK                            x       y       z     vdW  Elec       q    Type
REMARK                         _______ _______ _______ _____ _____    ______ ____
ROOT
ATOM      1  N   UNL     1       3.242   6.445   0.005  0.00  0.00    -0.312 N 
ATOM      2  C   UNL     1       2.185   5.609   0.010  0.00  0.00    +0.251 C 
ATOM      3  O   UNL     1       1.058   6.056   0.023  0.00  0.00    -0.272 OA
ATOM      4  H   UNL     1       4.144   6.088  -0.006  0.00  0.00    +0.149 HD
ENDROOT
BRANCH   1   5
ATOM      5  C   UNL     1       3.029   7.895   0.014  0.00  0.00    +0.109 C 
BRANCH   5   6
ATOM      6  C   UNL     1       4.382   8.609   0.005  0.00  0.00    +0.054 C 
BRANCH   6  12
ATOM      7  C   UNL     1       4.056  10.791  -1.178  0.00  0.00    +0.005 A 
ATOM      8  C   UNL     1       3.851  12.158  -1.170  0.00  0.00    +0.029 A 
ATOM      9  C   UNL     1       3.761  12.835   0.032  0.00  0.00    +0.105 A 
ATOM     10  C   UNL     1       3.872  12.145   1.225  0.00  0.00    +0.029 A 
ATOM     11  C   UNL     1       4.073  10.778   1.216  0.00  0.00    +0.005 A 
ATOM     12  C   UNL     1       4.162  10.100   0.014  0.00  0.00    -0.046 A 
BRANCH   9  13
ATOM     13  S   UNL     1       3.503  14.578   0.043  0.00  0.00    +0.056 S 
ATOM     14  O   UNL     1       2.888  14.906  -1.195  0.00  0.00    -0.153 OA
ATOM     15  O   UNL     1       2.909  14.893   1.295  0.00  0.00    -0.153 OA
BRANCH  13  16
ATOM     16  N   UNL     1       4.996  15.294   0.034  0.00  0.00    -0.204 NA
ATOM     17  H   UNL     1       5.797  14.746   0.024  0.00  0.00    +0.144 HD
ATOM     18  H   UNL     1       5.071  16.261   0.038  0.00  0.00    +0.144 HD
ENDBRANCH  13  16
ENDBRANCH   9  13
ENDBRANCH   6  12
ENDBRANCH   5   6
ENDBRANCH   1   5
BRANCH   2  19
ATOM     19  C   UNL     1       2.405   4.118   0.001  0.00  0.00    +0.324 C 
BRANCH  19  20
ATOM     20  O   UNL     1       1.141   3.450   0.009  0.00  0.00    -0.483 OA
BRANCH  20  21
ATOM     21  C   UNL     1       1.161   2.092   0.002  0.00  0.00    +0.122 A 
ATOM     22  C   UNL     1       2.387   1.419  -0.013  0.00  0.00    +0.046 A 
ATOM     23  C   UNL     1       2.439   0.061  -0.021  0.00  0.00    +0.012 A 
ATOM     24  C   UNL     1       1.246  -0.683  -0.013  0.00  0.00    -0.017 A 
ATOM     25  C   UNL     1       1.264  -2.088  -0.022  0.00  0.00    +0.023 A 
ATOM     26  C   UNL     1       0.089  -2.777  -0.015  0.00  0.00    +0.018 A 
ATOM     27  C   UNL     1      -1.135  -2.109   0.001  0.00  0.00    +0.016 A 
ATOM     28  C   UNL     1      -1.190  -0.749   0.009  0.00  0.00    +0.010 A 
ATOM     29  C   UNL     1       0.002  -0.004   0.002  0.00  0.00    -0.014 A 
ATOM     30  C   UNL     1      -0.017   1.400   0.010  0.00  0.00    +0.054 A 
ATOM     31 BR   UNL     1       0.118  -4.668  -0.025  0.00  0.00    -0.050 Br
ENDBRANCH  20  21
ENDBRANCH  19  20
ENDBRANCH   2  19
TORSDOF 8
