REMARK  Name = ZINC32097365
REMARK  3 active torsions:
REMARK  status: ('A' for Active; 'I' for Inactive)
REMARK    1  A    between atoms: C_1  and  C_2
REMARK    2  A    between atoms: C_15  and  O_27
REMARK    3  A    between atoms: C_17  and  C_19
REMARK                            x       y       z     vdW  Elec       q    Type
REMARK                         _______ _______ _______ _____ _____    ______ ____
ROOT
ATOM      1  C   UNL     1      -0.018   1.503   0.010  0.00  0.00    +0.068 C 
ATOM      2  C   UNL     1       0.002  -0.004   0.002  0.00  0.00    +0.066 A 
ATOM      3  C   UNL     1       0.008  -0.806  -1.124  0.00  0.00    +0.027 A 
ATOM      4  C   UNL     1       0.032  -2.129  -0.706  0.00  0.00    +0.165 A 
ATOM      5  N   UNL     1       0.034  -2.119   0.648  0.00  0.00    -0.194 N 
ATOM      6  N   UNL     1       0.023  -0.778   1.064  0.00  0.00    -0.168 NA
ATOM      7  C   UNL     1       0.049  -3.241   1.481  0.00  0.00    +0.178 A 
ATOM      8  C   UNL     1       0.553  -3.144   2.777  0.00  0.00    +0.053 A 
ATOM      9  C   UNL     1       0.546  -4.285   3.564  0.00  0.00    +0.045 A 
ATOM     10  C   UNL     1       0.035  -5.453   3.014  0.00  0.00    +0.152 A 
ATOM     11  N   UNL     1      -0.423  -5.454   1.776  0.00  0.00    -0.136 NA
ATOM     12  N   UNL     1      -0.422  -4.399   1.045  0.00  0.00    -0.128 NA
ATOM     13 CL   UNL     1       0.001  -6.913   3.953  0.00  0.00    -0.060 Cl
ATOM     14  N   UNL     1       0.057  -3.160  -1.598  0.00  0.00    -0.197 NA
ATOM     15  C   UNL     1       0.344  -2.913  -2.841  0.00  0.00    +0.190 C 
ATOM     16  C   UNL     1       0.716  -1.552  -3.354  0.00  0.00    +0.108 C 
ATOM     17  C   UNL     1      -0.011  -0.441  -2.587  0.00  0.00    +0.066 C 
ENDROOT
BRANCH  17  18
ATOM     18  C   UNL     1      -1.436  -0.337  -3.069  0.00  0.00    -0.004 A 
ATOM     19  C   UNL     1      -2.275  -1.432  -2.986  0.00  0.00    +0.010 A 
ATOM     20  C   UNL     1      -3.581  -1.337  -3.427  0.00  0.00    +0.039 A 
ATOM     21  C   UNL     1      -4.051  -0.145  -3.952  0.00  0.00    +0.126 A 
ATOM     22  C   UNL     1      -3.211   0.953  -4.035  0.00  0.00    +0.077 A 
ATOM     23  C   UNL     1      -1.905   0.858  -3.588  0.00  0.00    +0.130 A 
ATOM     24  F   UNL     1      -1.085   1.930  -3.663  0.00  0.00    -0.205 F 
ATOM     25  F   UNL     1      -5.328  -0.052  -4.384  0.00  0.00    -0.205 F 
ENDBRANCH  17  18
BRANCH  15  26
ATOM     26  O   UNL     1       0.306  -3.936  -3.720  0.00  0.00    -0.495 OA
ATOM     27  H   UNL     1       0.060  -4.784  -3.325  0.00  0.00    +0.293 HD
ENDBRANCH  15  26
TORSDOF 2
