REMARK  Name = ZINC39696006
REMARK  8 active torsions:
REMARK  status: ('A' for Active; 'I' for Inactive)
REMARK    1  A    between atoms: C_1  and  C_2
REMARK    2  A    between atoms: C_2  and  C_3
REMARK    3  A    between atoms: C_6  and  C_9
REMARK    4  A    between atoms: C_9  and  C_11
REMARK    5  A    between atoms: C_9  and  N_12
REMARK    6  A    between atoms: C_13  and  C_15
REMARK    7  A    between atoms: C_26  and  C_28
REMARK    8  A    between atoms: C_31  and  C_35
REMARK                            x       y       z     vdW  Elec       q    Type
REMARK                         _______ _______ _______ _____ _____    ______ ____
ROOT
ATOM      1  C   UNL     1      -6.427  -5.519  -2.081  0.00  0.00    +0.100 C 
ATOM      2  C   UNL     1      -6.946  -4.664  -3.259  0.00  0.00    +0.121 C 
ATOM      3  N   UNL     1      -8.029  -5.476  -3.862  0.00  0.00    -0.296 N 
ATOM      4  C   UNL     1      -8.729  -6.078  -2.702  0.00  0.00    +0.115 C 
ATOM      5  C   UNL     1      -7.600  -6.445  -1.718  0.00  0.00    -0.004 C 
ATOM      6  C   UNL     1      -8.049  -6.191  -0.282  0.00  0.00    -0.010 C 
ATOM      7  C   UNL     1      -9.177  -7.163   0.074  0.00  0.00    -0.082 C 
ATOM      8  N   UNL     1      -8.701  -8.544  -0.074  0.00  0.00    +0.379 N 
ATOM      9  C   UNL     1      -8.359  -8.808  -1.477  0.00  0.00    -0.082 C 
ATOM     10  C   UNL     1      -7.196  -7.905  -1.899  0.00  0.00    -0.010 C 
ATOM     11  C   UNL     1      -8.313  -5.632  -5.170  0.00  0.00    +0.249 C 
ATOM     12  O   UNL     1      -9.298  -6.260  -5.508  0.00  0.00    -0.270 OA
ATOM     13  H   UNL     1      -7.883  -8.680   0.502  0.00  0.00    -0.086 HD
ATOM     14  H   UNL     1      -9.425  -9.182   0.220  0.00  0.00    -0.086 HD
ENDROOT
BRANCH  11  15
ATOM     15  C   UNL     1      -7.429  -5.039  -6.194  0.00  0.00    +0.072 A 
ATOM     16  C   UNL     1      -6.800  -3.815  -5.955  0.00  0.00    +0.016 A 
ATOM     17  C   UNL     1      -5.976  -3.268  -6.915  0.00  0.00    +0.013 A 
ATOM     18  C   UNL     1      -5.768  -3.928  -8.114  0.00  0.00    +0.058 A 
ATOM     19  C   UNL     1      -6.386  -5.140  -8.360  0.00  0.00    +0.051 A 
ATOM     20  C   UNL     1      -7.211  -5.704  -7.405  0.00  0.00    +0.136 A 
ATOM     21  F   UNL     1      -7.811  -6.892  -7.643  0.00  0.00    -0.205 F 
BRANCH  18  22
ATOM     22  C   UNL     1      -4.865  -3.322  -9.157  0.00  0.00    +0.418 C 
ATOM     23  F   UNL     1      -3.554  -3.766  -8.954  0.00  0.00    -0.166 F 
ATOM     24  F   UNL     1      -5.297  -3.709 -10.430  0.00  0.00    -0.166 F 
ATOM     25  F   UNL     1      -4.906  -1.927  -9.056  0.00  0.00    -0.166 F 
ENDBRANCH  18  22
ENDBRANCH  11  15
BRANCH   1  27
ATOM     26  N   UNL     1      -5.109  -5.022  -0.047  0.00  0.00    -0.308 N 
ATOM     27  C   UNL     1      -6.071  -4.639  -0.910  0.00  0.00    +0.219 C 
ATOM     28  O   UNL     1      -6.650  -3.587  -0.745  0.00  0.00    -0.275 OA
ATOM     29  H   UNL     1      -4.646  -5.864  -0.180  0.00  0.00    +0.149 HD
BRANCH  26  30
ATOM     30  C   UNL     1      -4.763  -4.167   1.091  0.00  0.00    +0.100 C 
ATOM     31  C   UNL     1      -3.743  -3.117   0.648  0.00  0.00    +0.033 C 
BRANCH  30  35
ATOM     32  C   UNL     1      -3.088  -6.558   4.209  0.00  0.00    -0.048 A 
ATOM     33  C   UNL     1      -3.958  -5.530   4.518  0.00  0.00    +0.004 A 
ATOM     34  C   UNL     1      -4.500  -4.756   3.509  0.00  0.00    +0.006 A 
ATOM     35  C   UNL     1      -4.172  -5.010   2.191  0.00  0.00    -0.027 A 
ATOM     36  C   UNL     1      -3.300  -6.038   1.882  0.00  0.00    +0.006 A 
ATOM     37  C   UNL     1      -2.755  -6.809   2.891  0.00  0.00    +0.004 A 
BRANCH  32  39
ATOM     38  C   UNL     1      -1.187  -6.772   5.787  0.00  0.00    +0.009 C 
ATOM     39  C   UNL     1      -2.497  -7.402   5.309  0.00  0.00    +0.032 C 
ENDBRANCH  32  39
ENDBRANCH  30  35
ENDBRANCH  26  30
ENDBRANCH   1  27
TORSDOF 6
