REMARK  Name = ZINC40013849
REMARK  4 active torsions:
REMARK  status: ('A' for Active; 'I' for Inactive)
REMARK    1  A    between atoms: C_1  and  C_2
REMARK    2  A    between atoms: C_2  and  C_3
REMARK    3  A    between atoms: C_2  and  C_4
REMARK    4  A    between atoms: C_10  and  C_26
REMARK                            x       y       z     vdW  Elec       q    Type
REMARK                         _______ _______ _______ _____ _____    ______ ____
ROOT
ATOM      1  C   UNL     1       0.731  -0.503   1.223  0.00  0.00    +0.106 A 
ATOM      2  N   UNL     1       1.972  -0.290   1.615  0.00  0.00    -0.144 NA
ATOM      3  N   UNL     1       2.435  -0.787   2.678  0.00  0.00    -0.125 NA
ATOM      4  C   UNL     1       1.699  -1.558   3.468  0.00  0.00    +0.191 A 
ATOM      5  S   UNL     1       0.157  -1.549   2.558  0.00  0.00    -0.035 S 
ATOM      6  N   UNL     1       2.029  -2.187   4.661  0.00  0.00    -0.230 N 
ATOM      7  C   UNL     1       3.334  -2.124   5.341  0.00  0.00    +0.152 C 
ATOM      8  C   UNL     1       3.192  -2.958   6.571  0.00  0.00    +0.072 A 
ATOM      9  C   UNL     1       4.149  -3.282   7.634  0.00  0.00    +0.199 A 
ATOM     10  O   UNL     1       5.232  -2.735   7.746  0.00  0.00    -0.287 OA
ATOM     11  C   UNL     1       3.672  -4.339   8.561  0.00  0.00    +0.067 A 
ATOM     12  C   UNL     1       4.540  -4.897   9.500  0.00  0.00    +0.053 A 
ATOM     13  C   UNL     1       4.082  -5.882  10.349  0.00  0.00    +0.124 A 
ATOM     14  C   UNL     1       2.763  -6.314  10.267  0.00  0.00    +0.042 A 
ATOM     15  C   UNL     1       1.899  -5.768   9.345  0.00  0.00    +0.050 A 
ATOM     16  C   UNL     1       2.338  -4.768   8.477  0.00  0.00    +0.140 A 
ATOM     17  O   UNL     1       1.464  -4.242   7.588  0.00  0.00    -0.450 OA
ATOM     18  C   UNL     1       1.918  -3.451   6.596  0.00  0.00    +0.199 A 
ATOM     19  C   UNL     1       1.209  -2.959   5.403  0.00  0.00    +0.289 C 
ATOM     20  O   UNL     1       0.054  -3.213   5.126  0.00  0.00    -0.266 OA
ATOM     21  F   UNL     1       4.915  -6.428  11.262  0.00  0.00    -0.205 F 
ENDROOT
BRANCH   7  22
ATOM     22  C   UNL     1       3.658  -0.699   5.711  0.00  0.00    -0.021 A 
ATOM     23  C   UNL     1       2.659   0.140   6.168  0.00  0.00    +0.007 A 
ATOM     24  C   UNL     1       2.956   1.447   6.508  0.00  0.00    +0.022 A 
ATOM     25  C   UNL     1       4.252   1.915   6.390  0.00  0.00    +0.059 A 
ATOM     26  C   UNL     1       5.252   1.074   5.932  0.00  0.00    +0.060 A 
ATOM     27  C   UNL     1       4.955  -0.235   5.598  0.00  0.00    +0.027 A 
ATOM     28 CL   UNL     1       6.880   1.661   5.784  0.00  0.00    -0.082 Cl
ATOM     29 CL   UNL     1       4.625   3.557   6.816  0.00  0.00    -0.082 Cl
ENDBRANCH   7  22
BRANCH   1  31
ATOM     30  C   UNL     1      -0.019   1.526   0.010  0.00  0.00    +0.014 C 
ATOM     31  C   UNL     1       0.002  -0.004   0.002  0.00  0.00    +0.040 C 
ATOM     32  C   UNL     1       0.718  -0.497  -1.257  0.00  0.00    +0.014 C 
ENDBRANCH   1  31
TORSDOF 2
