REMARK  Name = ZINC00752476
REMARK  5 active torsions:
REMARK  status: ('A' for Active; 'I' for Inactive)
REMARK    1  A    between atoms: C_1  and  O_2
REMARK    2  A    between atoms: O_2  and  C_3
REMARK    3  A    between atoms: C_6  and  C_10
REMARK    4  A    between atoms: C_24  and  N_28
REMARK    5  A    between atoms: C_25  and  C_26
REMARK                            x       y       z     vdW  Elec       q    Type
REMARK                         _______ _______ _______ _____ _____    ______ ____
ROOT
ATOM      1  C   UNL     1      -0.013   1.086   0.008  0.00  0.00    +0.105 C 
ATOM      2  C   UNL     1       1.400   1.604  -0.003  0.00  0.00    +0.092 A 
ATOM      3  C   UNL     1       1.750   2.649  -0.804  0.00  0.00    +0.152 A 
ATOM      4  C   UNL     1       3.147   3.113  -0.773  0.00  0.00    +0.060 A 
ATOM      5  C   UNL     1       3.571   4.177  -1.571  0.00  0.00    +0.015 A 
ATOM      6  C   UNL     1       4.886   4.585  -1.517  0.00  0.00    +0.001 A 
ATOM      7  C   UNL     1       5.784   3.945  -0.676  0.00  0.00    +0.004 A 
ATOM      8  C   UNL     1       5.378   2.893   0.117  0.00  0.00    +0.047 A 
ATOM      9  C   UNL     1       4.057   2.465   0.078  0.00  0.00    +0.143 A 
ATOM     10  O   UNL     1       3.641   1.435   0.846  0.00  0.00    -0.422 OA
ATOM     11  C   UNL     1       2.369   1.006   0.822  0.00  0.00    +0.345 A 
ATOM     12  O   UNL     1       2.046   0.071   1.534  0.00  0.00    -0.245 OA
ATOM     13  O   UNL     1       0.854   3.252  -1.609  0.00  0.00    -0.440 OA
ATOM     14  C   UNL     1      -0.289   2.621  -1.932  0.00  0.00    +0.199 C 
ATOM     15  C   UNL     1      -0.756   1.581  -1.201  0.00  0.00    +0.098 C 
ENDROOT
BRANCH   1  19
ATOM     16  C   UNL     1      -1.996   2.455   3.538  0.00  0.00    +0.134 A 
ATOM     17  C   UNL     1      -1.852   1.095   3.305  0.00  0.00    +0.047 A 
ATOM     18  C   UNL     1      -1.210   0.655   2.163  0.00  0.00    +0.008 A 
ATOM     19  C   UNL     1      -0.712   1.569   1.252  0.00  0.00    -0.033 A 
ATOM     20  C   UNL     1      -0.849   2.925   1.485  0.00  0.00    +0.023 A 
ATOM     21  C   UNL     1      -1.495   3.370   2.623  0.00  0.00    +0.060 A 
ATOM     22 BR   UNL     1      -1.688   5.225   2.937  0.00  0.00    -0.047 Br
BRANCH  16  24
ATOM     23  C   UNL     1      -3.117   1.891   5.558  0.00  0.00    +0.277 C 
ATOM     24  O   UNL     1      -2.627   2.890   4.661  0.00  0.00    -0.494 OA
ENDBRANCH  16  24
ENDBRANCH   1  19
BRANCH  14  25
ATOM     25  N   UNL     1      -0.999   3.042  -3.029  0.00  0.00    -0.328 N 
ATOM     26  H   UNL     1      -0.674   3.785  -3.561  0.00  0.00    +0.145 HD
ATOM     27  H   UNL     1      -1.825   2.595  -3.273  0.00  0.00    +0.145 HD
ENDBRANCH  14  25
BRANCH  15  28
ATOM     28  C   UNL     1      -1.978   0.941  -1.587  0.00  0.00    +0.101 C 
ATOM     29  N   UNL     1      -2.947   0.434  -1.893  0.00  0.00    -0.191 NA
ENDBRANCH  15  28
TORSDOF 4
