REMARK  Name = ZINC45631612
REMARK  8 active torsions:
REMARK  status: ('A' for Active; 'I' for Inactive)
REMARK    1  A    between atoms: C_3  and  O_20
REMARK    2  A    between atoms: C_6  and  C_7
REMARK    3  A    between atoms: C_7  and  C_8
REMARK    4  A    between atoms: C_8  and  N_9
REMARK    5  A    between atoms: N_12  and  C_13
REMARK    6  A    between atoms: C_13  and  C_14
REMARK    7  A    between atoms: C_13  and  C_17
REMARK    8  A    between atoms: O_20  and  C_21
REMARK                            x       y       z     vdW  Elec       q    Type
REMARK                         _______ _______ _______ _____ _____    ______ ____
ROOT
ATOM      1  N   UNL     1      -3.667  -0.181  -2.635  0.00  0.00    -0.299 N 
ATOM      2  C   UNL     1      -4.053  -1.185  -3.447  0.00  0.00    +0.301 C 
ATOM      3  O   UNL     1      -3.612  -1.255  -4.578  0.00  0.00    -0.253 OA
ATOM      4  N   UNL     1      -4.926  -2.111  -3.006  0.00  0.00    -0.281 N 
ATOM      5  H   UNL     1      -4.019  -0.125  -1.732  0.00  0.00    +0.150 HD
ATOM      6  H   UNL     1      -5.278  -2.056  -2.103  0.00  0.00    +0.151 HD
ENDROOT
BRANCH   1   7
ATOM      7  C   UNL     1      -2.718   0.826  -3.114  0.00  0.00    +0.110 C 
BRANCH   7   8
ATOM      8  C   UNL     1      -2.451   1.845  -2.005  0.00  0.00    +0.054 C 
BRANCH   8  14
ATOM      9  C   UNL     1      -1.937   4.026  -3.120  0.00  0.00    +0.007 A 
ATOM     10  C   UNL     1      -1.044   4.977  -3.573  0.00  0.00    +0.046 A 
ATOM     11  C   UNL     1       0.319   4.783  -3.403  0.00  0.00    +0.127 A 
ATOM     12  C   UNL     1       0.782   3.634  -2.779  0.00  0.00    +0.046 A 
ATOM     13  C   UNL     1      -0.116   2.686  -2.328  0.00  0.00    +0.007 A 
ATOM     14  C   UNL     1      -1.474   2.881  -2.498  0.00  0.00    -0.046 A 
BRANCH  11  15
ATOM     15  O   UNL     1       1.200   5.717  -3.848  0.00  0.00    -0.434 OA
BRANCH  15  16
ATOM     16  C   UNL     1       2.588   5.452  -3.639  0.00  0.00    +0.541 C 
ATOM     17  F   UNL     1       2.838   5.323  -2.268  0.00  0.00    -0.166 F 
ATOM     18  F   UNL     1       2.939   4.264  -4.290  0.00  0.00    -0.166 F 
ENDBRANCH  15  16
ENDBRANCH  11  15
ENDBRANCH   8  14
ENDBRANCH   7   8
ENDBRANCH   1   7
BRANCH   4  19
ATOM     19  C   UNL     1      -5.345  -3.203  -3.889  0.00  0.00    +0.246 C 
BRANCH  19  20
ATOM     20  C   UNL     1      -4.341  -4.324  -3.814  0.00  0.00    +0.240 C 
ATOM     21  O   UNL     1      -3.663  -4.465  -2.818  0.00  0.00    -0.273 OA
ATOM     22  N   UNL     1      -4.195  -5.169  -4.854  0.00  0.00    -0.327 N 
ATOM     23  H   UNL     1      -4.684  -5.014  -5.677  0.00  0.00    +0.145 HD
ATOM     24  H   UNL     1      -3.602  -5.933  -4.778  0.00  0.00    +0.145 HD
ENDBRANCH  19  20
BRANCH  19  25
ATOM     25  C   UNL     1      -6.697  -3.709  -3.455  0.00  0.00    +0.240 C 
ATOM     26  O   UNL     1      -7.064  -3.552  -2.311  0.00  0.00    -0.273 OA
ATOM     27  N   UNL     1      -7.496  -4.338  -4.340  0.00  0.00    -0.327 N 
ATOM     28  H   UNL     1      -7.234  -4.402  -5.271  0.00  0.00    +0.145 HD
ATOM     29  H   UNL     1      -8.335  -4.726  -4.045  0.00  0.00    +0.145 HD
ENDBRANCH  19  25
ENDBRANCH   4  19
TORSDOF 8
