REMARK  Name = ZINC44318257
REMARK  4 active torsions:
REMARK  status: ('A' for Active; 'I' for Inactive)
REMARK    1  A    between atoms: C_1  and  C_2
REMARK    2  A    between atoms: C_6  and  C_17
REMARK    3  A    between atoms: C_7  and  N_8
REMARK    4  A    between atoms: C_9  and  C_11
REMARK                            x       y       z     vdW  Elec       q    Type
REMARK                         _______ _______ _______ _____ _____    ______ ____
ROOT
ATOM      1  N   UNL     1       0.046   0.060   2.385  0.00  0.00    -0.279 N 
ATOM      2  C   UNL     1       0.488  -0.524   3.517  0.00  0.00    +0.284 C 
ATOM      3  O   UNL     1       0.961  -1.646   3.478  0.00  0.00    -0.266 OA
ATOM      4  H   UNL     1      -0.268   0.977   2.404  0.00  0.00    +0.155 HD
ENDROOT
BRANCH   1  11
ATOM      5  C   UNL     1       2.029   0.678   0.441  0.00  0.00    +0.046 C 
ATOM      6  C   UNL     1       0.989  -0.388   0.208  0.00  0.00    -0.028 A 
ATOM      7  C   UNL     1       0.984  -1.101  -0.974  0.00  0.00    +0.020 A 
ATOM      8  C   UNL     1       0.029  -2.080  -1.189  0.00  0.00    +0.018 A 
ATOM      9  C   UNL     1      -0.922  -2.346  -0.220  0.00  0.00    +0.020 A 
ATOM     10  C   UNL     1      -0.921  -1.636   0.964  0.00  0.00    -0.028 A 
ATOM     11  C   UNL     1       0.039  -0.657   1.185  0.00  0.00    +0.040 A 
ATOM     12  C   UNL     1      -1.958  -1.927   2.019  0.00  0.00    +0.046 C 
ATOM     13 BR   UNL     1       0.025  -3.054  -2.810  0.00  0.00    -0.050 Br
ENDBRANCH   1  11
BRANCH   2  14
ATOM     14  C   UNL     1       0.402   0.191   4.793  0.00  0.00    +0.191 A 
ATOM     15  C   UNL     1       0.817  -0.280   6.006  0.00  0.00    +0.056 A 
ATOM     16  C   UNL     1       0.545   0.727   6.944  0.00  0.00    +0.058 A 
ATOM     17  C   UNL     1      -0.017   1.757   6.271  0.00  0.00    +0.171 A 
ATOM     18  O   UNL     1      -0.096   1.432   4.974  0.00  0.00    -0.444 OA
ATOM     19 BR   UNL     1      -0.590   3.390   7.034  0.00  0.00    -0.008 Br
ENDBRANCH   2  14
TORSDOF 2
