REMARK  Name = ZINC30780172
REMARK  3 active torsions:
REMARK  status: ('A' for Active; 'I' for Inactive)
REMARK    1  A    between atoms: C_1  and  O_2
REMARK    2  A    between atoms: O_2  and  C_3
REMARK    3  A    between atoms: C_17  and  C_20
REMARK                            x       y       z     vdW  Elec       q    Type
REMARK                         _______ _______ _______ _____ _____    ______ ____
ROOT
ATOM      1  C   UNL     1       1.214  -0.679  -0.013  0.00  0.00    +0.121 A 
ATOM      2  C   UNL     1       0.002  -0.004   0.002  0.00  0.00    +0.047 A 
ATOM      3  C   UNL     1      -0.017   1.376   0.010  0.00  0.00    +0.027 A 
ATOM      4  C   UNL     1       1.175   2.091   0.002  0.00  0.00    +0.034 A 
ATOM      5  C   UNL     1       2.388   1.415  -0.005  0.00  0.00    +0.006 A 
ATOM      6  C   UNL     1       2.403   0.032  -0.015  0.00  0.00    +0.053 A 
ATOM      7  C   UNL     1       3.685   2.170   0.004  0.00  0.00    +0.155 C 
ATOM      8  C   UNL     1       3.482   3.576  -0.564  0.00  0.00    +0.047 C 
ATOM      9  C   UNL     1       4.795   4.348  -0.440  0.00  0.00    +0.011 C 
ATOM     10  C   UNL     1       5.881   3.576  -1.200  0.00  0.00    +0.028 C 
ATOM     11  C   UNL     1       5.975   2.148  -0.661  0.00  0.00    +0.160 C 
ATOM     12  O   UNL     1       4.698   1.505  -0.745  0.00  0.00    -0.372 OA
ATOM     13  C   UNL     1       2.362   4.262   0.220  0.00  0.00    +0.106 C 
ATOM     14  N   UNL     1       1.129   3.493  -0.009  0.00  0.00    -0.336 N 
ATOM     15  H   UNL     1       0.178   4.017  -0.186  0.00  0.00    +0.147 HD
ENDROOT
BRANCH  13  16
ATOM     16  C   UNL     1       2.696   4.269   1.690  0.00  0.00    -0.027 A 
ATOM     17  C   UNL     1       2.477   3.138   2.454  0.00  0.00    +0.006 A 
ATOM     18  C   UNL     1       2.787   3.143   3.801  0.00  0.00    +0.015 A 
ATOM     19  C   UNL     1       3.307   4.284   4.386  0.00  0.00    +0.018 A 
ATOM     20  C   UNL     1       3.521   5.417   3.622  0.00  0.00    +0.015 A 
ATOM     21  C   UNL     1       3.215   5.409   2.274  0.00  0.00    +0.006 A 
ATOM     22 BR   UNL     1       3.726   4.293   6.230  0.00  0.00    -0.050 Br
ENDBRANCH  13  16
BRANCH   1  24
ATOM     23  C   UNL     1      -0.029  -2.707  -0.022  0.00  0.00    +0.277 C 
ATOM     24  O   UNL     1       1.234  -2.039  -0.025  0.00  0.00    -0.495 OA
ENDBRANCH   1  24
TORSDOF 2
