REMARK  Name = ZINC07624358
REMARK  9 active torsions:
REMARK  status: ('A' for Active; 'I' for Inactive)
REMARK    1  A    between atoms: C_1  and  N_52
REMARK    2  A    between atoms: C_2  and  C_3
REMARK    3  A    between atoms: C_2  and  N_52
REMARK    4  A    between atoms: N_5  and  C_6
REMARK    5  A    between atoms: C_10  and  S_12
REMARK    6  A    between atoms: S_12  and  N_15
REMARK    7  A    between atoms: C_16  and  C_17
REMARK    8  A    between atoms: C_16  and  C_23
REMARK    9  A    between atoms: C_16  and  N_52
REMARK                            x       y       z     vdW  Elec       q    Type
REMARK                         _______ _______ _______ _____ _____    ______ ____
ROOT
ATOM      1  C   UNL     1      -1.028   7.458  -0.839  0.00  0.00    +0.020 C 
ENDROOT
BRANCH   1   2
ATOM      2  C   UNL     1      -2.002   7.949  -1.879  0.00  0.00    +0.201 C 
ATOM      3  O   UNL     1      -2.908   7.231  -2.247  0.00  0.00    -0.278 OA
ATOM      4  N   UNL     1      -1.867   9.184  -2.399  0.00  0.00    -0.287 N 
ATOM      5  H   UNL     1      -1.105   9.733  -2.154  0.00  0.00    +0.155 HD
BRANCH   4   6
ATOM      6  C   UNL     1      -2.825   9.676  -3.292  0.00  0.00    +0.035 A 
ATOM      7  C   UNL     1      -3.434   8.820  -4.200  0.00  0.00    +0.023 A 
ATOM      8  C   UNL     1      -4.383   9.307  -5.077  0.00  0.00    +0.004 A 
ATOM      9  C   UNL     1      -4.719  10.648  -5.059  0.00  0.00    +0.028 A 
ATOM     10  C   UNL     1      -4.111  11.505  -4.160  0.00  0.00    +0.107 A 
ATOM     11  C   UNL     1      -3.165  11.022  -3.277  0.00  0.00    +0.051 A 
BRANCH  10  12
ATOM     12  S   UNL     1      -4.543  13.213  -4.141  0.00  0.00    +0.056 S 
ATOM     13  O   UNL     1      -5.848  13.308  -4.696  0.00  0.00    -0.153 OA
ATOM     14  O   UNL     1      -4.230  13.696  -2.842  0.00  0.00    -0.153 OA
BRANCH  12  15
ATOM     15  N   UNL     1      -3.524  13.987  -5.192  0.00  0.00    -0.204 NA
ATOM     16  H   UNL     1      -2.850  13.483  -5.675  0.00  0.00    +0.144 HD
ATOM     17  H   UNL     1      -3.601  14.945  -5.326  0.00  0.00    +0.144 HD
ENDBRANCH  12  15
ENDBRANCH  10  12
ENDBRANCH   4   6
ENDBRANCH   1   2
BRANCH   1  19
ATOM     18  C   UNL     1      -2.682   6.074   0.261  0.00  0.00    -0.094 C 
ATOM     19  N   UNL     1      -1.391   6.076  -0.460  0.00  0.00    +0.391 N 
ATOM     20  H   UNL     1      -1.483   5.510  -1.311  0.00  0.00    -0.080 HD
BRANCH  19  21
ATOM     21  C   UNL     1      -0.335   5.493   0.394  0.00  0.00    -0.007 C 
BRANCH  21  22
ATOM     22  C   UNL     1       0.958   5.461  -0.381  0.00  0.00    -0.057 A 
ATOM     23  C   UNL     1       2.135   5.865   0.221  0.00  0.00    +0.002 A 
ATOM     24  C   UNL     1       3.320   5.835  -0.489  0.00  0.00    +0.000 A 
ATOM     25  C   UNL     1       3.328   5.402  -1.802  0.00  0.00    +0.000 A 
ATOM     26  C   UNL     1       2.150   5.003  -2.406  0.00  0.00    +0.000 A 
ATOM     27  C   UNL     1       0.966   5.028  -1.694  0.00  0.00    +0.002 A 
ENDBRANCH  21  22
BRANCH  21  28
ATOM     28  C   UNL     1      -0.730   4.088   0.770  0.00  0.00    -0.057 A 
ATOM     29  C   UNL     1      -1.266   3.242  -0.183  0.00  0.00    +0.002 A 
ATOM     30  C   UNL     1      -1.624   1.952   0.161  0.00  0.00    +0.000 A 
ATOM     31  C   UNL     1      -1.455   1.511   1.460  0.00  0.00    +0.000 A 
ATOM     32  C   UNL     1      -0.924   2.358   2.414  0.00  0.00    +0.000 A 
ATOM     33  C   UNL     1      -0.561   3.647   2.069  0.00  0.00    +0.002 A 
ENDBRANCH  21  28
ENDBRANCH  19  21
ENDBRANCH   1  19
TORSDOF 8
