REMARK  Name = ZINC08385325
REMARK  12 active torsions:
REMARK  status: ('A' for Active; 'I' for Inactive)
REMARK    1  A    between atoms: C_1  and  C_2
REMARK    2  A    between atoms: C_2  and  C_4
REMARK    3  A    between atoms: C_2  and  C_12
REMARK    4  A    between atoms: C_4  and  C_5
REMARK    5  A    between atoms: C_5  and  C_6
REMARK    6  A    between atoms: N_8  and  C_9
REMARK    7  A    between atoms: C_9  and  C_10
REMARK    8  A    between atoms: C_18  and  C_39
REMARK    9  A    between atoms: C_19  and  O_38
REMARK   10  A    between atoms: C_24  and  O_37
REMARK   11  A    between atoms: C_29  and  C_36
REMARK   12  A    between atoms: C_32  and  O_35
REMARK                            x       y       z     vdW  Elec       q    Type
REMARK                         _______ _______ _______ _____ _____    ______ ____
ROOT
ATOM      1  C   UNL     1      -3.625   4.666  -6.076  0.00  0.00    +0.001 C 
ATOM      2  C   UNL     1      -3.974   3.317  -6.756  0.00  0.00    +0.005 C 
ATOM      3  C   UNL     1      -3.623   2.204  -5.731  0.00  0.00    +0.007 C 
ATOM      4  C   UNL     1      -3.465   2.987  -4.421  0.00  0.00    +0.030 C 
ATOM      5  C   UNL     1      -2.725   4.253  -4.888  0.00  0.00    +0.002 C 
ATOM      6  C   UNL     1      -2.633   5.274  -3.785  0.00  0.00    +0.121 C 
ATOM      7  C   UNL     1      -2.373   4.609  -2.426  0.00  0.00    +0.038 C 
ATOM      8  C   UNL     1      -1.800   3.208  -2.583  0.00  0.00    +0.030 C 
ATOM      9  C   UNL     1      -2.807   2.287  -3.264  0.00  0.00    +0.073 C 
ATOM     10  C   UNL     1      -2.160   0.964  -3.653  0.00  0.00    +0.035 C 
ATOM     11  C   UNL     1      -1.155   0.516  -2.583  0.00  0.00    +0.007 C 
ATOM     12  C   UNL     1      -1.554   1.118  -1.248  0.00  0.00    -0.002 C 
ATOM     13  C   UNL     1      -1.326   2.630  -1.256  0.00  0.00    -0.024 C 
ATOM     14  C   UNL     1      -2.022   3.224  -0.039  0.00  0.00    +0.010 C 
ATOM     15  C   UNL     1      -1.424   2.613   1.233  0.00  0.00    +0.032 C 
ATOM     16  C   UNL     1      -1.483   1.091   1.227  0.00  0.00    +0.115 C 
ATOM     17  C   UNL     1      -0.863   0.496  -0.043  0.00  0.00    +0.035 C 
ATOM     18  C   UNL     1       0.178   2.929  -1.159  0.00  0.00    +0.012 C 
ATOM     19  C   UNL     1      -1.346   3.952  -5.482  0.00  0.00    +0.014 C 
ENDROOT
BRANCH   1  21
ATOM     20  C   UNL     1      -3.680   5.838  -8.280  0.00  0.00    +0.008 C 
ATOM     21  C   UNL     1      -2.837   5.558  -7.034  0.00  0.00    -0.010 C 
BRANCH  21  22
ATOM     22  C   UNL     1      -2.501   6.879  -6.339  0.00  0.00    +0.013 C 
BRANCH  22  23
ATOM     23  C   UNL     1      -1.666   7.751  -7.279  0.00  0.00    +0.096 C 
BRANCH  23  24
ATOM     24  C   UNL     1      -1.334   9.053  -6.594  0.00  0.00    +0.213 C 
ATOM     25  O   UNL     1      -1.727   9.262  -5.466  0.00  0.00    -0.276 OA
ATOM     26  N   UNL     1      -0.601   9.983  -7.236  0.00  0.00    -0.305 N 
ATOM     27  H   UNL     1      -0.286   9.816  -8.138  0.00  0.00    +0.149 HD
BRANCH  26  28
ATOM     28  C   UNL     1      -0.279  11.248  -6.571  0.00  0.00    +0.229 C 
BRANCH  28  29
ATOM     29  C   UNL     1       0.544  12.107  -7.497  0.00  0.00    +0.373 C 
ATOM     30  O   UNL     1       0.832  11.704  -8.599  0.00  0.00    -0.245 OA
ATOM     31  O   UNL     1       0.957  13.320  -7.097  0.00  0.00    -0.245 OA
ENDBRANCH  28  29
ENDBRANCH  26  28
ENDBRANCH  23  24
ENDBRANCH  22  23
ENDBRANCH  21  22
ENDBRANCH   1  21
BRANCH  16  32
ATOM     32  O   UNL     1      -2.843   0.664   1.334  0.00  0.00    -0.392 OA
ATOM     33  H   UNL     1      -3.301   1.003   2.116  0.00  0.00    +0.210 HD
ENDBRANCH  16  32
BRANCH   9  34
ATOM     34  O   UNL     1      -3.867   2.007  -2.325  0.00  0.00    -0.388 OA
ATOM     35  H   UNL     1      -4.594   1.488  -2.695  0.00  0.00    +0.210 HD
ENDBRANCH   9  34
BRANCH   6  36
ATOM     36  O   UNL     1      -3.847   6.036  -3.711  0.00  0.00    -0.391 OA
ATOM     37  H   UNL     1      -3.832   6.737  -3.045  0.00  0.00    +0.210 HD
ENDBRANCH   6  36
TORSDOF 9
