REMARK  Name = ZINC06195761
REMARK  15 active torsions:
REMARK  status: ('A' for Active; 'I' for Inactive)
REMARK    1  A    between atoms: C_1  and  C_2
REMARK    2  A    between atoms: C_2  and  O_3
REMARK    3  A    between atoms: O_3  and  C_4
REMARK    4  A    between atoms: C_6  and  C_12
REMARK    5  A    between atoms: C_9  and  O_10
REMARK    6  A    between atoms: C_17  and  C_22
REMARK    7  A    between atoms: C_25  and  O_30
REMARK    8  A    between atoms: C_26  and  O_28
REMARK    9  A    between atoms: O_28  and  C_29
REMARK   10  A    between atoms: O_30  and  C_31
REMARK   11  A    between atoms: C_33  and  C_40
REMARK   12  A    between atoms: C_34  and  C_35
REMARK   13  A    between atoms: C_35  and  O_37
REMARK   14  A    between atoms: O_37  and  C_38
REMARK   15  A    between atoms: C_38  and  C_39
REMARK                            x       y       z     vdW  Elec       q    Type
REMARK                         _______ _______ _______ _____ _____    ______ ____
ROOT
ATOM      1  C   UNL     1      -0.029   3.662   0.824  0.00  0.00    +0.074 C 
ATOM      2  C   UNL     1      -1.273   2.923   0.397  0.00  0.00    +0.112 C 
ATOM      3  C   UNL     1      -1.210   1.628   0.016  0.00  0.00    +0.031 C 
ATOM      4  C   UNL     1      -2.449   0.882  -0.408  0.00  0.00    +0.060 C 
ATOM      5  C   UNL     1      -3.448   1.845  -1.033  0.00  0.00    +0.032 C 
ATOM      6  C   UNL     1      -3.774   2.950  -0.022  0.00  0.00    +0.083 C 
ATOM      7  C   UNL     1      -2.494   3.619   0.401  0.00  0.00    +0.143 C 
ATOM      8  O   UNL     1      -2.517   4.781   0.753  0.00  0.00    -0.297 OA
ATOM      9  N   UNL     1      -0.011   0.966   0.007  0.00  0.00    -0.260 NA
ATOM     10  C   UNL     1       1.167   1.659  -0.000  0.00  0.00    +0.049 C 
ATOM     11  C   UNL     1       1.207   2.948   0.361  0.00  0.00    +0.066 C 
ATOM     12  C   UNL     1       2.433   0.978  -0.453  0.00  0.00    +0.066 C 
ENDROOT
BRANCH   1  15
ATOM     13  C   UNL     1      -0.003   5.105   4.316  0.00  0.00    +0.163 A 
ATOM     14  C   UNL     1      -0.024   5.008   2.934  0.00  0.00    +0.053 A 
ATOM     15  C   UNL     1      -0.007   3.765   2.327  0.00  0.00    -0.034 A 
ATOM     16  C   UNL     1       0.025   2.617   3.097  0.00  0.00    +0.023 A 
ATOM     17  C   UNL     1       0.052   2.707   4.477  0.00  0.00    +0.063 A 
ATOM     18  C   UNL     1       0.035   3.950   5.091  0.00  0.00    +0.173 A 
ATOM     19 BR   UNL     1       0.104   1.135   5.526  0.00  0.00    -0.046 Br
BRANCH  18  20
ATOM     20  O   UNL     1       0.056   4.041   6.448  0.00  0.00    -0.503 OA
ATOM     21  H   UNL     1      -0.821   4.048   6.855  0.00  0.00    +0.292 HD
ENDBRANCH  18  20
BRANCH  13  22
ATOM     22  O   UNL     1      -0.020   6.326   4.913  0.00  0.00    -0.489 OA
BRANCH  22  24
ATOM     23  C   UNL     1      -0.072   8.742   4.901  0.00  0.00    +0.048 C 
ATOM     24  C   UNL     1      -0.058   7.468   4.055  0.00  0.00    +0.226 C 
ENDBRANCH  22  24
ENDBRANCH  13  22
ENDBRANCH   1  15
BRANCH   5  25
ATOM     25  C   UNL     1      -4.709   1.105  -1.398  0.00  0.00    -0.040 A 
ATOM     26  C   UNL     1      -5.436   0.456  -0.417  0.00  0.00    +0.008 A 
ATOM     27  C   UNL     1      -6.594  -0.225  -0.747  0.00  0.00    +0.049 A 
ATOM     28  C   UNL     1      -7.028  -0.256  -2.062  0.00  0.00    +0.161 A 
ATOM     29  C   UNL     1      -6.296   0.397  -3.049  0.00  0.00    +0.162 A 
ATOM     30  C   UNL     1      -5.140   1.082  -2.711  0.00  0.00    +0.053 A 
BRANCH  29  31
ATOM     31  O   UNL     1      -6.718   0.369  -4.342  0.00  0.00    -0.491 OA
ATOM     32  C   UNL     1      -5.917   1.062  -5.301  0.00  0.00    +0.277 C 
ENDBRANCH  29  31
BRANCH  28  33
ATOM     33  O   UNL     1      -8.166  -0.925  -2.389  0.00  0.00    -0.491 OA
ATOM     34  C   UNL     1      -8.865  -1.573  -1.324  0.00  0.00    +0.277 C 
ENDBRANCH  28  33
ENDBRANCH   5  25
BRANCH  11  35
ATOM     35  C   UNL     1       2.437   3.646   0.320  0.00  0.00    +0.337 C 
ATOM     36  O   UNL     1       3.446   3.078  -0.053  0.00  0.00    -0.245 OA
BRANCH  35  37
ATOM     37  O   UNL     1       2.491   4.940   0.696  0.00  0.00    -0.462 OA
BRANCH  37  38
ATOM     38  C   UNL     1       3.766   5.582   0.630  0.00  0.00    +0.229 C 
ATOM     39  C   UNL     1       3.630   7.035   1.092  0.00  0.00    +0.048 C 
ENDBRANCH  37  38
ENDBRANCH  35  37
ENDBRANCH  11  35
TORSDOF 10
