REMARK  Name = ZINC31045669
REMARK  5 active torsions:
REMARK  status: ('A' for Active; 'I' for Inactive)
REMARK    1  A    between atoms: C_6  and  C_7
REMARK    2  A    between atoms: C_9  and  C_12
REMARK    3  A    between atoms: C_12  and  N_13
REMARK    4  A    between atoms: C_17  and  C_20
REMARK    5  A    between atoms: N_22  and  C_23
REMARK                            x       y       z     vdW  Elec       q    Type
REMARK                         _______ _______ _______ _____ _____    ______ ____
ROOT
ATOM      1  N   UNL     1       3.719   1.753  -0.048  0.00  0.00    +0.386 N 
ATOM      2  C   UNL     1       3.819   2.576  -1.260  0.00  0.00    -0.078 C 
ATOM      3  C   UNL     1       2.683   3.601  -1.278  0.00  0.00    -0.018 C 
ATOM      4  C   UNL     1       1.339   2.867  -1.246  0.00  0.00    +0.009 C 
ATOM      5  C   UNL     1       1.280   1.980   0.001  0.00  0.00    +0.058 C 
ATOM      6  C   UNL     1       2.457   1.002  -0.018  0.00  0.00    -0.065 C 
ATOM      7  H   UNL     1       3.726   2.431   0.818  0.00  0.00    -0.081 HD
ENDROOT
BRANCH   5   8
ATOM      8  C   UNL     1      -0.014   1.209   0.009  0.00  0.00    +0.215 C 
ATOM      9  O   UNL     1       0.002  -0.004   0.002  0.00  0.00    -0.276 OA
ATOM     10  N   UNL     1      -1.191   1.867   0.018  0.00  0.00    -0.310 N 
ATOM     11  H   UNL     1      -1.206   2.966   0.024  0.00  0.00    +0.149 HD
BRANCH  10  12
ATOM     12  C   UNL     1      -2.449   1.117   0.020  0.00  0.00    +0.035 C 
ATOM     13  C   UNL     1      -2.524   0.243  -1.234  0.00  0.00    +0.029 C 
ATOM     14  C   UNL     1      -3.839  -0.540  -1.232  0.00  0.00    -0.008 C 
ATOM     15  C   UNL     1      -5.015   0.439  -1.221  0.00  0.00    +0.007 C 
ATOM     16  C   UNL     1      -4.940   1.312   0.033  0.00  0.00    -0.008 C 
ATOM     17  C   UNL     1      -3.626   2.095   0.031  0.00  0.00    +0.029 C 
ATOM     18  C   UNL     1      -5.003   0.425   1.277  0.00  0.00    +0.007 C 
ATOM     19  C   UNL     1      -3.827  -0.553   1.266  0.00  0.00    -0.008 C 
ATOM     20  C   UNL     1      -3.902  -1.427   0.013  0.00  0.00    +0.007 C 
ATOM     21  C   UNL     1      -2.512   0.230   1.264  0.00  0.00    +0.029 C 
ENDBRANCH  10  12
ENDBRANCH   5   8
BRANCH   1  22
ATOM     22  C   UNL     1       4.872   0.851   0.072  0.00  0.00    +0.022 C 
BRANCH  22  25
ATOM     23  C   UNL     1       5.109  -1.168  -2.893  0.00  0.00    +0.202 A 
ATOM     24  N   UNL     1       5.396  -0.026  -2.228  0.00  0.00    -0.193 NA
ATOM     25  C   UNL     1       4.840  -0.157  -1.049  0.00  0.00    +0.211 A 
ATOM     26  O   UNL     1       4.245  -1.353  -1.024  0.00  0.00    -0.340 OA
ATOM     27  N   UNL     1       4.403  -1.917  -2.087  0.00  0.00    -0.056 NA
BRANCH  23  33
ATOM     28  C   UNL     1       6.268  -0.602  -5.027  0.00  0.00    +0.013 A 
ATOM     29  C   UNL     1       6.650  -0.924  -6.313  0.00  0.00    +0.021 A 
ATOM     30  C   UNL     1       6.280  -2.139  -6.864  0.00  0.00    +0.041 A 
ATOM     31  C   UNL     1       5.529  -3.038  -6.127  0.00  0.00    +0.021 A 
ATOM     32  C   UNL     1       5.147  -2.728  -4.838  0.00  0.00    +0.013 A 
ATOM     33  C   UNL     1       5.518  -1.507  -4.279  0.00  0.00    +0.023 A 
ATOM     34 CL   UNL     1       6.758  -2.535  -8.485  0.00  0.00    -0.084 Cl
ENDBRANCH  23  33
ENDBRANCH  22  25
ENDBRANCH   1  22
TORSDOF 5
