REMARK  Name = ZINC20556053
REMARK  2 active torsions:
REMARK  status: ('A' for Active; 'I' for Inactive)
REMARK    1  A    between atoms: C_1  and  C_2
REMARK    2  A    between atoms: C_12  and  C_14
REMARK                            x       y       z     vdW  Elec       q    Type
REMARK                         _______ _______ _______ _____ _____    ______ ____
ROOT
ATOM      1  C   UNL     1      -1.925  -2.809  -1.394  0.00  0.00    +0.061 C 
ATOM      2  C   UNL     1      -0.866  -2.034  -0.653  0.00  0.00    +0.028 C 
ATOM      3  C   UNL     1       0.130  -2.699   0.002  0.00  0.00    +0.147 C 
ATOM      4  C   UNL     1       1.106  -1.956   0.694  0.00  0.00    +0.229 C 
ATOM      5  O   UNL     1       2.017  -2.517   1.281  0.00  0.00    -0.275 OA
ATOM      6  N   UNL     1       1.011  -0.615   0.692  0.00  0.00    -0.218 N 
ATOM      7  C   UNL     1       0.002  -0.004   0.002  0.00  0.00    +0.229 C 
ATOM      8  N   UNL     1      -0.905  -0.701  -0.639  0.00  0.00    -0.223 NA
ATOM      9  N   UNL     1      -0.017   1.378   0.010  0.00  0.00    -0.182 NA
ATOM     10  C   UNL     1       1.224   2.007   0.001  0.00  0.00    +0.196 C 
ATOM     11  N   UNL     1       2.203   1.456   0.671  0.00  0.00    -0.338 N 
ATOM     12  C   UNL     1       1.960   0.223   1.431  0.00  0.00    +0.183 C 
ATOM     13  N   UNL     1       1.415   3.178  -0.693  0.00  0.00    -0.298 N 
ATOM     14  C   UNL     1       2.725   3.847  -0.698  0.00  0.00    +0.127 C 
ATOM     15  C   UNL     1       3.118   4.128  -2.157  0.00  0.00    +0.127 C 
ATOM     16  N   UNL     1       2.038   4.875  -2.814  0.00  0.00    -0.297 N 
ATOM     17  C   UNL     1       0.801   4.084  -2.872  0.00  0.00    +0.127 C 
ATOM     18  C   UNL     1       0.315   3.798  -1.447  0.00  0.00    +0.127 C 
ATOM     19  C   UNL     1       2.420   5.291  -4.078  0.00  0.00    +0.218 A 
ATOM     20  N   UNL     1       1.681   4.947  -5.123  0.00  0.00    -0.223 NA
ATOM     21  C   UNL     1       2.015   5.333  -6.343  0.00  0.00    +0.116 A 
ATOM     22  C   UNL     1       3.158   6.096  -6.522  0.00  0.00    +0.039 A 
ATOM     23  C   UNL     1       3.911   6.433  -5.408  0.00  0.00    +0.116 A 
ATOM     24  N   UNL     1       3.518   6.019  -4.214  0.00  0.00    -0.223 NA
ATOM     25  H   UNL     1       3.202   1.917   0.663  0.00  0.00    +0.164 HD
ENDROOT
BRANCH  12  26
ATOM     26  C   UNL     1       1.377   0.570   2.802  0.00  0.00    +0.034 C 
ATOM     27  C   UNL     1       1.123  -0.718   3.596  0.00  0.00    +0.011 C 
ATOM     28  C   UNL     1       0.379  -0.354   4.883  0.00  0.00    +0.027 C 
ATOM     29  C   UNL     1       1.074   0.779   5.579  0.00  0.00    -0.031 C 
ATOM     30  C   UNL     1       1.938   1.559   5.012  0.00  0.00    -0.031 C 
ATOM     31  C   UNL     1       2.371   1.436   3.579  0.00  0.00    +0.034 C 
ENDBRANCH  12  26
TORSDOF 1
