REMARK  Name = ZINC03188861
REMARK  8 active torsions:
REMARK  status: ('A' for Active; 'I' for Inactive)
REMARK    1  A    between atoms: C_1  and  C_2
REMARK    2  A    between atoms: C_5  and  C_21
REMARK    3  A    between atoms: C_6  and  O_9
REMARK    4  A    between atoms: C_7  and  C_8
REMARK    5  A    between atoms: O_9  and  C_10
REMARK    6  A    between atoms: C_10  and  C_12
REMARK    7  A    between atoms: C_12  and  C_13
REMARK    8  A    between atoms: C_12  and  C_17
REMARK                            x       y       z     vdW  Elec       q    Type
REMARK                         _______ _______ _______ _____ _____    ______ ____
ROOT
ATOM      1  C   UNL     1       2.129   2.638   2.100  0.00  0.00    +0.333 C 
ATOM      2  O   UNL     1       1.632   3.698   1.801  0.00  0.00    -0.249 OA
ENDROOT
BRANCH   1   3
ATOM      3  O   UNL     1       1.346   1.599   2.432  0.00  0.00    -0.425 OA
BRANCH   3   9
ATOM      4  C   UNL     1      -2.865   1.540  -0.036  0.00  0.00    +0.044 C 
ATOM      5  C   UNL     1      -2.082   1.789   1.227  0.00  0.00    -0.044 A 
ATOM      6  C   UNL     1      -2.731   2.231   2.366  0.00  0.00    +0.004 A 
ATOM      7  C   UNL     1      -2.014   2.466   3.525  0.00  0.00    +0.007 A 
ATOM      8  C   UNL     1      -0.649   2.254   3.549  0.00  0.00    -0.008 A 
ATOM      9  C   UNL     1       0.003   1.807   2.410  0.00  0.00    +0.138 A 
ATOM     10  C   UNL     1      -0.718   1.572   1.248  0.00  0.00    -0.005 A 
ATOM     11  C   UNL     1      -0.013   1.086   0.008  0.00  0.00    +0.048 C 
ATOM     12  C   UNL     1       0.131   2.510   4.813  0.00  0.00    +0.047 C 
ENDBRANCH   3   9
ENDBRANCH   1   3
BRANCH   1  13
ATOM     13  C   UNL     1       3.628   2.482   2.102  0.00  0.00    +0.304 C 
BRANCH  13  14
ATOM     14  C   UNL     1       4.028   1.387   1.111  0.00  0.00    +0.411 C 
ATOM     15  F   UNL     1       3.597   1.740  -0.173  0.00  0.00    -0.169 F 
ATOM     16  F   UNL     1       5.420   1.243   1.112  0.00  0.00    -0.169 F 
ATOM     17  F   UNL     1       3.433   0.178   1.487  0.00  0.00    -0.169 F 
ENDBRANCH  13  14
BRANCH  13  18
ATOM     18  C   UNL     1       4.278   3.805   1.690  0.00  0.00    +0.411 C 
ATOM     19  F   UNL     1       3.913   4.806   2.596  0.00  0.00    -0.169 F 
ATOM     20  F   UNL     1       5.670   3.660   1.692  0.00  0.00    -0.169 F 
ATOM     21  F   UNL     1       3.847   4.157   0.407  0.00  0.00    -0.169 F 
ENDBRANCH  13  18
ENDBRANCH   1  13
TORSDOF 5
