REMARK  Name = ZINC14850829
REMARK  6 active torsions:
REMARK  status: ('A' for Active; 'I' for Inactive)
REMARK    1  A    between atoms: C_1  and  N_2
REMARK    2  A    between atoms: N_2  and  C_3
REMARK    3  A    between atoms: N_2  and  S_4
REMARK    4  A    between atoms: S_4  and  C_7
REMARK    5  A    between atoms: C_10  and  N_13
REMARK    6  A    between atoms: C_14  and  C_16
REMARK                            x       y       z     vdW  Elec       q    Type
REMARK                         _______ _______ _______ _____ _____    ______ ____
ROOT
ATOM      1  C   UNL     1       4.686  -0.267  -0.313  0.00  0.00    +0.106 A 
ATOM      2  C   UNL     1       4.728   1.111  -0.211  0.00  0.00    +0.030 A 
ATOM      3  C   UNL     1       3.555   1.833  -0.106  0.00  0.00    +0.025 A 
ATOM      4  C   UNL     1       2.333   1.173  -0.104  0.00  0.00    +0.034 A 
ATOM      5  C   UNL     1       2.295  -0.212  -0.201  0.00  0.00    +0.025 A 
ATOM      6  C   UNL     1       3.471  -0.927  -0.312  0.00  0.00    +0.030 A 
ENDROOT
BRANCH   4   7
ATOM      7  N   UNL     1       1.143   1.901   0.001  0.00  0.00    -0.281 N 
ATOM      8  C   UNL     1       1.043   3.115  -0.576  0.00  0.00    +0.249 C 
ATOM      9  O   UNL     1       2.011   3.613  -1.117  0.00  0.00    -0.270 OA
ATOM     10  H   UNL     1       0.391   1.533   0.490  0.00  0.00    +0.155 HD
BRANCH   8  11
ATOM     11  C   UNL     1      -0.242   3.841  -0.548  0.00  0.00    +0.051 A 
ATOM     12  C   UNL     1      -1.357   3.271   0.072  0.00  0.00    +0.017 A 
ATOM     13  C   UNL     1      -2.553   3.954   0.096  0.00  0.00    +0.039 A 
ATOM     14  C   UNL     1      -2.653   5.205  -0.494  0.00  0.00    +0.124 A 
ATOM     15  C   UNL     1      -1.552   5.777  -1.111  0.00  0.00    +0.054 A 
ATOM     16  C   UNL     1      -0.347   5.105  -1.136  0.00  0.00    +0.033 A 
ATOM     17 BR   UNL     1       1.158   5.889  -1.971  0.00  0.00    -0.049 Br
ATOM     18  F   UNL     1      -3.829   5.870  -0.467  0.00  0.00    -0.205 F 
ENDBRANCH   8  11
ENDBRANCH   4   7
BRANCH   1  19
ATOM     19  S   UNL     1       6.184  -1.185  -0.446  0.00  0.00    +0.060 S 
ATOM     20  O   UNL     1       5.854  -2.414  -1.078  0.00  0.00    -0.153 OA
ATOM     21  O   UNL     1       7.160  -0.295  -0.974  0.00  0.00    -0.153 OA
BRANCH  19  23
ATOM     22  C   UNL     1       6.217  -2.803   1.721  0.00  0.00    +0.131 C 
ATOM     23  N   UNL     1       6.668  -1.558   1.093  0.00  0.00    -0.183 NA
ATOM     24  C   UNL     1       7.547  -0.645   1.827  0.00  0.00    +0.131 C 
ENDBRANCH  19  23
ENDBRANCH   1  19
TORSDOF 4
