REMARK  Name = ZINC25014855
REMARK  9 active torsions:
REMARK  status: ('A' for Active; 'I' for Inactive)
REMARK    1  A    between atoms: C_4  and  C_7
REMARK    2  A    between atoms: C_8  and  C_9
REMARK    3  A    between atoms: C_9  and  N_10
REMARK    4  A    between atoms: N_10  and  C_11
REMARK    5  A    between atoms: C_21  and  C_23
REMARK    6  A    between atoms: C_23  and  C_24
REMARK    7  A    between atoms: C_24  and  C_25
REMARK    8  A    between atoms: C_25  and  N_26
REMARK    9  A    between atoms: C_27  and  C_29
REMARK                            x       y       z     vdW  Elec       q    Type
REMARK                         _______ _______ _______ _____ _____    ______ ____
ROOT
ATOM      1  N   UNL     1       3.662  -0.664   0.165  0.00  0.00    -0.268 N 
ATOM      2  C   UNL     1       4.778   0.020  -0.157  0.00  0.00    +0.220 C 
ATOM      3  O   UNL     1       5.791  -0.578  -0.455  0.00  0.00    -0.275 OA
ENDROOT
BRANCH   1   4
ATOM      4  C   UNL     1       2.468   0.023   0.417  0.00  0.00    +0.040 A 
ATOM      5  C   UNL     1       1.923   0.022   1.694  0.00  0.00    +0.027 A 
ATOM      6  C   UNL     1       0.744   0.698   1.944  0.00  0.00    +0.051 A 
ATOM      7  C   UNL     1       0.102   1.380   0.920  0.00  0.00    +0.162 A 
ATOM      8  C   UNL     1       0.646   1.385  -0.358  0.00  0.00    +0.164 A 
ATOM      9  C   UNL     1       1.829   0.705  -0.608  0.00  0.00    +0.073 A 
ATOM     10  O   UNL     1       0.035   2.055  -1.373  0.00  0.00    -0.485 OA
ATOM     11  C   UNL     1      -1.337   2.411  -1.175  0.00  0.00    +0.270 C 
ATOM     12  C   UNL     1      -1.479   3.017   0.228  0.00  0.00    +0.270 C 
ATOM     13  O   UNL     1      -1.064   2.034   1.183  0.00  0.00    -0.485 OA
ENDBRANCH   1   4
BRANCH   1  14
ATOM     14  C   UNL     1       3.698  -2.126   0.251  0.00  0.00    +0.141 C 
BRANCH  14  16
ATOM     15  C   UNL     1       4.204  -3.573  -1.667  0.00  0.00    +0.005 C 
ATOM     16  C   UNL     1       3.368  -2.717  -1.096  0.00  0.00    -0.007 C 
BRANCH  15  20
ATOM     17  C   UNL     1       3.273  -5.238  -5.462  0.00  0.00    +0.000 A 
ATOM     18  C   UNL     1       4.449  -5.591  -4.824  0.00  0.00    +0.001 A 
ATOM     19  C   UNL     1       4.757  -5.054  -3.591  0.00  0.00    +0.008 A 
ATOM     20  C   UNL     1       3.880  -4.152  -2.987  0.00  0.00    -0.025 A 
ATOM     21  C   UNL     1       2.693  -3.804  -3.633  0.00  0.00    +0.008 A 
ATOM     22  C   UNL     1       2.400  -4.344  -4.869  0.00  0.00    +0.001 A 
ENDBRANCH  15  20
ENDBRANCH  14  16
ENDBRANCH   1  14
BRANCH   2  23
ATOM     23  C   UNL     1       4.767   1.527  -0.147  0.00  0.00    +0.098 C 
BRANCH  23  24
ATOM     24  C   UNL     1       6.181   2.049  -0.412  0.00  0.00    +0.028 C 
BRANCH  24  25
ATOM     25  C   UNL     1       6.170   3.579  -0.402  0.00  0.00    +0.105 C 
BRANCH  25  26
ATOM     26  N   UNL     1       7.524   4.078  -0.656  0.00  0.00    -0.311 N 
ATOM     27  C   UNL     1       7.756   5.405  -0.693  0.00  0.00    +0.245 C 
ATOM     28  O   UNL     1       6.842   6.188  -0.516  0.00  0.00    -0.270 OA
ATOM     29  H   UNL     1       8.350   3.370  -0.816  0.00  0.00    +0.149 HD
BRANCH  27  30
ATOM     30  C   UNL     1       9.116   5.907  -0.948  0.00  0.00    +0.044 A 
ATOM     31  C   UNL     1       9.400   7.319  -1.000  0.00  0.00    +0.020 A 
ATOM     32  C   UNL     1      10.677   7.680  -1.234  0.00  0.00    +0.046 A 
ATOM     33  S   UNL     1      11.514   6.117  -1.401  0.00  0.00    -0.104 S 
ATOM     34  C   UNL     1      10.175   5.047  -1.153  0.00  0.00    +0.058 A 
ENDBRANCH  27  30
ENDBRANCH  25  26
ENDBRANCH  24  25
ENDBRANCH  23  24
ENDBRANCH   2  23
TORSDOF 9
