REMARK  Name = ZINC08797504
REMARK  10 active torsions:
REMARK  status: ('A' for Active; 'I' for Inactive)
REMARK    1  A    between atoms: C_1  and  C_2
REMARK    2  A    between atoms: C_2  and  N_3
REMARK    3  A    between atoms: C_5  and  C_34
REMARK    4  A    between atoms: N_12  and  C_13
REMARK    5  A    between atoms: C_13  and  C_15
REMARK    6  A    between atoms: C_18  and  S_21
REMARK    7  A    between atoms: S_21  and  N_24
REMARK    8  A    between atoms: N_24  and  C_25
REMARK    9  A    between atoms: N_24  and  C_26
REMARK   10  A    between atoms: C_26  and  C_27
REMARK                            x       y       z     vdW  Elec       q    Type
REMARK                         _______ _______ _______ _____ _____    ______ ____
ROOT
ATOM      1  C   UNL     1       0.276   1.535  -0.958  0.00  0.00    +0.039 A 
ATOM      2  C   UNL     1      -0.966   2.154  -0.821  0.00  0.00    +0.015 A 
ATOM      3  C   UNL     1      -1.065   3.526  -0.924  0.00  0.00    +0.029 A 
ATOM      4  C   UNL     1       0.063   4.287  -1.173  0.00  0.00    +0.106 A 
ATOM      5  C   UNL     1       1.297   3.679  -1.315  0.00  0.00    +0.029 A 
ATOM      6  C   UNL     1       1.410   2.308  -1.210  0.00  0.00    +0.015 A 
ENDROOT
BRANCH   4   7
ATOM      7  S   UNL     1      -0.073   6.039  -1.310  0.00  0.00    +0.061 S 
ATOM      8  O   UNL     1      -1.303   6.400  -0.697  0.00  0.00    -0.153 OA
ATOM      9  O   UNL     1       1.174   6.577  -0.891  0.00  0.00    -0.153 OA
BRANCH   7  10
ATOM     10  N   UNL     1      -0.225   6.394  -2.920  0.00  0.00    -0.175 NA
ATOM     11  C   UNL     1       0.970   6.521  -3.758  0.00  0.00    +0.132 C 
BRANCH  10  12
ATOM     12  C   UNL     1      -1.554   6.581  -3.507  0.00  0.00    +0.144 C 
BRANCH  12  13
ATOM     13  C   UNL     1      -1.868   8.053  -3.581  0.00  0.00    -0.032 A 
ATOM     14  C   UNL     1      -2.425   8.696  -2.491  0.00  0.00    +0.005 A 
ATOM     15  C   UNL     1      -2.709  10.048  -2.558  0.00  0.00    +0.000 A 
ATOM     16  C   UNL     1      -2.445  10.753  -3.717  0.00  0.00    +0.000 A 
ATOM     17  C   UNL     1      -1.893  10.109  -4.808  0.00  0.00    +0.000 A 
ATOM     18  C   UNL     1      -1.605   8.758  -4.740  0.00  0.00    +0.005 A 
ENDBRANCH  12  13
ENDBRANCH  10  12
ENDBRANCH   7  10
ENDBRANCH   4   7
BRANCH   1  19
ATOM     19  C   UNL     1       0.391   0.063  -0.844  0.00  0.00    +0.269 C 
ATOM     20  O   UNL     1       1.477  -0.476  -0.969  0.00  0.00    -0.268 OA
BRANCH  19  30
ATOM     21  N   UNL     1      -1.581  -2.902  -0.260  0.00  0.00    -0.321 N 
ATOM     22  C   UNL     1      -1.280  -4.250  -0.187  0.00  0.00    +0.062 A 
ATOM     23  C   UNL     1      -2.151  -5.325   0.050  0.00  0.00    -0.008 A 
ATOM     24  C   UNL     1      -1.680  -6.617   0.090  0.00  0.00    +0.046 A 
ATOM     25  C   UNL     1      -0.336  -6.897  -0.102  0.00  0.00    +0.021 A 
ATOM     26  C   UNL     1       0.544  -5.855  -0.336  0.00  0.00    +0.018 A 
ATOM     27  C   UNL     1       0.073  -4.564  -0.376  0.00  0.00    +0.039 A 
ATOM     28  S   UNL     1       0.826  -2.979  -0.646  0.00  0.00    -0.052 S 
ATOM     29  C   UNL     1      -0.595  -1.996  -0.500  0.00  0.00    +0.167 A 
ATOM     30  N   UNL     1      -0.698  -0.675  -0.603  0.00  0.00    -0.152 NA
ATOM     31 CL   UNL     1      -2.789  -7.920   0.384  0.00  0.00    -0.083 Cl
ATOM     32  C   UNL     1      -3.620  -5.061   0.262  0.00  0.00    +0.047 C 
BRANCH  21  34
ATOM     33  C   UNL     1      -3.043  -0.943  -0.330  0.00  0.00    +0.027 C 
ATOM     34  C   UNL     1      -2.962  -2.450  -0.079  0.00  0.00    +0.121 C 
ENDBRANCH  21  34
ENDBRANCH  19  30
ENDBRANCH   1  19
TORSDOF 7
