REMARK  Name = ZINC02944415
REMARK  16 active torsions:
REMARK  status: ('A' for Active; 'I' for Inactive)
REMARK    1  A    between atoms: C_1  and  N_66
REMARK    2  A    between atoms: C_2  and  N_66
REMARK    3  A    between atoms: C_8  and  O_33
REMARK    4  A    between atoms: C_9  and  O_31
REMARK    5  A    between atoms: C_10  and  O_29
REMARK    6  A    between atoms: C_17  and  N_20
REMARK    7  A    between atoms: N_20  and  C_21
REMARK    8  A    between atoms: C_21  and  C_22
REMARK    9  A    between atoms: C_22  and  C_23
REMARK   10  A    between atoms: C_23  and  C_24
REMARK   11  A    between atoms: C_24  and  C_25
REMARK   12  A    between atoms: C_25  and  C_27
REMARK   13  A    between atoms: C_25  and  N_70
REMARK   14  A    between atoms: O_29  and  C_30
REMARK   15  A    between atoms: O_31  and  C_32
REMARK   16  A    between atoms: O_33  and  C_34
REMARK                            x       y       z     vdW  Elec       q    Type
REMARK                         _______ _______ _______ _____ _____    ______ ____
ROOT
ATOM      1  C   UNK     1      -0.950   1.988 -10.773  0.00  0.00    -0.040 C 
ATOM      2  C   UNK     1      -1.879   1.027 -11.488  0.00  0.00    -0.007 C 
ATOM      3  C   UNK     1      -3.275   1.054 -10.872  0.00  0.00    +0.035 C 
ATOM      4  C   UNK     1      -3.693   2.480 -10.624  0.00  0.00    -0.033 A 
ATOM      5  C   UNK     1      -4.609   3.089 -11.456  0.00  0.00    +0.054 A 
ATOM      6  C   UNK     1      -5.011   4.396 -11.210  0.00  0.00    +0.165 A 
ATOM      7  C   UNK     1      -4.494   5.098 -10.127  0.00  0.00    +0.204 A 
ATOM      8  C   UNK     1      -3.566   4.493  -9.289  0.00  0.00    +0.173 A 
ATOM      9  C   UNK     1      -3.164   3.179  -9.544  0.00  0.00    +0.031 A 
ATOM     10  C   UNK     1      -2.159   2.527  -8.651  0.00  0.00    -0.012 A 
ATOM     11  C   UNK     1      -1.086   1.884  -9.267  0.00  0.00    -0.050 A 
ATOM     12  C   UNK     1      -0.139   1.171  -8.631  0.00  0.00    +0.055 A 
ATOM     13  C   UNK     1       0.093   0.901  -7.314  0.00  0.00    +0.200 A 
ATOM     14  O   UNK     1       1.039   0.160  -7.082  0.00  0.00    -0.286 OA
ATOM     15  C   UNK     1      -0.609   1.352  -6.199  0.00  0.00    +0.074 A 
ATOM     16  C   UNK     1      -1.727   2.132  -6.232  0.00  0.00    +0.027 A 
ATOM     17  C   UNK     1      -2.385   2.615  -7.301  0.00  0.00    +0.011 A 
ENDROOT
BRANCH   1  19
ATOM     18  C   UNK     1       0.754   2.227 -12.476  0.00  0.00    -0.100 C 
ATOM     19  N   UNK     1       0.444   1.677 -11.143  0.00  0.00    +0.382 N 
ATOM     20  H   UNK     1       1.079   2.091 -10.450  0.00  0.00    -0.085 HD
ATOM     21  H   UNK     1       0.571   0.658 -11.158  0.00  0.00    -0.085 HD
ENDBRANCH   1  19
BRANCH  15  22
ATOM     22  N   UNK     1      -0.129   0.983  -4.954  0.00  0.00    -0.341 N 
ATOM     23  H   UNK     1       0.664   0.429  -4.885  0.00  0.00    +0.146 HD
BRANCH  22  24
ATOM     24  C   UNK     1      -0.818   1.431  -3.741  0.00  0.00    +0.101 C 
BRANCH  24  25
ATOM     25  C   UNK     1      -0.088   0.888  -2.510  0.00  0.00    +0.019 C 
BRANCH  25  26
ATOM     26  C   UNK     1      -0.808   1.355  -1.243  0.00  0.00    +0.000 C 
BRANCH  26  27
ATOM     27  C   UNK     1      -0.079   0.813  -0.013  0.00  0.00    -0.005 C 
BRANCH  27  28
ATOM     28  C   UNK     1      -0.798   1.280   1.254  0.00  0.00    +0.040 C 
BRANCH  28  31
ATOM     29  H   UNK     1      -1.227   3.081   2.154  0.00  0.00    -0.089 HD
ATOM     30  H   UNK     1       0.258   3.040   1.406  0.00  0.00    -0.089 HD
ATOM     31  N   UNK     1      -0.715   2.748   1.338  0.00  0.00    +0.387 N 
ATOM     32  H   UNK     1      -1.129   3.159   0.492  0.00  0.00    -0.089 HD
ENDBRANCH  28  31
BRANCH  28  33
ATOM     33  C   UNK     1      -0.154   0.646   2.460  0.00  0.00    +0.342 C 
ATOM     34  O   UNK     1       0.633   1.277   3.125  0.00  0.00    -0.248 OA
ATOM     35  O   UNK     1      -0.455  -0.618   2.796  0.00  0.00    -0.248 OA
ENDBRANCH  28  33
ENDBRANCH  27  28
ENDBRANCH  26  27
ENDBRANCH  25  26
ENDBRANCH  24  25
ENDBRANCH  22  24
ENDBRANCH  15  22
BRANCH   8  36
ATOM     36  O   UNK     1      -3.055   5.173  -8.229  0.00  0.00    -0.491 OA
ATOM     37  C   UNK     1      -1.864   5.930  -8.457  0.00  0.00    +0.277 C 
ENDBRANCH   8  36
BRANCH   7  38
ATOM     38  O   UNK     1      -4.896   6.376  -9.889  0.00  0.00    -0.488 OA
ATOM     39  C   UNK     1      -6.033   6.551  -9.042  0.00  0.00    +0.277 C 
ENDBRANCH   7  38
BRANCH   6  40
ATOM     40  O   UNK     1      -5.915   4.991 -12.032  0.00  0.00    -0.491 OA
ATOM     41  C   UNK     1      -6.407   4.214 -13.126  0.00  0.00    +0.277 C 
ENDBRANCH   6  40
TORSDOF 12
