REMARK  Name = ZINC59170403
REMARK  9 active torsions:
REMARK  status: ('A' for Active; 'I' for Inactive)
REMARK    1  A    between atoms: C_1  and  C_2
REMARK    2  A    between atoms: C_2  and  O_3
REMARK    3  A    between atoms: O_3  and  C_4
REMARK    4  A    between atoms: N_12  and  C_13
REMARK    5  A    between atoms: C_16  and  S_19
REMARK    6  A    between atoms: S_19  and  N_22
REMARK    7  A    between atoms: C_23  and  C_25
REMARK    8  A    between atoms: N_27  and  C_28
REMARK    9  A    between atoms: C_31  and  C_34
REMARK                            x       y       z     vdW  Elec       q    Type
REMARK                         _______ _______ _______ _____ _____    ______ ____
ROOT
ATOM      1  C   UNL     1       0.886  -1.528   1.417  0.00  0.00    +0.163 A 
ATOM      2  C   UNL     1       1.013  -2.112   0.169  0.00  0.00    +0.049 A 
ATOM      3  C   UNL     1       1.904  -3.155  -0.036  0.00  0.00    +0.004 A 
ATOM      4  C   UNL     1       2.675  -3.627   1.002  0.00  0.00    +0.012 A 
ATOM      5  C   UNL     1       2.558  -3.050   2.273  0.00  0.00    +0.022 A 
ATOM      6  C   UNL     1       1.661  -1.986   2.478  0.00  0.00    +0.179 A 
ATOM      7  O   UNL     1       1.557  -1.417   3.705  0.00  0.00    -0.435 OA
ATOM      8  C   UNL     1       1.855  -2.199   4.774  0.00  0.00    +0.212 A 
ATOM      9  N   UNL     1       1.131  -2.151   5.872  0.00  0.00    -0.325 N 
ATOM     10  C   UNL     1       3.015  -3.105   4.666  0.00  0.00    +0.098 A 
ATOM     11  C   UNL     1       3.362  -3.539   3.396  0.00  0.00    +0.030 A 
ATOM     12  H   UNL     1       1.288  -2.789   6.584  0.00  0.00    +0.169 HD
ENDROOT
BRANCH   9  13
ATOM     13  C   UNL     1       0.158  -1.200   6.008  0.00  0.00    +0.042 A 
ATOM     14  C   UNL     1       0.417   0.126   5.650  0.00  0.00    +0.027 A 
ATOM     15  C   UNL     1      -0.569   1.079   5.790  0.00  0.00    +0.030 A 
ATOM     16  C   UNL     1      -1.813   0.726   6.284  0.00  0.00    +0.105 A 
ATOM     17  C   UNL     1      -2.076  -0.584   6.641  0.00  0.00    +0.030 A 
ATOM     18  C   UNL     1      -1.101  -1.550   6.500  0.00  0.00    +0.027 A 
BRANCH  16  19
ATOM     19  S   UNL     1      -3.067   1.952   6.459  0.00  0.00    +0.056 S 
ATOM     20  O   UNL     1      -3.964   1.475   7.453  0.00  0.00    -0.153 OA
ATOM     21  O   UNL     1      -2.400   3.202   6.571  0.00  0.00    -0.153 OA
BRANCH  19  22
ATOM     22  N   UNL     1      -3.914   1.992   5.037  0.00  0.00    -0.204 NA
ATOM     23  H   UNL     1      -3.670   1.399   4.310  0.00  0.00    +0.144 HD
ATOM     24  H   UNL     1      -4.655   2.609   4.932  0.00  0.00    +0.144 HD
ENDBRANCH  19  22
ENDBRANCH  16  19
ENDBRANCH   9  13
BRANCH  10  25
ATOM     25  C   UNL     1       3.765  -3.538   5.858  0.00  0.00    +0.253 C 
ATOM     26  O   UNL     1       4.630  -4.387   5.756  0.00  0.00    -0.270 OA
ATOM     27  N   UNL     1       3.492  -2.994   7.060  0.00  0.00    -0.281 N 
ATOM     28  H   UNL     1       2.766  -2.357   7.151  0.00  0.00    +0.155 HD
BRANCH  27  29
ATOM     29  C   UNL     1       4.255  -3.349   8.177  0.00  0.00    +0.034 A 
ATOM     30  C   UNL     1       4.736  -4.645   8.309  0.00  0.00    +0.023 A 
ATOM     31  C   UNL     1       5.489  -4.991   9.413  0.00  0.00    +0.005 A 
ATOM     32  C   UNL     1       5.765  -4.049  10.387  0.00  0.00    -0.050 A 
ATOM     33  C   UNL     1       5.287  -2.758  10.259  0.00  0.00    +0.005 A 
ATOM     34  C   UNL     1       4.538  -2.403   9.155  0.00  0.00    +0.023 A 
ATOM     35  C   UNL     1       6.588  -4.431  11.591  0.00  0.00    +0.044 C 
ENDBRANCH  27  29
ENDBRANCH  10  25
BRANCH   1  36
ATOM     36  O   UNL     1       0.010  -0.505   1.605  0.00  0.00    -0.489 OA
BRANCH  36  38
ATOM     37  C   UNL     1      -1.676   1.065   0.873  0.00  0.00    +0.048 C 
ATOM     38  C   UNL     1      -0.753  -0.087   0.471  0.00  0.00    +0.226 C 
ENDBRANCH  36  38
ENDBRANCH   1  36
TORSDOF 7
