REMARK  Name = ZINC62640169
REMARK  6 active torsions:
REMARK  status: ('A' for Active; 'I' for Inactive)
REMARK    1  A    between atoms: C_3  and  N_11
REMARK    2  A    between atoms: C_5  and  S_7
REMARK    3  A    between atoms: S_7  and  N_10
REMARK    4  A    between atoms: N_11  and  S_12
REMARK    5  A    between atoms: S_12  and  C_15
REMARK    6  A    between atoms: C_18  and  C_20
REMARK                            x       y       z     vdW  Elec       q    Type
REMARK                         _______ _______ _______ _____ _____    ______ ____
ROOT
ATOM      1  S   UNL     1       3.562   3.778  -0.013  0.00  0.00    +0.109 S 
ATOM      2  O   UNL     1       2.994   4.183  -1.250  0.00  0.00    -0.147 OA
ATOM      3  O   UNL     1       3.018   4.171   1.240  0.00  0.00    -0.147 OA
ENDROOT
BRANCH   1   4
ATOM      4  C   UNL     1       5.238   4.319  -0.026  0.00  0.00    +0.206 A 
ATOM      5  C   UNL     1       5.899   4.518   1.145  0.00  0.00    +0.096 A 
ATOM      6  S   UNL     1       7.498   5.041   0.537  0.00  0.00    -0.074 S 
ATOM      7  C   UNL     1       7.112   4.939  -1.206  0.00  0.00    +0.110 A 
ATOM      8  N   UNL     1       5.853   4.527  -1.167  0.00  0.00    -0.219 NA
BRANCH   7   9
ATOM      9  C   UNL     1       7.969   5.230  -2.375  0.00  0.00    +0.007 A 
ATOM     10  C   UNL     1       7.462   5.089  -3.667  0.00  0.00    +0.011 A 
ATOM     11  C   UNL     1       8.266   5.363  -4.754  0.00  0.00    +0.016 A 
ATOM     12  C   UNL     1       9.574   5.776  -4.565  0.00  0.00    +0.018 A 
ATOM     13  C   UNL     1      10.083   5.917  -3.285  0.00  0.00    +0.016 A 
ATOM     14  C   UNL     1       9.287   5.652  -2.190  0.00  0.00    +0.011 A 
ATOM     15 BR   UNL     1      10.670   6.148  -6.061  0.00  0.00    -0.050 Br
ENDBRANCH   7   9
ENDBRANCH   1   4
BRANCH   1  16
ATOM     16  N   UNL     1       3.582   2.122  -0.021  0.00  0.00    -0.096 NA
BRANCH  16  19
ATOM     17  C   UNL     1      -0.017   1.378   0.010  0.00  0.00    +0.004 A 
ATOM     18  C   UNL     1       1.169   2.087   0.002  0.00  0.00    +0.027 A 
ATOM     19  C   UNL     1       2.381   1.409  -0.013  0.00  0.00    +0.076 A 
ATOM     20  C   UNL     1       2.396   0.020  -0.021  0.00  0.00    +0.055 A 
ATOM     21  C   UNL     1       1.207  -0.682  -0.013  0.00  0.00    +0.107 A 
ATOM     22  C   UNL     1       0.002  -0.004   0.002  0.00  0.00    +0.028 A 
BRANCH  21  23
ATOM     23  S   UNL     1       1.225  -2.444  -0.023  0.00  0.00    +0.056 S 
ATOM     24  O   UNL     1      -0.021  -2.860  -0.565  0.00  0.00    -0.153 OA
ATOM     25  O   UNL     1       2.469  -2.834  -0.589  0.00  0.00    -0.153 OA
BRANCH  23  26
ATOM     26  N   UNL     1       1.246  -2.943   1.556  0.00  0.00    -0.204 NA
ATOM     27  H   UNL     1       1.246  -2.288   2.271  0.00  0.00    +0.144 HD
ATOM     28  H   UNL     1       1.258  -3.890   1.765  0.00  0.00    +0.144 HD
ENDBRANCH  23  26
ENDBRANCH  21  23
ENDBRANCH  16  19
ENDBRANCH   1  16
TORSDOF 6
