REMARK  Name = ZINC39856000
REMARK  5 active torsions:
REMARK  status: ('A' for Active; 'I' for Inactive)
REMARK    1  A    between atoms: C_1  and  C_2
REMARK    2  A    between atoms: C_6  and  C_7
REMARK    3  A    between atoms: C_18  and  C_26
REMARK    4  A    between atoms: C_18  and  C_27
REMARK    5  A    between atoms: N_21  and  N_22
REMARK                            x       y       z     vdW  Elec       q    Type
REMARK                         _______ _______ _______ _____ _____    ______ ____
ROOT
ATOM      1  C   UNL     1      -0.013   1.502   0.010  0.00  0.00    +0.048 C 
ATOM      2  C   UNL     1       0.007  -0.004   0.002  0.00  0.00    +0.009 A 
ATOM      3  C   UNL     1       0.015  -0.839  -1.123  0.00  0.00    +0.043 A 
ATOM      4  C   UNL     1       0.032  -2.138  -0.673  0.00  0.00    +0.116 A 
ATOM      5  O   UNL     1       0.038  -2.112   0.658  0.00  0.00    -0.454 OA
ATOM      6  C   UNL     1       0.027  -0.831   1.091  0.00  0.00    +0.193 A 
ATOM      7  C   UNL     1       0.039  -3.326  -1.600  0.00  0.00    +0.081 C 
ATOM      8  C   UNL     1      -0.483  -2.903  -2.975  0.00  0.00    -0.023 C 
ATOM      9  C   UNL     1       0.289  -1.685  -3.494  0.00  0.00    +0.064 C 
ATOM     10  C   UNL     1       0.009  -0.512  -2.566  0.00  0.00    +0.073 C 
ATOM     11  N   UNL     1      -0.217   0.686  -3.008  0.00  0.00    -0.175 NA
ATOM     12  C   UNL     1      -1.968  -2.548  -2.863  0.00  0.00    +0.011 C 
ATOM     13  C   UNL     1      -0.316  -4.063  -3.958  0.00  0.00    +0.011 C 
ENDROOT
BRANCH   6  14
ATOM     14  C   UNL     1       0.034  -0.400   2.493  0.00  0.00    +0.285 C 
ATOM     15  O   UNL     1       0.020   0.786   2.765  0.00  0.00    -0.266 OA
ATOM     16  N   UNL     1       0.055  -1.318   3.480  0.00  0.00    -0.264 N 
ATOM     17  C   UNL     1       0.168  -0.911   4.808  0.00  0.00    +0.125 A 
ATOM     18  C   UNL     1       0.295  -1.864   5.812  0.00  0.00    +0.045 A 
ATOM     19  C   UNL     1       0.407  -1.447   7.126  0.00  0.00    +0.025 A 
ATOM     20  C   UNL     1       0.387  -0.084   7.392  0.00  0.00    +0.059 A 
ATOM     21  C   UNL     1       0.258   0.808   6.345  0.00  0.00    +0.132 A 
ATOM     22  N   UNL     1       0.158   0.380   5.101  0.00  0.00    -0.239 NA
ATOM     23 CL   UNL     1       0.524   0.494   9.024  0.00  0.00    -0.082 Cl
ATOM     24  H   UNL     1      -0.009  -2.262   3.266  0.00  0.00    +0.157 HD
ENDBRANCH   6  14
BRANCH  11  25
ATOM     25  N   UNL     1      -0.210   0.938  -4.386  0.00  0.00    -0.248 N 
ATOM     26  C   UNL     1      -0.449   2.202  -4.853  0.00  0.00    +0.187 C 
ATOM     27  N   UNL     1      -0.443   2.442  -6.164  0.00  0.00    -0.370 N 
ATOM     28  N   UNL     1      -0.689   3.194  -3.995  0.00  0.00    -0.370 N 
ATOM     29  H   UNL     1      -0.036   0.215  -5.010  0.00  0.00    +0.192 HD
ATOM     30  H   UNL     1      -0.268   1.720  -6.787  0.00  0.00    +0.159 HD
ATOM     31  H   UNL     1      -0.694   3.020  -3.041  0.00  0.00    +0.159 HD
ATOM     32  H   UNL     1      -0.858   4.090  -4.326  0.00  0.00    +0.159 HD
ATOM     33  H   UNL     1      -0.612   3.338  -6.494  0.00  0.00    +0.159 HD
ENDBRANCH  11  25
TORSDOF 2
