REMARK  Name = ZINC05733285
REMARK  11 active torsions:
REMARK  status: ('A' for Active; 'I' for Inactive)
REMARK    1  A    between atoms: C_1  and  C_2
REMARK    2  A    between atoms: C_2  and  C_3
REMARK    3  A    between atoms: C_10  and  O_35
REMARK    4  A    between atoms: C_11  and  O_33
REMARK    5  A    between atoms: C_17  and  C_19
REMARK    6  A    between atoms: C_19  and  C_20
REMARK    7  A    between atoms: C_23  and  O_31
REMARK    8  A    between atoms: C_24  and  O_30
REMARK    9  A    between atoms: O_31  and  C_32
REMARK   10  A    between atoms: O_33  and  C_34
REMARK   11  A    between atoms: O_35  and  C_36
REMARK                            x       y       z     vdW  Elec       q    Type
REMARK                         _______ _______ _______ _____ _____    ______ ____
ROOT
ATOM      1  C   UNL     1       1.240   6.211  -1.254  0.00  0.00    -0.024 C 
ATOM      2  C   UNL     1       2.340   5.673  -0.336  0.00  0.00    -0.074 C 
ATOM      3  C   UNL     1       3.503   3.651   0.335  0.00  0.00    -0.073 C 
ATOM      4  C   UNL     1       3.712   2.197  -0.047  0.00  0.00    +0.017 C 
ATOM      5  C   UNL     1       2.402   1.452  -0.020  0.00  0.00    -0.044 A 
ATOM      6  C   UNL     1       2.433   0.065  -0.024  0.00  0.00    +0.053 A 
ATOM      7  C   UNL     1       1.255  -0.661  -0.013  0.00  0.00    +0.162 A 
ATOM      8  C   UNL     1       0.034   0.006   0.003  0.00  0.00    +0.162 A 
ATOM      9  C   UNL     1       0.009   1.389   0.010  0.00  0.00    +0.051 A 
ATOM     10  C   UNL     1       1.193   2.114   0.001  0.00  0.00    -0.054 A 
ATOM     11  C   UNL     1       1.113   3.616   0.020  0.00  0.00    -0.037 C 
ATOM     12  C   UNL     1      -0.007   4.089  -0.909  0.00  0.00    -0.007 C 
ATOM     13  C   UNL     1      -0.107   5.616  -0.836  0.00  0.00    -0.005 C 
ATOM     14  N   UNL     1       2.380   4.197  -0.455  0.00  0.00    +0.385 N 
ATOM     15  H   UNL     1       2.513   3.947  -1.442  0.00  0.00    -0.081 HD
ENDROOT
BRANCH   1  17
ATOM     16  C   UNL     1       2.829   6.511  -3.159  0.00  0.00    +0.004 C 
ATOM     17  C   UNL     1       1.544   5.817  -2.701  0.00  0.00    -0.002 C 
ENDBRANCH   1  17
BRANCH   8  18
ATOM     18  O   UNL     1      -1.129  -0.698   0.011  0.00  0.00    -0.491 OA
ATOM     19  C   UNL     1      -2.344   0.056   0.026  0.00  0.00    +0.277 C 
ENDBRANCH   8  18
BRANCH   7  20
ATOM     20  O   UNL     1       1.291  -2.021  -0.017  0.00  0.00    -0.491 OA
ATOM     21  C   UNL     1       2.580  -2.636  -0.033  0.00  0.00    +0.277 C 
ENDBRANCH   7  20
BRANCH  13  22
ATOM     22  C   UNL     1      -1.183   6.095  -1.777  0.00  0.00    +0.059 C 
BRANCH  22  23
ATOM     23  C   UNL     1      -2.217   6.794  -1.308  0.00  0.00    +0.044 C 
ATOM     24  C   UNL     1      -3.297   7.291  -2.201  0.00  0.00    +0.003 A 
ATOM     25  C   UNL     1      -3.173   7.153  -3.582  0.00  0.00    +0.059 A 
ATOM     26  C   UNL     1      -4.181   7.608  -4.411  0.00  0.00    +0.162 A 
ATOM     27  C   UNL     1      -5.316   8.200  -3.860  0.00  0.00    +0.159 A 
ATOM     28  C   UNL     1      -5.434   8.338  -2.487  0.00  0.00    +0.053 A 
ATOM     29  C   UNL     1      -4.427   7.890  -1.650  0.00  0.00    -0.033 A 
ATOM     30  C   UNL     1      -4.575   8.073  -0.163  0.00  0.00    +0.059 C 
ATOM     31  C   UNL     1      -3.712   7.075   0.605  0.00  0.00    +0.146 C 
ATOM     32  N   UNL     1      -2.346   7.102   0.061  0.00  0.00    -0.287 NA
BRANCH  27  33
ATOM     33  O   UNL     1      -6.310   8.645  -4.673  0.00  0.00    -0.503 OA
ATOM     34  H   UNL     1      -6.989   7.983  -4.863  0.00  0.00    +0.292 HD
ENDBRANCH  27  33
BRANCH  26  35
ATOM     35  O   UNL     1      -4.067   7.478  -5.760  0.00  0.00    -0.491 OA
ATOM     36  C   UNL     1      -2.877   6.861  -6.254  0.00  0.00    +0.277 C 
ENDBRANCH  26  35
ENDBRANCH  22  23
ENDBRANCH  13  22
TORSDOF 7
