REMARK  Name = ZINC43741716
REMARK  4 active torsions:
REMARK  status: ('A' for Active; 'I' for Inactive)
REMARK    1  A    between atoms: C_1  and  O_2
REMARK    2  A    between atoms: O_2  and  C_3
REMARK    3  A    between atoms: C_6  and  C_9
REMARK    4  A    between atoms: N_10  and  C_11
REMARK                            x       y       z     vdW  Elec       q    Type
REMARK                         _______ _______ _______ _____ _____    ______ ____
ROOT
ATOM      1  C   UNL     1       3.258  -4.455   5.381  0.00  0.00    +0.064 A 
ATOM      2  C   UNL     1       4.492  -3.980   5.826  0.00  0.00    +0.029 A 
ATOM      3  C   UNL     1       5.143  -4.627   6.851  0.00  0.00    +0.026 A 
ATOM      4  C   UNL     1       4.540  -5.749   7.441  0.00  0.00    +0.040 A 
ATOM      5  C   UNL     1       3.252  -6.193   7.060  0.00  0.00    -0.018 A 
ATOM      6  C   UNL     1       2.650  -5.548   5.999  0.00  0.00    +0.033 A 
ATOM      7  C   UNL     1       2.800  -7.260   7.998  0.00  0.00    +0.003 C 
ATOM      8  C   UNL     1       1.491  -6.539   8.300  0.00  0.00    -0.007 C 
ATOM      9  C   UNL     1       0.558  -7.203   7.205  0.00  0.00    -0.077 C 
ATOM     10  N   UNL     1       1.209  -8.454   6.734  0.00  0.00    +0.385 N 
ATOM     11  C   UNL     1       2.030  -8.575   7.968  0.00  0.00    -0.055 C 
ATOM     12  C   UNL     1       2.778  -9.884   8.002  0.00  0.00    -0.006 C 
ATOM     13  C   UNL     1       3.975  -9.707   7.090  0.00  0.00    +0.019 C 
ATOM     14  C   UNL     1       4.701  -8.454   7.514  0.00  0.00    +0.047 C 
ATOM     15  C   UNL     1       4.093  -7.606   8.670  0.00  0.00    +0.097 C 
ATOM     16  N   UNL     1       5.114  -6.548   8.371  0.00  0.00    -0.267 N 
ATOM     17  C   UNL     1       6.310  -6.668   8.980  0.00  0.00    +0.223 C 
ATOM     18  O   UNL     1       6.818  -5.903   9.759  0.00  0.00    -0.275 OA
ATOM     19  C   UNL     1       6.969  -7.987   8.481  0.00  0.00    +0.128 C 
ATOM     20  C   UNL     1       6.166  -8.377   7.259  0.00  0.00    +0.133 C 
ATOM     21  O   UNL     1       6.561  -9.392   6.370  0.00  0.00    -0.372 OA
ATOM     22  C   UNL     1       5.763  -9.704   5.261  0.00  0.00    +0.187 C 
ATOM     23  C   UNL     1       4.438  -9.166   4.902  0.00  0.00    -0.002 C 
ATOM     24  C   UNL     1       3.449  -9.104   5.764  0.00  0.00    -0.084 C 
ATOM     25  C   UNL     1       2.085  -8.544   5.593  0.00  0.00    -0.047 C 
ATOM     26  H   UNL     1       0.525  -9.210   6.702  0.00  0.00    -0.081 HD
ENDROOT
BRANCH   1  28
ATOM     27  C   UNL     1       2.573  -2.535   4.285  0.00  0.00    +0.119 C 
ATOM     28  N   UNL     1       2.630  -3.837   4.334  0.00  0.00    -0.255 NA
BRANCH  27  32
ATOM     29  C   UNL     1       0.625  -0.618   1.040  0.00  0.00    +0.120 A 
ATOM     30  C   UNL     1       1.202   0.144   2.050  0.00  0.00    +0.046 A 
ATOM     31  C   UNL     1       1.835  -0.474   3.106  0.00  0.00    +0.013 A 
ATOM     32  C   UNL     1       1.897  -1.871   3.160  0.00  0.00    -0.007 A 
ATOM     33  C   UNL     1       1.315  -2.633   2.141  0.00  0.00    +0.013 A 
ATOM     34  C   UNL     1       0.680  -2.006   1.093  0.00  0.00    +0.046 A 
BRANCH  29  36
ATOM     35  C   UNL     1      -0.017   1.425   0.010  0.00  0.00    +0.277 C 
ATOM     36  O   UNL     1       0.002  -0.004   0.002  0.00  0.00    -0.495 OA
ENDBRANCH  29  36
ENDBRANCH  27  32
ENDBRANCH   1  28
TORSDOF 3
