REMARK  Name = ZINC60360505
REMARK  6 active torsions:
REMARK  status: ('A' for Active; 'I' for Inactive)
REMARK    1  A    between atoms: C_2  and  C_3
REMARK    2  A    between atoms: C_3  and  N_4
REMARK    3  A    between atoms: C_5  and  C_7
REMARK    4  A    between atoms: C_7  and  N_13
REMARK    5  A    between atoms: C_14  and  C_16
REMARK    6  A    between atoms: C_20  and  N_22
REMARK                            x       y       z     vdW  Elec       q    Type
REMARK                         _______ _______ _______ _____ _____    ______ ____
ROOT
ATOM      1  C   UNL     1       0.268  -2.742  -5.086  0.00  0.00    +0.039 A 
ATOM      2  C   UNL     1      -0.500  -2.035  -6.013  0.00  0.00    +0.013 A 
ATOM      3  C   UNL     1       0.113  -1.184  -6.910  0.00  0.00    +0.003 A 
ATOM      4  C   UNL     1       1.486  -1.027  -6.894  0.00  0.00    +0.025 A 
ATOM      5  C   UNL     1       2.259  -1.726  -5.975  0.00  0.00    +0.057 A 
ATOM      6  C   UNL     1       1.653  -2.579  -5.066  0.00  0.00    +0.038 A 
ENDROOT
BRANCH   5   7
ATOM      7  N   UNL     1       3.649  -1.564  -5.963  0.00  0.00    -0.188 N 
ATOM      8  C   UNL     1       4.285  -1.319  -4.798  0.00  0.00    +0.240 C 
ATOM      9  O   UNL     1       3.658  -1.191  -3.767  0.00  0.00    -0.273 OA
ATOM     10  C   UNL     1       5.798  -1.207  -4.802  0.00  0.00    +0.093 C 
ATOM     11  C   UNL     1       6.150   0.198  -5.306  0.00  0.00    +0.040 C 
ATOM     12  C   UNL     1       7.581   0.274  -5.739  0.00  0.00    -0.030 C 
ATOM     13  C   UNL     1       8.317  -0.755  -6.008  0.00  0.00    -0.030 C 
ATOM     14  C   UNL     1       7.838  -2.172  -5.901  0.00  0.00    +0.040 C 
ATOM     15  C   UNL     1       6.325  -2.251  -5.795  0.00  0.00    +0.092 C 
ATOM     16  C   UNL     1       5.672  -2.027  -7.131  0.00  0.00    +0.234 C 
ATOM     17  O   UNL     1       6.298  -2.175  -8.160  0.00  0.00    -0.274 OA
ATOM     18  N   UNL     1       4.372  -1.663  -7.160  0.00  0.00    -0.227 N 
ATOM     19  H   UNL     1       3.941  -1.468  -8.007  0.00  0.00    +0.173 HD
ENDBRANCH   5   7
BRANCH   1  21
ATOM     20  N   UNL     1      -1.724  -3.811  -4.145  0.00  0.00    -0.297 N 
ATOM     21  C   UNL     1      -0.386  -3.655  -4.124  0.00  0.00    +0.245 C 
ATOM     22  O   UNL     1       0.284  -4.266  -3.314  0.00  0.00    -0.270 OA
ATOM     23  H   UNL     1      -2.265  -3.273  -4.744  0.00  0.00    +0.150 HD
BRANCH  20  24
ATOM     24  C   UNL     1      -2.361  -4.793  -3.265  0.00  0.00    +0.111 C 
ATOM     25  C   UNL     1      -1.861  -6.195  -3.618  0.00  0.00    +0.035 C 
ATOM     26  C   UNL     1      -2.213  -6.511  -5.073  0.00  0.00    +0.003 C 
ATOM     27  C   UNL     1      -3.731  -6.450  -5.256  0.00  0.00    +0.000 C 
ATOM     28  C   UNL     1      -4.231  -5.048  -4.902  0.00  0.00    +0.003 C 
ATOM     29  C   UNL     1      -3.879  -4.732  -3.447  0.00  0.00    +0.035 C 
BRANCH  24  31
ATOM     30  N   UNL     1      -1.854  -3.203  -1.439  0.00  0.00    -0.310 N 
ATOM     31  C   UNL     1      -2.015  -4.482  -1.831  0.00  0.00    +0.237 C 
ATOM     32  O   UNL     1      -1.881  -5.384  -1.031  0.00  0.00    -0.273 OA
ATOM     33  H   UNL     1      -1.890  -2.487  -2.093  0.00  0.00    +0.149 HD
BRANCH  30  34
ATOM     34  C   UNL     1      -1.626  -2.894  -0.025  0.00  0.00    +0.131 C 
BRANCH  34  36
ATOM     35  C   UNL     1      -2.248  -0.763   0.991  0.00  0.00    +0.005 C 
ATOM     36  C   UNL     1      -1.480  -1.403   0.145  0.00  0.00    -0.016 C 
ENDBRANCH  34  36
ENDBRANCH  30  34
ENDBRANCH  24  31
ENDBRANCH  20  24
ENDBRANCH   1  21
TORSDOF 6
