REMARK  Name = ZINC21356958
REMARK  8 active torsions:
REMARK  status: ('A' for Active; 'I' for Inactive)
REMARK    1  A    between atoms: C_1  and  C_2
REMARK    2  A    between atoms: C_5  and  C_8
REMARK    3  A    between atoms: C_15  and  N_20
REMARK    4  A    between atoms: N_20  and  S_21
REMARK    5  A    between atoms: S_21  and  C_24
REMARK    6  A    between atoms: C_26  and  C_34
REMARK    7  A    between atoms: C_29  and  N_30
REMARK    8  A    between atoms: C_31  and  C_33
REMARK                            x       y       z     vdW  Elec       q    Type
REMARK                         _______ _______ _______ _____ _____    ______ ____
ROOT
ATOM      1  C   UNL     1       3.684  -7.699  -3.792  0.00  0.00    +0.250 C 
ATOM      2  O   UNL     1       3.417  -8.276  -2.756  0.00  0.00    -0.270 OA
ATOM      3  N   UNL     1       3.094  -6.522  -4.079  0.00  0.00    -0.261 N 
ATOM      4  C   UNL     1       2.185  -5.970  -3.194  0.00  0.00    +0.166 A 
ATOM      5  N   UNL     1       1.515  -4.845  -3.296  0.00  0.00    -0.225 NA
ATOM      6  C   UNL     1       0.652  -4.425  -2.345  0.00  0.00    +0.082 A 
ATOM      7  C   UNL     1      -0.130  -3.246  -2.337  0.00  0.00    +0.053 A 
ATOM      8  C   UNL     1      -0.963  -2.964  -1.278  0.00  0.00    +0.050 A 
ATOM      9  C   UNL     1      -1.072  -3.829  -0.192  0.00  0.00    +0.026 A 
ATOM     10  C   UNL     1      -0.324  -4.991  -0.175  0.00  0.00    +0.019 A 
ATOM     11  C   UNL     1       0.513  -5.276  -1.226  0.00  0.00    +0.041 A 
ATOM     12  S   UNL     1       1.624  -6.605  -1.620  0.00  0.00    -0.052 S 
ATOM     13  H   UNL     1       3.336  -6.000  -5.017  0.00  0.00    +0.157 HD
ENDROOT
BRANCH   1  18
ATOM     14  C   UNL     1       7.465  -9.996  -7.472  0.00  0.00    +0.044 C 
ATOM     15  C   UNL     1       6.474  -9.395  -6.508  0.00  0.00    -0.050 A 
ATOM     16  C   UNL     1       6.173 -10.054  -5.330  0.00  0.00    +0.004 A 
ATOM     17  C   UNL     1       5.267  -9.509  -4.443  0.00  0.00    +0.013 A 
ATOM     18  C   UNL     1       4.655  -8.289  -4.737  0.00  0.00    +0.037 A 
ATOM     19  C   UNL     1       4.959  -7.632  -5.931  0.00  0.00    +0.013 A 
ATOM     20  C   UNL     1       5.871  -8.186  -6.806  0.00  0.00    +0.004 A 
ENDBRANCH   1  18
BRANCH   8  21
ATOM     21  N   UNL     1      -1.720  -1.787  -1.297  0.00  0.00    -0.216 N 
ATOM     22  H   UNL     1      -2.277  -1.506  -2.203  0.00  0.00    +0.174 HD
BRANCH  21  23
ATOM     23  S   UNL     1      -1.777  -0.819   0.045  0.00  0.00    +0.074 S 
ATOM     24  O   UNL     1      -2.110  -1.661   1.140  0.00  0.00    -0.150 OA
ATOM     25  O   UNL     1      -2.556   0.317  -0.306  0.00  0.00    -0.150 OA
BRANCH  23  26
ATOM     26  C   UNL     1      -0.140  -0.236   0.338  0.00  0.00    +0.130 A 
ATOM     27  C   UNL     1       0.524  -0.591   1.496  0.00  0.00    +0.034 A 
ATOM     28  C   UNL     1       1.808  -0.134   1.726  0.00  0.00    -0.048 A 
ATOM     29  C   UNL     1       2.433   0.679   0.797  0.00  0.00    +0.005 A 
ATOM     30  C   UNL     1       1.774   1.038  -0.362  0.00  0.00    +0.025 A 
ATOM     31  C   UNL     1       0.484   0.581  -0.596  0.00  0.00    +0.060 A 
ATOM     32  C   UNL     1       2.530  -0.524   2.990  0.00  0.00    +0.044 C 
BRANCH  31  33
ATOM     33  N   UNL     1      -0.186   0.942  -1.771  0.00  0.00    -0.284 N 
ATOM     34  C   UNL     1       0.118   2.099  -2.391  0.00  0.00    +0.214 C 
ATOM     35  O   UNL     1       1.021   2.792  -1.972  0.00  0.00    -0.276 OA
ATOM     36  C   UNL     1      -0.665   2.532  -3.603  0.00  0.00    +0.109 C 
ATOM     37  H   UNL     1      -0.960   0.281  -2.188  0.00  0.00    +0.155 HD
ENDBRANCH  31  33
ENDBRANCH  23  26
ENDBRANCH  21  23
ENDBRANCH   8  21
TORSDOF 5
