REMARK  Name = ZINC12805677
REMARK  9 active torsions:
REMARK  status: ('A' for Active; 'I' for Inactive)
REMARK    1  A    between atoms: C_4  and  S_11
REMARK    2  A    between atoms: C_5  and  C_7
REMARK    3  A    between atoms: S_11  and  N_14
REMARK    4  A    between atoms: N_17  and  C_20
REMARK    5  A    between atoms: C_20  and  C_21
REMARK    6  A    between atoms: C_21  and  C_23
REMARK    7  A    between atoms: C_21  and  O_32
REMARK    8  A    between atoms: C_23  and  O_24
REMARK    9  A    between atoms: O_24  and  C_25
REMARK                            x       y       z     vdW  Elec       q    Type
REMARK                         _______ _______ _______ _____ _____    ______ ____
ROOT
ATOM      1  N   UNL     1      -1.509  -0.084  -4.822  0.00  0.00    -0.174 NA
ATOM      2  C   UNL     1      -0.128   0.366  -4.590  0.00  0.00    +0.125 C 
ATOM      3  C   UNL     1       0.413  -0.346  -3.346  0.00  0.00    +0.101 C 
ATOM      4  N   UNL     1      -0.507  -0.129  -2.222  0.00  0.00    -0.297 NA
ATOM      5  C   UNL     1      -1.824  -0.722  -2.490  0.00  0.00    +0.101 C 
ATOM      6  C   UNL     1      -2.458  -0.025  -3.699  0.00  0.00    +0.125 C 
ENDROOT
BRANCH   1   7
ATOM      7  S   UNL     1      -1.984  -0.642  -6.307  0.00  0.00    +0.061 S 
ATOM      8  O   UNL     1      -3.403  -0.582  -6.329  0.00  0.00    -0.153 OA
ATOM      9  O   UNL     1      -1.178   0.025  -7.268  0.00  0.00    -0.153 OA
BRANCH   7  13
ATOM     10  C   UNL     1      -0.871  -5.025  -6.507  0.00  0.00    +0.001 A 
ATOM     11  C   UNL     1      -0.862  -4.365  -5.292  0.00  0.00    +0.002 A 
ATOM     12  C   UNL     1      -1.197  -3.025  -5.232  0.00  0.00    +0.029 A 
ATOM     13  C   UNL     1      -1.551  -2.349  -6.385  0.00  0.00    +0.117 A 
ATOM     14  C   UNL     1      -1.560  -3.009  -7.599  0.00  0.00    +0.081 A 
ATOM     15  C   UNL     1      -1.219  -4.348  -7.660  0.00  0.00    +0.014 A 
BRANCH  14  16
ATOM     16  C   UNL     1      -1.939  -2.270  -8.856  0.00  0.00    +0.419 C 
ATOM     17  F   UNL     1      -2.007  -3.171  -9.924  0.00  0.00    -0.166 F 
ATOM     18  F   UNL     1      -3.187  -1.661  -8.680  0.00  0.00    -0.166 F 
ATOM     19  F   UNL     1      -0.977  -1.292  -9.130  0.00  0.00    -0.166 F 
ENDBRANCH  14  16
ENDBRANCH   7  13
ENDBRANCH   1   7
BRANCH   4  20
ATOM     20  C   UNL     1       0.059  -0.648  -0.970  0.00  0.00    +0.119 C 
BRANCH  20  21
ATOM     21  C   UNL     1      -0.802  -0.189   0.208  0.00  0.00    +0.166 C 
BRANCH  21  22
ATOM     22  O   UNL     1      -0.825   1.240   0.253  0.00  0.00    -0.387 OA
ATOM     23  H   UNL     1      -1.397   1.756   1.037  0.00  0.00    +0.210 HD
ENDBRANCH  21  22
BRANCH  21  24
ATOM     24  C   UNL     1      -0.212  -0.730   1.512  0.00  0.00    +0.261 C 
BRANCH  24  25
ATOM     25  O   UNL     1      -1.078  -0.399   2.600  0.00  0.00    -0.489 OA
BRANCH  25  26
ATOM     26  C   UNL     1      -0.697  -0.810   3.839  0.00  0.00    +0.121 A 
ATOM     27  C   UNL     1       0.483  -1.521   4.002  0.00  0.00    +0.047 A 
ATOM     28  C   UNL     1       0.870  -1.933   5.263  0.00  0.00    +0.023 A 
ATOM     29  C   UNL     1       0.077  -1.646   6.360  0.00  0.00    +0.041 A 
ATOM     30  C   UNL     1      -1.103  -0.942   6.198  0.00  0.00    +0.023 A 
ATOM     31  C   UNL     1      -1.491  -0.523   4.940  0.00  0.00    +0.047 A 
ATOM     32 CL   UNL     1       0.563  -2.170   7.942  0.00  0.00    -0.084 Cl
ENDBRANCH  25  26
ENDBRANCH  24  25
ENDBRANCH  21  24
ENDBRANCH  20  21
ENDBRANCH   4  20
TORSDOF 9
