REMARK  Name = ZINC10786574
REMARK  5 active torsions:
REMARK  status: ('A' for Active; 'I' for Inactive)
REMARK    1  A    between atoms: C_1  and  C_2
REMARK    2  A    between atoms: C_2  and  C_31
REMARK    3  A    between atoms: C_10  and  C_12
REMARK    4  A    between atoms: N_18  and  S_19
REMARK    5  A    between atoms: S_19  and  C_22
REMARK                            x       y       z     vdW  Elec       q    Type
REMARK                         _______ _______ _______ _____ _____    ______ ____
ROOT
ATOM      1  C   UNL     1       2.039   4.075   0.143  0.00  0.00    +0.011 C 
ATOM      2  C   UNL     1       2.861   3.649  -1.075  0.00  0.00    -0.022 C 
ATOM      3  C   UNL     1       2.005   2.747  -1.968  0.00  0.00    +0.063 C 
ATOM      4  C   UNL     1       1.650   1.494  -1.177  0.00  0.00    +0.062 A 
ATOM      5  C   UNL     1       2.522   1.066  -0.166  0.00  0.00    +0.079 A 
ATOM      6  S   UNL     1       1.706  -0.373   0.456  0.00  0.00    -0.049 S 
ATOM      7  C   UNL     1       0.333  -0.320  -0.612  0.00  0.00    +0.165 A 
ATOM      8  N   UNL     1       0.580   0.756  -1.346  0.00  0.00    -0.229 NA
ATOM      9  N   UNL     1      -0.744  -1.184  -0.678  0.00  0.00    -0.263 N 
ATOM     10  C   UNL     1      -0.818  -2.234   0.163  0.00  0.00    +0.238 C 
ATOM     11  O   UNL     1       0.060  -2.421   0.978  0.00  0.00    -0.274 OA
ATOM     12  C   UNL     1       3.716   1.686   0.188  0.00  0.00    +0.172 C 
ATOM     13  O   UNL     1       4.407   1.259   1.092  0.00  0.00    -0.291 OA
ATOM     14  C   UNL     1       4.118   2.918  -0.601  0.00  0.00    +0.087 C 
ATOM     15  C   UNL     1       3.271   4.893  -1.865  0.00  0.00    +0.011 C 
ATOM     16  H   UNL     1      -1.446  -1.034  -1.330  0.00  0.00    +0.157 HD
ENDROOT
BRANCH  10  17
ATOM     17  C   UNL     1      -1.992  -3.176   0.091  0.00  0.00    +0.166 C 
ATOM     18  C   UNL     1      -2.775  -3.123   1.407  0.00  0.00    +0.030 C 
ATOM     19  C   UNL     1      -3.879  -4.183   1.381  0.00  0.00    +0.003 C 
ATOM     20  C   UNL     1      -3.255  -5.573   1.242  0.00  0.00    +0.017 C 
ATOM     21  C   UNL     1      -2.480  -5.651  -0.077  0.00  0.00    +0.110 C 
ATOM     22  N   UNL     1      -1.511  -4.548  -0.122  0.00  0.00    -0.164 NA
BRANCH  22  23
ATOM     23  S   UNL     1       0.093  -4.845  -0.406  0.00  0.00    +0.068 S 
ATOM     24  O   UNL     1       0.159  -6.071  -1.121  0.00  0.00    -0.152 OA
ATOM     25  O   UNL     1       0.646  -3.637  -0.912  0.00  0.00    -0.152 OA
BRANCH  23  26
ATOM     26  C   UNL     1       0.855  -5.131   1.157  0.00  0.00    +0.144 A 
ATOM     27  C   UNL     1       1.012  -6.298   1.828  0.00  0.00    +0.038 A 
ATOM     28  C   UNL     1       1.653  -6.286   3.053  0.00  0.00    +0.030 A 
ATOM     29  C   UNL     1       2.094  -5.104   3.552  0.00  0.00    +0.080 A 
ATOM     30  S   UNL     1       1.611  -3.959   2.271  0.00  0.00    -0.057 S 
ATOM     31 CL   UNL     1       2.916  -4.787   5.048  0.00  0.00    -0.076 Cl
ENDBRANCH  23  26
ENDBRANCH  22  23
ENDBRANCH  10  17
TORSDOF 3
