REMARK  Name = ZINC06073449
REMARK  11 active torsions:
REMARK  status: ('A' for Active; 'I' for Inactive)
REMARK    1  A    between atoms: N_19  and  N_20
REMARK    2  A    between atoms: C_21  and  C_22
REMARK    3  A    between atoms: C_22  and  C_24
REMARK    4  A    between atoms: C_22  and  O_35
REMARK    5  A    between atoms: C_24  and  C_26
REMARK    6  A    between atoms: C_24  and  O_34
REMARK    7  A    between atoms: C_26  and  C_28
REMARK    8  A    between atoms: C_26  and  O_33
REMARK    9  A    between atoms: C_28  and  C_30
REMARK   10  A    between atoms: C_28  and  O_32
REMARK   11  A    between atoms: C_30  and  O_31
REMARK                            x       y       z     vdW  Elec       q    Type
REMARK                         _______ _______ _______ _____ _____    ______ ____
ROOT
ATOM      1  C   UNL     1      -1.918   5.406  14.664  0.00  0.00    +0.003 C 
ATOM      2  C   UNL     1      -2.710   5.668  13.380  0.00  0.00    +0.019 C 
ATOM      3  C   UNL     1      -1.972   5.044  12.194  0.00  0.00    +0.108 C 
ATOM      4  N   UNL     1      -0.629   5.628  12.089  0.00  0.00    -0.299 N 
ATOM      5  C   UNL     1       0.167   5.349  13.291  0.00  0.00    +0.108 C 
ATOM      6  C   UNL     1      -0.507   5.982  14.510  0.00  0.00    +0.019 C 
ATOM      7  C   UNL     1       0.017   5.183  10.954  0.00  0.00    +0.224 A 
ATOM      8  N   UNL     1      -0.593   4.336  10.131  0.00  0.00    -0.180 NA
ATOM      9  C   UNL     1       0.030   3.907   9.037  0.00  0.00    +0.241 A 
ATOM     10  N   UNL     1       1.264   4.322   8.769  0.00  0.00    -0.180 NA
ATOM     11  C   UNL     1       1.872   5.173   9.589  0.00  0.00    +0.224 A 
ATOM     12  N   UNL     1       1.250   5.602  10.683  0.00  0.00    -0.181 NA
ATOM     13  N   UNL     1       3.151   5.608   9.308  0.00  0.00    -0.299 N 
ATOM     14  C   UNL     1       3.209   7.074   9.257  0.00  0.00    +0.108 C 
ATOM     15  C   UNL     1       4.663   7.523   9.089  0.00  0.00    +0.019 C 
ATOM     16  C   UNL     1       5.229   6.927   7.798  0.00  0.00    +0.003 C 
ATOM     17  C   UNL     1       5.113   5.401   7.855  0.00  0.00    +0.019 C 
ATOM     18  C   UNL     1       3.646   5.014   8.059  0.00  0.00    +0.108 C 
ATOM     19  N   UNL     1      -0.604   3.026   8.183  0.00  0.00    -0.205 N 
ATOM     20  H   UNL     1      -1.503   2.720   8.381  0.00  0.00    +0.177 HD
ENDROOT
BRANCH  19  21
ATOM     21  N   UNL     1       0.052   2.574   7.030  0.00  0.00    -0.190 NA
ATOM     22  C   UNL     1      -0.535   1.757   6.238  0.00  0.00    +0.137 C 
BRANCH  22  23
ATOM     23  C   UNL     1       0.170   1.271   4.998  0.00  0.00    +0.188 C 
BRANCH  23  24
ATOM     24  O   UNL     1       1.470   1.859   4.929  0.00  0.00    -0.384 OA
ATOM     25  H   UNL     1       1.464   2.825   4.893  0.00  0.00    +0.210 HD
ENDBRANCH  23  24
BRANCH  23  26
ATOM     26  C   UNL     1      -0.637   1.672   3.762  0.00  0.00    +0.179 C 
BRANCH  26  27
ATOM     27  O   UNL     1      -1.938   1.084   3.831  0.00  0.00    -0.386 OA
ATOM     28  H   UNL     1      -1.932   0.118   3.867  0.00  0.00    +0.210 HD
ENDBRANCH  26  27
BRANCH  26  29
ATOM     29  C   UNL     1       0.079   1.179   2.503  0.00  0.00    +0.176 C 
BRANCH  29  30
ATOM     30  O   UNL     1       1.379   1.766   2.434  0.00  0.00    -0.386 OA
ATOM     31  H   UNL     1       1.373   2.733   2.398  0.00  0.00    +0.210 HD
ENDBRANCH  29  30
BRANCH  29  32
ATOM     32  C   UNL     1      -0.729   1.579   1.267  0.00  0.00    +0.171 C 
BRANCH  32  33
ATOM     33  O   UNL     1      -2.030   0.991   1.336  0.00  0.00    -0.387 OA
ATOM     34  H   UNL     1      -2.023   0.025   1.372  0.00  0.00    +0.210 HD
ENDBRANCH  32  33
BRANCH  32  35
ATOM     35  C   UNL     1      -0.013   1.086   0.008  0.00  0.00    +0.189 C 
BRANCH  35  36
ATOM     36  O   UNL     1      -0.704   1.559  -1.150  0.00  0.00    -0.392 OA
ATOM     37  H   UNL     1      -0.304   1.284  -1.986  0.00  0.00    +0.210 HD
ENDBRANCH  35  36
ENDBRANCH  32  35
ENDBRANCH  29  32
ENDBRANCH  26  29
ENDBRANCH  23  26
ENDBRANCH  22  23
ENDBRANCH  19  21
TORSDOF 11
