REMARK  Name = ZINC20758915
REMARK  6 active torsions:
REMARK  status: ('A' for Active; 'I' for Inactive)
REMARK    1  A    between atoms: C_1  and  N_2
REMARK    2  A    between atoms: N_5  and  S_8
REMARK    3  A    between atoms: S_8  and  C_11
REMARK    4  A    between atoms: C_24  and  C_27
REMARK    5  A    between atoms: C_30  and  S_33
REMARK    6  A    between atoms: S_33  and  C_34
REMARK                            x       y       z     vdW  Elec       q    Type
REMARK                         _______ _______ _______ _____ _____    ______ ____
ROOT
ATOM      1  C   UNL     1      -0.580   4.566  -0.496  0.00  0.00    +0.106 A 
ATOM      2  C   UNL     1      -0.985   3.248  -0.392  0.00  0.00    +0.030 A 
ATOM      3  C   UNL     1      -0.048   2.245  -0.247  0.00  0.00    +0.025 A 
ATOM      4  C   UNL     1       1.307   2.551  -0.210  0.00  0.00    +0.031 A 
ATOM      5  C   UNL     1       1.709   3.888  -0.311  0.00  0.00    -0.018 A 
ATOM      6  C   UNL     1       0.765   4.882  -0.459  0.00  0.00    +0.034 A 
ATOM      7  C   UNL     1       3.158   4.172  -0.241  0.00  0.00    +0.049 C 
ATOM      8  C   UNL     1       3.756   5.378  -0.869  0.00  0.00    -0.023 C 
ATOM      9  C   UNL     1       4.995   5.088  -1.247  0.00  0.00    -0.030 C 
ATOM     10  C   UNL     1       5.320   3.609  -0.944  0.00  0.00    +0.033 C 
ATOM     11  C   UNL     1       3.913   2.997  -0.930  0.00  0.00    +0.029 C 
ATOM     12  C   UNL     1       3.692   1.792  -0.033  0.00  0.00    +0.105 C 
ATOM     13  N   UNL     1       2.240   1.514  -0.088  0.00  0.00    -0.336 N 
ATOM     14  H   UNL     1       1.876   0.478  -0.032  0.00  0.00    +0.147 HD
ENDROOT
BRANCH  12  15
ATOM     15  C   UNL     1       4.108   2.112   1.380  0.00  0.00    -0.027 A 
ATOM     16  C   UNL     1       5.409   1.879   1.786  0.00  0.00    +0.006 A 
ATOM     17  C   UNL     1       5.795   2.175   3.078  0.00  0.00    +0.015 A 
ATOM     18  C   UNL     1       4.871   2.699   3.974  0.00  0.00    +0.008 A 
ATOM     19  C   UNL     1       3.563   2.928   3.564  0.00  0.00    +0.015 A 
ATOM     20  C   UNL     1       3.186   2.634   2.269  0.00  0.00    +0.006 A 
BRANCH  18  21
ATOM     21  S   UNL     1       5.357   3.073   5.626  0.00  0.00    -0.129 S 
ATOM     22  C   UNL     1       7.111   2.615   5.681  0.00  0.00    +0.090 C 
ENDBRANCH  18  21
ENDBRANCH  12  15
BRANCH   1  23
ATOM     23  S   UNL     1      -1.780   5.844  -0.683  0.00  0.00    +0.061 S 
ATOM     24  O   UNL     1      -2.994   5.343  -0.141  0.00  0.00    -0.153 OA
ATOM     25  O   UNL     1      -1.174   7.041  -0.216  0.00  0.00    -0.153 OA
BRANCH  23  30
ATOM     26  C   UNL     1      -1.303   5.081  -6.326  0.00  0.00    -0.096 C 
ATOM     27  N   UNL     1      -1.773   5.641  -5.052  0.00  0.00    +0.380 N 
ATOM     28  C   UNL     1      -2.441   4.615  -4.240  0.00  0.00    -0.062 C 
ATOM     29  C   UNL     1      -3.072   5.274  -3.009  0.00  0.00    +0.091 C 
ATOM     30  N   UNL     1      -2.034   6.043  -2.307  0.00  0.00    -0.180 NA
ATOM     31  C   UNL     1      -1.231   7.000  -3.085  0.00  0.00    +0.091 C 
ATOM     32  C   UNL     1      -0.668   6.269  -4.314  0.00  0.00    -0.062 C 
ATOM     33  H   UNL     1      -2.512   6.424  -5.277  0.00  0.00    -0.082 HD
ENDBRANCH  23  30
ENDBRANCH   1  23
TORSDOF 4
