REMARK  Name = ZINC39357558
REMARK  3 active torsions:
REMARK  status: ('A' for Active; 'I' for Inactive)
REMARK    1  A    between atoms: C_4  and  N_11
REMARK    2  A    between atoms: C_5  and  C_7
REMARK    3  A    between atoms: N_12  and  C_13
REMARK                            x       y       z     vdW  Elec       q    Type
REMARK                         _______ _______ _______ _____ _____    ______ ____
ROOT
ATOM      1  C   UNL     1      -0.017   1.379   0.010  0.00  0.00    +0.001 A 
ATOM      2  C   UNL     1       1.169   2.094   0.002  0.00  0.00    +0.002 A 
ATOM      3  C   UNL     1       2.377   1.430  -0.013  0.00  0.00    +0.030 A 
ATOM      4  C   UNL     1       2.404   0.034  -0.021  0.00  0.00    +0.098 A 
ATOM      5  C   UNL     1       1.204  -0.681  -0.013  0.00  0.00    +0.082 A 
ATOM      6  C   UNL     1       0.002  -0.004   0.002  0.00  0.00    +0.014 A 
ENDROOT
BRANCH   5   7
ATOM      7  C   UNL     1       1.223  -2.188  -0.022  0.00  0.00    +0.419 C 
ATOM      8  F   UNL     1      -0.090  -2.670  -0.012  0.00  0.00    -0.166 F 
ATOM      9  F   UNL     1       1.877  -2.639  -1.173  0.00  0.00    -0.166 F 
ATOM     10  F   UNL     1       1.899  -2.652   1.111  0.00  0.00    -0.166 F 
ENDBRANCH   5   7
BRANCH   4  11
ATOM     11  N   UNL     1       3.601  -0.632  -0.036  0.00  0.00    -0.150 NA
ATOM     12  N   UNL     1       4.665   0.005  -0.043  0.00  0.00    -0.136 NA
BRANCH  12  13
ATOM     13  C   UNL     1       5.945  -0.707  -0.060  0.00  0.00    +0.362 C 
ATOM     14  N   UNL     1       6.768  -0.294   1.085  0.00  0.00    -0.241 NA
ATOM     15  C   UNL     1       7.848   0.229   0.610  0.00  0.00    +0.129 C 
ATOM     16  C   UNL     1       7.812   0.198  -0.861  0.00  0.00    +0.129 C 
ATOM     17  N   UNL     1       6.711  -0.343  -1.259  0.00  0.00    -0.241 NA
ENDBRANCH  12  13
ENDBRANCH   4  11
TORSDOF 3
