REMARK  Name = ZINC64173468
REMARK  7 active torsions:
REMARK  status: ('A' for Active; 'I' for Inactive)
REMARK    1  A    between atoms: C_1  and  O_2
REMARK    2  A    between atoms: O_2  and  C_3
REMARK    3  A    between atoms: C_6  and  N_9
REMARK    4  A    between atoms: N_9  and  S_10
REMARK    5  A    between atoms: S_10  and  C_13
REMARK    6  A    between atoms: C_17  and  C_19
REMARK    7  A    between atoms: C_24  and  C_27
REMARK                            x       y       z     vdW  Elec       q    Type
REMARK                         _______ _______ _______ _____ _____    ______ ____
ROOT
ATOM      1  C   UNL     1      -4.093  -5.647  -0.874  0.00  0.00    +0.109 A 
ATOM      2  C   UNL     1      -2.858  -5.048  -0.694  0.00  0.00    +0.029 A 
ATOM      3  C   UNL     1      -2.029  -5.456   0.335  0.00  0.00    +0.003 A 
ATOM      4  C   UNL     1      -2.427  -6.464   1.188  0.00  0.00    +0.013 A 
ATOM      5  C   UNL     1      -3.671  -7.072   1.012  0.00  0.00    +0.039 A 
ATOM      6  C   UNL     1      -4.506  -6.652  -0.024  0.00  0.00    +0.041 A 
ENDROOT
BRANCH   5   7
ATOM      7  C   UNL     1      -4.104  -8.154   1.923  0.00  0.00    +0.247 C 
ATOM      8  O   UNL     1      -5.238  -8.162   2.359  0.00  0.00    -0.270 OA
ATOM      9  N   UNL     1      -3.241  -9.129   2.269  0.00  0.00    -0.293 N 
ATOM     10  C   UNL     1      -3.669 -10.273   3.093  0.00  0.00    +0.113 C 
ATOM     11  C   UNL     1      -3.502 -11.546   2.260  0.00  0.00    +0.054 C 
ATOM     12  C   UNL     1      -2.168 -11.550   1.573  0.00  0.00    -0.043 C 
ATOM     13  C   UNL     1      -1.427 -10.466   1.377  0.00  0.00    -0.004 C 
ATOM     14  C   UNL     1      -1.837  -9.097   1.834  0.00  0.00    +0.135 C 
BRANCH  12  15
ATOM     15  C   UNL     1      -1.669 -12.783   1.108  0.00  0.00    -0.016 C 
ATOM     16  C   UNL     1      -2.326 -14.007   1.104  0.00  0.00    +0.003 A 
ATOM     17  C   UNL     1      -3.615 -14.401   1.531  0.00  0.00    +0.010 A 
ATOM     18  C   UNL     1      -4.000 -15.695   1.404  0.00  0.00    +0.001 A 
ATOM     19  C   UNL     1      -3.150 -16.662   0.857  0.00  0.00    +0.002 A 
ATOM     20  C   UNL     1      -1.903 -16.358   0.427  0.00  0.00    +0.026 A 
ATOM     21  C   UNL     1      -1.427 -15.023   0.527  0.00  0.00    +0.043 A 
ATOM     22  N   UNL     1      -0.278 -14.481   0.188  0.00  0.00    -0.380 N 
ATOM     23  C   UNL     1      -0.308 -13.049   0.502  0.00  0.00    +0.149 C 
ATOM     24  H   UNL     1       0.470 -14.952  -0.212  0.00  0.00    +0.160 HD
ENDBRANCH  12  15
ENDBRANCH   5   7
BRANCH   1  25
ATOM     25  S   UNL     1      -5.143  -5.120  -2.187  0.00  0.00    +0.072 S 
ATOM     26  O   UNL     1      -6.093  -6.157  -2.389  0.00  0.00    -0.150 OA
ATOM     27  O   UNL     1      -4.292  -4.654  -3.225  0.00  0.00    -0.150 OA
BRANCH  25  28
ATOM     28  N   UNL     1      -5.987  -3.804  -1.641  0.00  0.00    -0.216 N 
ATOM     29  H   UNL     1      -5.884  -2.945  -2.079  0.00  0.00    +0.174 HD
BRANCH  28  33
ATOM     30  C   UNL     1      -8.557  -4.183   1.619  0.00  0.00    +0.120 A 
ATOM     31  C   UNL     1      -7.677  -3.114   1.551  0.00  0.00    +0.047 A 
ATOM     32  C   UNL     1      -6.825  -2.987   0.471  0.00  0.00    +0.028 A 
ATOM     33  C   UNL     1      -6.850  -3.932  -0.546  0.00  0.00    +0.048 A 
ATOM     34  C   UNL     1      -7.731  -5.002  -0.478  0.00  0.00    +0.028 A 
ATOM     35  C   UNL     1      -8.579  -5.130   0.605  0.00  0.00    +0.047 A 
BRANCH  30  37
ATOM     36  C   UNL     1      -9.321  -3.296   3.689  0.00  0.00    +0.277 C 
ATOM     37  O   UNL     1      -9.396  -4.307   2.682  0.00  0.00    -0.495 OA
ENDBRANCH  30  37
ENDBRANCH  28  33
ENDBRANCH  25  28
ENDBRANCH   1  25
TORSDOF 6
