REMARK  Name = ZINC23260230
REMARK  6 active torsions:
REMARK  status: ('A' for Active; 'I' for Inactive)
REMARK    1  A    between atoms: C_1  and  C_2
REMARK    2  A    between atoms: C_4  and  C_22
REMARK    3  A    between atoms: C_6  and  C_19
REMARK    4  A    between atoms: N_9  and  C_11
REMARK    5  A    between atoms: C_22  and  N_24
REMARK    6  A    between atoms: N_26  and  C_30
REMARK                            x       y       z     vdW  Elec       q    Type
REMARK                         _______ _______ _______ _____ _____    ______ ____
ROOT
ATOM      1  C   UNL     1       2.582  -4.565  -2.831  0.00  0.00    +0.068 C 
ATOM      2  C   UNL     1       2.104  -3.729  -1.672  0.00  0.00    +0.070 A 
ATOM      3  C   UNL     1       2.260  -4.048  -0.306  0.00  0.00    +0.054 A 
ATOM      4  C   UNL     1       2.847  -5.130   0.386  0.00  0.00    +0.053 A 
ATOM      5  C   UNL     1       2.814  -5.107   1.778  0.00  0.00    +0.037 A 
ATOM      6  C   UNL     1       2.214  -4.038   2.426  0.00  0.00    +0.047 A 
ATOM      7  N   UNL     1       1.674  -3.042   1.760  0.00  0.00    -0.232 NA
ATOM      8  C   UNL     1       1.677  -3.001   0.434  0.00  0.00    +0.160 A 
ATOM      9  N   UNL     1       1.190  -2.106  -0.481  0.00  0.00    -0.241 N 
ATOM     10  N   UNL     1       1.477  -2.591  -1.763  0.00  0.00    -0.174 NA
ENDROOT
BRANCH   9  11
ATOM     11  C   UNL     1       0.494  -0.854  -0.173  0.00  0.00    +0.132 C 
ATOM     12  C   UNL     1       1.262   0.331  -0.783  0.00  0.00    +0.051 C 
ATOM     13  C   UNL     1       0.385   1.605  -0.744  0.00  0.00    +0.168 C 
ATOM     14  S   UNL     1      -1.322   0.923  -0.813  0.00  0.00    -0.029 S 
ATOM     15  O   UNL     1      -1.903   1.257  -2.066  0.00  0.00    -0.174 OA
ATOM     16  O   UNL     1      -2.004   1.260   0.387  0.00  0.00    -0.174 OA
ATOM     17  C   UNL     1      -0.931  -0.878  -0.794  0.00  0.00    +0.192 C 
ENDBRANCH   9  11
BRANCH   6  18
ATOM     18  C   UNL     1       2.181  -4.018   3.933  0.00  0.00    +0.038 C 
ATOM     19  C   UNL     1       2.462  -5.333   4.663  0.00  0.00    +0.010 C 
ATOM     20  C   UNL     1       1.040  -4.768   4.624  0.00  0.00    +0.010 C 
ENDBRANCH   6  18
BRANCH   4  21
ATOM     21  C   UNL     1       3.478  -6.253  -0.345  0.00  0.00    +0.270 C 
ATOM     22  O   UNL     1       3.095  -7.395  -0.157  0.00  0.00    -0.268 OA
BRANCH  21  23
ATOM     23  N   UNL     1       4.467  -6.014  -1.209  0.00  0.00    -0.152 NA
ATOM     24  C   UNL     1       5.616  -6.681  -1.108  0.00  0.00    +0.165 A 
ATOM     25  N   UNL     1       6.032  -7.525  -0.121  0.00  0.00    -0.331 N 
ATOM     26  C   UNL     1       7.257  -8.102  -0.223  0.00  0.00    +0.094 A 
ATOM     27  C   UNL     1       8.013  -7.822  -1.290  0.00  0.00    +0.066 A 
ATOM     28  S   UNL     1       6.963  -6.702  -2.201  0.00  0.00    -0.061 S 
ATOM     29  C   UNL     1       5.171  -7.805   1.032  0.00  0.00    +0.150 C 
ENDBRANCH  21  23
ENDBRANCH   4  21
TORSDOF 4
