REMARK  Name = ZINC49185980
REMARK  4 active torsions:
REMARK  status: ('A' for Active; 'I' for Inactive)
REMARK    1  A    between atoms: C_1  and  C_2
REMARK    2  A    between atoms: C_4  and  C_9
REMARK    3  A    between atoms: C_7  and  N_8
REMARK    4  A    between atoms: N_13  and  C_14
REMARK                            x       y       z     vdW  Elec       q    Type
REMARK                         _______ _______ _______ _____ _____    ______ ____
ROOT
ATOM      1  C   UNL     1      -0.300  -2.969  -2.466  0.00  0.00    +0.187 A 
ATOM      2  N   UNL     1      -0.529  -2.432  -3.647  0.00  0.00    -0.108 NA
ATOM      3  N   UNL     1      -0.013  -3.152  -4.576  0.00  0.00    -0.022 NA
ATOM      4  N   UNL     1       0.575  -4.185  -4.077  0.00  0.00    -0.039 NA
ATOM      5  N   UNL     1       0.419  -4.108  -2.681  0.00  0.00    -0.192 N 
ENDROOT
BRANCH   5   6
ATOM      6  C   UNL     1       0.898  -5.009  -1.720  0.00  0.00    +0.083 A 
ATOM      7  C   UNL     1       1.760  -4.571  -0.724  0.00  0.00    +0.030 A 
ATOM      8  C   UNL     1       2.230  -5.460   0.222  0.00  0.00    +0.017 A 
ATOM      9  C   UNL     1       1.842  -6.788   0.179  0.00  0.00    +0.019 A 
ATOM     10  C   UNL     1       0.983  -7.228  -0.812  0.00  0.00    +0.032 A 
ATOM     11  C   UNL     1       0.505  -6.341  -1.758  0.00  0.00    +0.044 A 
ATOM     12 BR   UNL     1      -0.676  -6.941  -3.108  0.00  0.00    -0.048 Br
ATOM     13 BR   UNL     1       2.487  -8.003   1.476  0.00  0.00    -0.050 Br
ENDBRANCH   5   6
BRANCH   1  17
ATOM     14  C   UNL     1      -1.867   0.857   0.326  0.00  0.00    +0.045 C 
ATOM     15  C   UNL     1      -1.488  -0.596   0.189  0.00  0.00    -0.029 A 
ATOM     16  C   UNL     1      -1.084  -1.090  -1.032  0.00  0.00    +0.016 A 
ATOM     17  C   UNL     1      -0.733  -2.435  -1.157  0.00  0.00    +0.021 A 
ATOM     18  C   UNL     1      -0.793  -3.276  -0.044  0.00  0.00    +0.013 A 
ATOM     19  C   UNL     1      -1.198  -2.777   1.174  0.00  0.00    +0.023 A 
ATOM     20  C   UNL     1      -1.541  -1.434   1.297  0.00  0.00    +0.028 A 
BRANCH  20  21
ATOM     21  N   UNL     1      -1.945  -0.930   2.533  0.00  0.00    -0.358 N 
ATOM     22  H   UNL     1      -2.189   0.005   2.619  0.00  0.00    +0.142 HD
ATOM     23  H   UNL     1      -1.983  -1.514   3.306  0.00  0.00    +0.142 HD
ENDBRANCH  20  21
ENDBRANCH   1  17
TORSDOF 3
