REMARK  Name = ZINC09490797
REMARK  7 active torsions:
REMARK  status: ('A' for Active; 'I' for Inactive)
REMARK    1  A    between atoms: C_1  and  O_2
REMARK    2  A    between atoms: O_2  and  C_3
REMARK    3  A    between atoms: C_8  and  N_9
REMARK    4  A    between atoms: N_12  and  S_15
REMARK    5  A    between atoms: S_15  and  C_18
REMARK    6  A    between atoms: C_22  and  C_24
REMARK    7  A    between atoms: N_26  and  C_27
REMARK                            x       y       z     vdW  Elec       q    Type
REMARK                         _______ _______ _______ _____ _____    ______ ____
ROOT
ATOM      1  C   UNL     1       0.502  -0.882  -0.319  0.00  0.00    +0.106 A 
ATOM      2  C   UNL     1       1.619  -0.081  -0.483  0.00  0.00    +0.031 A 
ATOM      3  C   UNL     1       1.479   1.243  -0.855  0.00  0.00    +0.041 A 
ATOM      4  C   UNL     1       0.220   1.776  -1.066  0.00  0.00    +0.136 A 
ATOM      5  C   UNL     1      -0.911   0.970  -0.901  0.00  0.00    +0.074 A 
ATOM      6  C   UNL     1      -0.760  -0.366  -0.525  0.00  0.00    +0.044 A 
ATOM      7  F   UNL     1       0.083   3.070  -1.431  0.00  0.00    -0.205 F 
ENDROOT
BRANCH   5   8
ATOM      8  C   UNL     1      -2.259   1.528  -1.130  0.00  0.00    +0.251 C 
ATOM      9  O   UNL     1      -2.388   2.692  -1.458  0.00  0.00    -0.270 OA
ATOM     10  N   UNL     1      -3.347   0.748  -0.975  0.00  0.00    -0.280 N 
ATOM     11  H   UNL     1      -3.252  -0.155  -0.632  0.00  0.00    +0.155 HD
BRANCH  10  12
ATOM     12  C   UNL     1      -4.614   1.239  -1.310  0.00  0.00    +0.052 A 
ATOM     13  C   UNL     1      -4.735   2.333  -2.155  0.00  0.00    +0.025 A 
ATOM     14  C   UNL     1      -5.987   2.812  -2.488  0.00  0.00    +0.002 A 
ATOM     15  C   UNL     1      -7.119   2.210  -1.972  0.00  0.00    +0.002 A 
ATOM     16  C   UNL     1      -7.003   1.123  -1.125  0.00  0.00    +0.022 A 
ATOM     17  C   UNL     1      -5.753   0.635  -0.792  0.00  0.00    +0.062 A 
ATOM     18 CL   UNL     1      -5.608  -0.729   0.272  0.00  0.00    -0.082 Cl
ENDBRANCH  10  12
ENDBRANCH   5   8
BRANCH   1  19
ATOM     19  S   UNL     1       0.694  -2.568   0.155  0.00  0.00    +0.061 S 
ATOM     20  O   UNL     1       1.948  -2.664   0.818  0.00  0.00    -0.153 OA
ATOM     21  O   UNL     1      -0.525  -2.958   0.773  0.00  0.00    -0.153 OA
BRANCH  19  25
ATOM     22  N   UNL     1       0.941  -4.024  -3.962  0.00  0.00    -0.325 N 
ATOM     23  C   UNL     1       2.068  -3.325  -3.329  0.00  0.00    +0.122 C 
ATOM     24  C   UNL     1       2.137  -3.712  -1.848  0.00  0.00    +0.128 C 
ATOM     25  N   UNL     1       0.825  -3.457  -1.236  0.00  0.00    -0.174 NA
ATOM     26  C   UNL     1      -0.369  -4.016  -1.890  0.00  0.00    +0.128 C 
ATOM     27  C   UNL     1      -0.340  -3.612  -3.372  0.00  0.00    +0.122 C 
BRANCH  22  33
ATOM     28  C   UNL     1       1.967  -4.356  -6.128  0.00  0.00    +0.141 A 
ATOM     29  C   UNL     1       1.963  -4.156  -7.499  0.00  0.00    +0.047 A 
ATOM     30  C   UNL     1       0.944  -3.432  -8.089  0.00  0.00    +0.004 A 
ATOM     31  C   UNL     1      -0.073  -2.905  -7.315  0.00  0.00    +0.002 A 
ATOM     32  C   UNL     1      -0.080  -3.104  -5.948  0.00  0.00    +0.027 A 
ATOM     33  C   UNL     1       0.942  -3.825  -5.347  0.00  0.00    +0.072 A 
BRANCH  28  35
ATOM     34  C   UNL     1       3.985  -5.583  -6.408  0.00  0.00    +0.277 C 
ATOM     35  O   UNL     1       2.968  -5.069  -5.546  0.00  0.00    -0.493 OA
ENDBRANCH  28  35
ENDBRANCH  22  33
ENDBRANCH  19  25
ENDBRANCH   1  19
TORSDOF 6
