REMARK  Name = ZINC36564083
REMARK  17 active torsions:
REMARK  status: ('A' for Active; 'I' for Inactive)
REMARK    1  A    between atoms: C_1  and  C_2
REMARK    2  A    between atoms: C_2  and  C_3
REMARK    3  A    between atoms: C_3  and  C_4
REMARK    4  A    between atoms: C_4  and  C_5
REMARK    5  A    between atoms: C_5  and  C_7
REMARK    6  A    between atoms: C_5  and  C_9
REMARK    7  A    between atoms: C_7  and  C_8
REMARK    8  A    between atoms: N_11  and  C_12
REMARK    9  A    between atoms: N_11  and  C_15
REMARK   10  A    between atoms: C_12  and  C_13
REMARK   11  A    between atoms: C_13  and  C_14
REMARK   12  A    between atoms: C_15  and  C_17
REMARK   13  A    between atoms: C_15  and  C_23
REMARK   14  A    between atoms: N_25  and  C_26
REMARK   15  A    between atoms: C_26  and  C_27
REMARK   16  A    between atoms: C_27  and  C_28
REMARK   17  A    between atoms: C_28  and  C_29
REMARK                            x       y       z     vdW  Elec       q    Type
REMARK                         _______ _______ _______ _____ _____    ______ ____
ROOT
ATOM      1  C   UNL     1      -3.544  -6.548  -1.282  0.00  0.00    +0.165 C 
ENDROOT
BRANCH   1   2
ATOM      2  C   UNL     1      -4.551  -7.623  -0.868  0.00  0.00    +0.018 C 
ATOM      3  C   UNL     1      -4.763  -7.567   0.646  0.00  0.00    +0.006 C 
ATOM      4  C   UNL     1      -5.770  -8.643   1.060  0.00  0.00    +0.000 C 
ATOM      5  C   UNL     1      -5.232 -10.021   0.671  0.00  0.00    +0.000 C 
ATOM      6  C   UNL     1      -5.019 -10.077  -0.844  0.00  0.00    +0.000 C 
ATOM      7  C   UNL     1      -4.013  -9.002  -1.257  0.00  0.00    +0.006 C 
ENDBRANCH   1   2
BRANCH   1   8
ATOM      8  C   UNL     1      -3.247  -6.677  -2.753  0.00  0.00    +0.234 C 
ATOM      9  O   UNL     1      -3.775  -5.926  -3.547  0.00  0.00    -0.274 OA
ATOM     10  N   UNL     1      -2.395  -7.626  -3.188  0.00  0.00    -0.314 N 
ATOM     11  H   UNL     1      -1.916  -8.177  -2.550  0.00  0.00    +0.149 HD
BRANCH  10  12
ATOM     12  C   UNL     1      -2.193  -7.827  -4.625  0.00  0.00    +0.104 C 
BRANCH  12  13
ATOM     13  C   UNL     1      -1.184  -8.956  -4.846  0.00  0.00    +0.018 C 
BRANCH  13  14
ATOM     14  C   UNL     1      -0.973  -9.165  -6.347  0.00  0.00    -0.002 C 
ATOM     15  C   UNL     1       0.036 -10.294  -6.567  0.00  0.00    +0.004 C 
ENDBRANCH  13  14
ENDBRANCH  12  13
ENDBRANCH  10  12
ENDBRANCH   1   8
BRANCH   1  18
ATOM     16  C   UNL     1      -3.462  -4.371  -0.189  0.00  0.00    +0.219 C 
ATOM     17  O   UNL     1      -3.971  -3.310   0.105  0.00  0.00    -0.275 OA
ATOM     18  N   UNL     1      -4.107  -5.222  -1.012  0.00  0.00    -0.289 N 
BRANCH  16  19
ATOM     19  C   UNL     1      -2.110  -4.738   0.365  0.00  0.00    +0.075 C 
BRANCH  19  20
ATOM     20  C   UNL     1      -1.018  -4.249  -0.590  0.00  0.00    +0.009 C 
ATOM     21  C   UNL     1      -1.107  -5.024  -1.906  0.00  0.00    +0.004 C 
ENDBRANCH  19  20
BRANCH  19  22
ATOM     22  C   UNL     1      -1.923  -4.079   1.733  0.00  0.00    +0.013 C 
BRANCH  22  23
ATOM     23  C   UNL     1      -0.610  -4.558   2.355  0.00  0.00    +0.000 C 
BRANCH  23  25
ATOM     24  C   UNL     1       0.936  -4.307   4.302  0.00  0.00    +0.004 C 
ATOM     25  C   UNL     1      -0.377  -3.828   3.679  0.00  0.00    -0.003 C 
ENDBRANCH  23  25
ENDBRANCH  22  23
ENDBRANCH  19  22
ENDBRANCH  16  19
BRANCH  18  26
ATOM     26  C   UNL     1      -5.371  -4.822  -1.636  0.00  0.00    +0.108 C 
BRANCH  26  27
ATOM     27  C   UNL     1      -6.526  -5.098  -0.671  0.00  0.00    +0.016 C 
ATOM     28  C   UNL     1      -7.849  -4.717  -1.337  0.00  0.00    +0.005 C 
ENDBRANCH  26  27
ENDBRANCH  18  26
ENDBRANCH   1  18
TORSDOF 13
