REMARK  Name = ZINC40988401
REMARK  7 active torsions:
REMARK  status: ('A' for Active; 'I' for Inactive)
REMARK    1  A    between atoms: C_1  and  C_2
REMARK    2  A    between atoms: C_5  and  C_8
REMARK    3  A    between atoms: C_8  and  C_10
REMARK    4  A    between atoms: C_8  and  N_31
REMARK    5  A    between atoms: C_10  and  N_11
REMARK    6  A    between atoms: C_12  and  C_14
REMARK    7  A    between atoms: N_17  and  C_19
REMARK                            x       y       z     vdW  Elec       q    Type
REMARK                         _______ _______ _______ _____ _____    ______ ____
ROOT
ATOM      1  N   UNL     1      -1.243  -6.321   0.358  0.00  0.00    -0.311 N 
ATOM      2  C   UNL     1      -2.354  -7.052   0.573  0.00  0.00    +0.264 C 
ATOM      3  O   UNL     1      -3.417  -6.498   0.779  0.00  0.00    -0.268 OA
ATOM      4  H   UNL     1      -0.396  -6.763   0.193  0.00  0.00    +0.149 HD
ENDROOT
BRANCH   2   5
ATOM      5  C   UNL     1      -2.282  -8.527   0.559  0.00  0.00    +0.150 A 
ATOM      6  C   UNL     1      -3.346  -9.422   0.759  0.00  0.00    +0.006 A 
ATOM      7  C   UNL     1      -2.812 -10.665   0.659  0.00  0.00    +0.044 A 
ATOM      8  N   UNL     1      -1.501 -10.515   0.410  0.00  0.00    -0.263 N 
ATOM      9  N   UNL     1      -1.203  -9.263   0.349  0.00  0.00    -0.166 NA
ATOM     10  C   UNL     1      -3.607 -11.935   0.814  0.00  0.00    +0.055 C 
ATOM     11  C   UNL     1      -4.940 -11.592   1.492  0.00  0.00    +0.006 C 
ATOM     12  C   UNL     1      -5.599 -10.416   0.765  0.00  0.00    +0.005 C 
ATOM     13  C   UNL     1      -4.797  -9.135   1.030  0.00  0.00    +0.039 C 
BRANCH   8  14
ATOM     14  C   UNL     1      -0.550 -11.614   0.229  0.00  0.00    +0.130 C 
ATOM     15  C   UNL     1       0.573 -11.506   1.274  0.00  0.00    +0.051 C 
ATOM     16  C   UNL     1       1.737 -12.455   0.898  0.00  0.00    +0.168 C 
ATOM     17  S   UNL     1       1.601 -12.554  -0.934  0.00  0.00    -0.029 S 
ATOM     18  O   UNL     1       2.715 -11.891  -1.516  0.00  0.00    -0.174 OA
ATOM     19  O   UNL     1       1.314 -13.896  -1.304  0.00  0.00    -0.174 OA
ATOM     20  C   UNL     1       0.094 -11.525  -1.184  0.00  0.00    +0.192 C 
ENDBRANCH   8  14
ENDBRANCH   2   5
BRANCH   1  21
ATOM     21  C   UNL     1      -1.315  -4.857   0.372  0.00  0.00    +0.094 C 
BRANCH  21  22
ATOM     22  C   UNL     1       0.042  -4.276  -0.029  0.00  0.00    -0.020 C 
BRANCH  22  27
ATOM     23  C   UNL     1       1.182  -5.664  -5.521  0.00  0.00    +0.044 C 
ATOM     24  C   UNL     1       0.884  -5.302  -4.089  0.00  0.00    -0.050 A 
ATOM     25  C   UNL     1       1.460  -6.023  -3.060  0.00  0.00    +0.003 A 
ATOM     26  C   UNL     1       1.188  -5.691  -1.746  0.00  0.00    +0.002 A 
ATOM     27  C   UNL     1       0.340  -4.637  -1.461  0.00  0.00    -0.059 A 
ATOM     28  C   UNL     1      -0.235  -3.915  -2.490  0.00  0.00    +0.002 A 
ATOM     29  C   UNL     1       0.041  -4.245  -3.804  0.00  0.00    +0.003 A 
ENDBRANCH  22  27
BRANCH  22  30
ATOM     30  N   UNL     1       0.009  -2.814   0.110  0.00  0.00    +0.385 N 
ATOM     31  C   UNL     1      -0.207  -2.440   1.532  0.00  0.00    -0.078 C 
ATOM     32  C   UNL     1       0.334  -0.990   1.602  0.00  0.00    -0.020 C 
ATOM     33  C   UNL     1       1.563  -1.034   0.666  0.00  0.00    -0.020 C 
ATOM     34  C   UNL     1       1.317  -2.236  -0.264  0.00  0.00    -0.078 C 
ATOM     35  H   UNL     1      -0.722  -2.425  -0.468  0.00  0.00    -0.081 HD
ENDBRANCH  22  30
ENDBRANCH  21  22
ENDBRANCH   1  21
TORSDOF 6
