REMARK  Name = ZINC37951012
REMARK  5 active torsions:
REMARK  status: ('A' for Active; 'I' for Inactive)
REMARK    1  A    between atoms: C_1  and  C_2
REMARK    2  A    between atoms: C_2  and  C_3
REMARK    3  A    between atoms: C_2  and  C_11
REMARK    4  A    between atoms: C_2  and  N_14
REMARK    5  A    between atoms: N_14  and  C_15
REMARK                            x       y       z     vdW  Elec       q    Type
REMARK                         _______ _______ _______ _____ _____    ______ ____
ROOT
ATOM      1  C   UNL     1      -0.410   1.555   0.276  0.00  0.00    +0.047 C 
ATOM      2  C   UNL     1      -0.138   0.056   0.136  0.00  0.00    +0.132 C 
ENDROOT
BRANCH   2   3
ATOM      3  C   UNL     1       0.812  -0.386   1.218  0.00  0.00    +0.003 A 
ATOM      4  C   UNL     1       0.430  -1.367   2.115  0.00  0.00    +0.009 A 
ATOM      5  C   UNL     1       1.301  -1.773   3.108  0.00  0.00    +0.020 A 
ATOM      6  C   UNL     1       2.556  -1.198   3.206  0.00  0.00    +0.042 A 
ATOM      7  C   UNL     1       2.939  -0.217   2.309  0.00  0.00    +0.040 A 
ATOM      8  C   UNL     1       2.068   0.185   1.312  0.00  0.00    +0.048 A 
ATOM      9 CL   UNL     1       2.550   1.412   0.182  0.00  0.00    -0.083 Cl
ATOM     10 CL   UNL     1       3.649  -1.707   4.455  0.00  0.00    -0.083 Cl
ENDBRANCH   2   3
BRANCH   2  11
ATOM     11  C   UNL     1       0.475  -0.219  -1.214  0.00  0.00    +0.238 C 
ATOM     12  O   UNL     1       1.084   0.656  -1.792  0.00  0.00    -0.273 OA
ATOM     13  N   UNL     1       0.346  -1.436  -1.777  0.00  0.00    -0.327 N 
ATOM     14  H   UNL     1      -0.141  -2.136  -1.314  0.00  0.00    +0.145 HD
ATOM     15  H   UNL     1       0.741  -1.613  -2.645  0.00  0.00    +0.145 HD
ENDBRANCH   2  11
BRANCH   2  16
ATOM     16  N   UNL     1      -1.397  -0.683   0.259  0.00  0.00    -0.327 N 
ATOM     17  H   UNL     1      -1.534  -1.286   1.006  0.00  0.00    +0.147 HD
BRANCH  16  18
ATOM     18  C   UNL     1      -2.401  -0.518  -0.699  0.00  0.00    +0.028 A 
ATOM     19  C   UNL     1      -2.200   0.334  -1.778  0.00  0.00    +0.024 A 
ATOM     20  C   UNL     1      -3.194   0.495  -2.723  0.00  0.00    +0.017 A 
ATOM     21  C   UNL     1      -4.389  -0.190  -2.595  0.00  0.00    +0.018 A 
ATOM     22  C   UNL     1      -4.592  -1.039  -1.522  0.00  0.00    +0.017 A 
ATOM     23  C   UNL     1      -3.600  -1.209  -0.577  0.00  0.00    +0.024 A 
ATOM     24 BR   UNL     1      -5.748   0.034  -3.891  0.00  0.00    -0.050 Br
ENDBRANCH  16  18
ENDBRANCH   2  16
TORSDOF 4
