REMARK  Name = ZINC39962548
REMARK  8 active torsions:
REMARK  status: ('A' for Active; 'I' for Inactive)
REMARK    1  A    between atoms: C_1  and  C_2
REMARK    2  A    between atoms: C_4  and  C_16
REMARK    3  A    between atoms: C_6  and  C_14
REMARK    4  A    between atoms: C_7  and  N_13
REMARK    5  A    between atoms: C_21  and  O_22
REMARK    6  A    between atoms: O_22  and  C_23
REMARK    7  A    between atoms: C_23  and  C_24
REMARK    8  A    between atoms: C_29  and  C_30
REMARK                            x       y       z     vdW  Elec       q    Type
REMARK                         _______ _______ _______ _____ _____    ______ ____
ROOT
ATOM      1  C   UNL     1      -3.212  -0.572  -1.199  0.00  0.00    +0.008 A 
ATOM      2  C   UNL     1      -3.177  -1.748  -1.923  0.00  0.00    +0.023 A 
ATOM      3  C   UNL     1      -3.798  -1.820  -3.157  0.00  0.00    +0.018 A 
ATOM      4  C   UNL     1      -4.456  -0.716  -3.669  0.00  0.00    +0.019 A 
ATOM      5  C   UNL     1      -4.494   0.462  -2.948  0.00  0.00    +0.047 A 
ATOM      6  C   UNL     1      -3.876   0.535  -1.708  0.00  0.00    +0.125 A 
ATOM      7 BR   UNL     1      -3.748  -3.431  -4.146  0.00  0.00    -0.050 Br
ENDROOT
BRANCH   1  11
ATOM      8  C   UNL     1      -0.018   1.503   0.010  0.00  0.00    +0.067 C 
ATOM      9  C   UNL     1       0.002  -0.004   0.002  0.00  0.00    +0.066 C 
ATOM     10  C   UNL     1      -1.064  -0.768   0.003  0.00  0.00    +0.030 C 
ATOM     11  C   UNL     1      -2.536  -0.493   0.145  0.00  0.00    +0.101 C 
ATOM     12  C   UNL     1      -3.065  -1.577   1.066  0.00  0.00    +0.098 C 
ATOM     13  C   UNL     1      -2.303  -2.628   1.436  0.00  0.00    +0.195 C 
ATOM     14  O   UNL     1      -1.023  -2.853   1.091  0.00  0.00    -0.448 OA
ATOM     15  C   UNL     1      -0.529  -2.198  -0.081  0.00  0.00    +0.343 C 
ATOM     16  N   UNL     1       0.921  -1.985  -0.028  0.00  0.00    -0.138 NA
ATOM     17  N   UNL     1       1.127  -0.765  -0.013  0.00  0.00    -0.155 NA
BRANCH  13  18
ATOM     18  N   UNL     1      -2.896  -3.562   2.247  0.00  0.00    -0.329 N 
ATOM     19  H   UNL     1      -3.818  -3.448   2.526  0.00  0.00    +0.145 HD
ATOM     20  H   UNL     1      -2.393  -4.337   2.542  0.00  0.00    +0.145 HD
ENDBRANCH  13  18
BRANCH  12  21
ATOM     21  C   UNL     1      -4.407  -1.482   1.556  0.00  0.00    +0.101 C 
ATOM     22  N   UNL     1      -5.472  -1.407   1.944  0.00  0.00    -0.191 NA
ENDBRANCH  12  21
ENDBRANCH   1  11
BRANCH   6  23
ATOM     23  O   UNL     1      -3.916   1.692  -0.995  0.00  0.00    -0.487 OA
BRANCH  23  24
ATOM     24  C   UNL     1      -4.617   2.791  -1.580  0.00  0.00    +0.265 C 
BRANCH  24  25
ATOM     25  C   UNL     1      -4.556   3.977  -0.653  0.00  0.00    +0.007 A 
ATOM     26  C   UNL     1      -3.884   3.881   0.549  0.00  0.00    +0.008 A 
ATOM     27  C   UNL     1      -3.826   4.969   1.401  0.00  0.00    +0.000 A 
ATOM     28  C   UNL     1      -4.441   6.160   1.056  0.00  0.00    +0.001 A 
ATOM     29  C   UNL     1      -5.117   6.269  -0.141  0.00  0.00    +0.019 A 
ATOM     30  C   UNL     1      -5.173   5.177  -1.010  0.00  0.00    +0.058 A 
BRANCH  30  31
ATOM     31  C   UNL     1      -5.867   5.285  -2.258  0.00  0.00    +0.100 C 
ATOM     32  N   UNL     1      -6.417   5.372  -3.248  0.00  0.00    -0.191 NA
ENDBRANCH  30  31
ENDBRANCH  24  25
ENDBRANCH  23  24
ENDBRANCH   6  23
TORSDOF 7
