REMARK  Name = ZINC23262397
REMARK  5 active torsions:
REMARK  status: ('A' for Active; 'I' for Inactive)
REMARK    1  A    between atoms: C_1  and  C_2
REMARK    2  A    between atoms: C_2  and  C_4
REMARK    3  A    between atoms: C_2  and  S_20
REMARK    4  A    between atoms: N_9  and  C_10
REMARK    5  A    between atoms: S_20  and  C_21
REMARK                            x       y       z     vdW  Elec       q    Type
REMARK                         _______ _______ _______ _____ _____    ______ ____
ROOT
ATOM      1  C   UNL     1      -0.742   1.585  -1.213  0.00  0.00    +0.233 C 
ATOM      2  O   UNL     1      -0.328   2.554  -1.812  0.00  0.00    -0.274 OA
ATOM      3  N   UNL     1      -1.854   0.954  -1.639  0.00  0.00    -0.239 N 
ATOM      4  C   UNL     1      -2.506   1.400  -2.731  0.00  0.00    +0.306 C 
ATOM      5  O   UNL     1      -2.091   2.372  -3.331  0.00  0.00    -0.252 OA
ATOM      6  N   UNL     1      -3.618   0.769  -3.157  0.00  0.00    -0.294 N 
ATOM      7  H   UNL     1      -2.229   0.074  -1.095  0.00  0.00    +0.159 HD
ATOM      8  H   UNL     1      -3.993  -0.110  -2.613  0.00  0.00    +0.151 HD
ENDROOT
BRANCH   6   9
ATOM      9  C   UNL     1      -4.326   1.254  -4.344  0.00  0.00    +0.037 C 
ATOM     10  C   UNL     1      -4.785   2.695  -4.110  0.00  0.00    +0.029 C 
ATOM     11  C   UNL     1      -5.525   3.202  -5.349  0.00  0.00    -0.008 C 
ATOM     12  C   UNL     1      -6.744   2.315  -5.614  0.00  0.00    +0.007 C 
ATOM     13  C   UNL     1      -6.284   0.874  -5.848  0.00  0.00    -0.008 C 
ATOM     14  C   UNL     1      -5.544   0.367  -4.609  0.00  0.00    +0.029 C 
ATOM     15  C   UNL     1      -5.347   0.828  -7.056  0.00  0.00    +0.007 C 
ATOM     16  C   UNL     1      -4.129   1.714  -6.792  0.00  0.00    -0.008 C 
ATOM     17  C   UNL     1      -4.588   3.155  -6.558  0.00  0.00    +0.007 C 
ATOM     18  C   UNL     1      -3.389   1.208  -5.552  0.00  0.00    +0.029 C 
ENDBRANCH   6   9
BRANCH   1  20
ATOM     19  C   UNL     1      -0.729   1.579   1.267  0.00  0.00    +0.029 C 
ATOM     20  C   UNL     1      -0.013   1.086   0.008  0.00  0.00    +0.137 C 
BRANCH  20  21
ATOM     21  S   UNL     1       1.685   1.712  -0.005  0.00  0.00    -0.074 S 
BRANCH  21  22
ATOM     22  C   UNL     1       2.330   0.877   1.406  0.00  0.00    +0.192 A 
ATOM     23  N   UNL     1       1.678   0.050   2.193  0.00  0.00    -0.122 NA
ATOM     24  N   UNL     1       2.461  -0.382   3.119  0.00  0.00    -0.134 NA
ATOM     25  C   UNL     1       3.643   0.142   2.981  0.00  0.00    +0.134 A 
ATOM     26  N   UNL     1       3.598   0.968   1.893  0.00  0.00    -0.306 N 
ATOM     27  C   UNL     1       4.694   1.787   1.376  0.00  0.00    +0.125 C 
ATOM     28  C   UNL     1       6.030   1.124   1.726  0.00  0.00    +0.022 C 
ATOM     29  C   UNL     1       6.507   1.617   3.091  0.00  0.00    +0.002 C 
ATOM     30  C   UNL     1       5.509   1.237   4.180  0.00  0.00    +0.008 C 
ATOM     31  C   UNL     1       4.858  -0.106   3.837  0.00  0.00    +0.076 C 
ENDBRANCH  21  22
ENDBRANCH  20  21
ENDBRANCH   1  20
TORSDOF 4
