REMARK  Name = ZINC63339799
REMARK  3 active torsions:
REMARK  status: ('A' for Active; 'I' for Inactive)
REMARK    1  A    between atoms: C_2  and  C_3
REMARK    2  A    between atoms: C_3  and  N_4
REMARK    3  A    between atoms: C_20  and  C_25
REMARK                            x       y       z     vdW  Elec       q    Type
REMARK                         _______ _______ _______ _____ _____    ______ ____
ROOT
ATOM      1  N   UNL     1       1.836  -1.598   1.599  0.00  0.00    -0.248 N 
ATOM      2  C   UNL     1       2.371  -1.542   2.835  0.00  0.00    +0.242 C 
ATOM      3  O   UNL     1       3.006  -0.629   3.318  0.00  0.00    -0.273 OA
ATOM      4  C   UNL     1       2.014  -2.857   3.494  0.00  0.00    +0.166 C 
ATOM      5  C   UNL     1       3.295  -3.599   3.916  0.00  0.00    +0.065 C 
ATOM      6  C   UNL     1       2.932  -5.063   3.995  0.00  0.00    -0.034 C 
ATOM      7  C   UNL     1       3.073  -5.937   4.986  0.00  0.00    -0.001 A 
ATOM      8  C   UNL     1       3.713  -5.825   6.306  0.00  0.00    +0.010 A 
ATOM      9  C   UNL     1       3.658  -6.931   7.095  0.00  0.00    +0.001 A 
ATOM     10  C   UNL     1       3.038  -8.123   6.706  0.00  0.00    +0.002 A 
ATOM     11  C   UNL     1       2.433  -8.317   5.507  0.00  0.00    +0.026 A 
ATOM     12  C   UNL     1       2.433  -7.228   4.588  0.00  0.00    +0.043 A 
ATOM     13  N   UNL     1       1.951  -7.144   3.384  0.00  0.00    -0.375 N 
ATOM     14  C   UNL     1       2.271  -5.819   2.850  0.00  0.00    +0.131 C 
ATOM     15  C   UNL     1       1.002  -5.040   2.473  0.00  0.00    +0.133 C 
ATOM     16  N   UNL     1       1.358  -3.612   2.409  0.00  0.00    -0.291 N 
ATOM     17  C   UNL     1       1.228  -2.772   1.375  0.00  0.00    +0.143 C 
ATOM     18  S   UNL     1       0.388  -3.153  -0.067  0.00  0.00    -0.018 S 
ATOM     19  H   UNL     1       1.462  -7.840   2.919  0.00  0.00    +0.160 HD
ENDROOT
BRANCH  15  20
ATOM     20  C   UNL     1      -0.057  -5.243   3.525  0.00  0.00    -0.021 A 
ATOM     21  C   UNL     1      -1.208  -5.945   3.218  0.00  0.00    +0.009 A 
ATOM     22  C   UNL     1      -2.183  -6.134   4.180  0.00  0.00    +0.050 A 
ATOM     23  C   UNL     1      -2.009  -5.620   5.455  0.00  0.00    +0.166 A 
ATOM     24  C   UNL     1      -0.849  -4.912   5.763  0.00  0.00    +0.167 A 
ATOM     25  C   UNL     1       0.126  -4.732   4.796  0.00  0.00    +0.055 A 
ATOM     26  O   UNL     1      -0.916  -4.514   7.067  0.00  0.00    -0.453 OA
ATOM     27  C   UNL     1      -2.303  -4.630   7.435  0.00  0.00    +0.466 C 
ATOM     28  O   UNL     1      -2.801  -5.664   6.565  0.00  0.00    -0.453 OA
ENDBRANCH  15  20
BRANCH   1  29
ATOM     29  C   UNL     1       1.905  -0.508   0.622  0.00  0.00    +0.142 C 
BRANCH  29  31
ATOM     30  C   UNL     1       0.889   1.681   0.993  0.00  0.00    +0.005 C 
ATOM     31  C   UNL     1       0.713   0.398   0.796  0.00  0.00    -0.015 C 
ENDBRANCH  29  31
ENDBRANCH   1  29
TORSDOF 3
