REMARK  Name = ZINC19945486
REMARK  9 active torsions:
REMARK  status: ('A' for Active; 'I' for Inactive)
REMARK    1  A    between atoms: C_1  and  C_2
REMARK    2  A    between atoms: C_2  and  C_3
REMARK    3  A    between atoms: C_2  and  C_4
REMARK    4  A    between atoms: N_6  and  C_7
REMARK    5  A    between atoms: C_10  and  N_15
REMARK    6  A    between atoms: C_12  and  O_13
REMARK    7  A    between atoms: O_13  and  C_14
REMARK    8  A    between atoms: C_16  and  C_18
REMARK    9  A    between atoms: C_18  and  C_23
REMARK                            x       y       z     vdW  Elec       q    Type
REMARK                         _______ _______ _______ _____ _____    ______ ____
ROOT
ATOM      1  N   UNL     1       1.007  -6.223  -1.287  0.00  0.00    -0.285 N 
ATOM      2  C   UNL     1       0.369  -6.982  -0.375  0.00  0.00    +0.228 C 
ATOM      3  O   UNL     1      -0.223  -6.457   0.545  0.00  0.00    -0.275 OA
ATOM      4  H   UNL     1       1.603  -6.700  -2.079  0.00  0.00    +0.155 HD
ENDROOT
BRANCH   1   8
ATOM      5  C   UNL     1       0.722  -2.064  -1.100  0.00  0.00    +0.076 A 
ATOM      6  C   UNL     1       0.752  -2.812   0.068  0.00  0.00    +0.029 A 
ATOM      7  C   UNL     1       0.847  -4.189   0.005  0.00  0.00    +0.025 A 
ATOM      8  C   UNL     1       0.912  -4.827  -1.227  0.00  0.00    +0.037 A 
ATOM      9  C   UNL     1       0.882  -4.082  -2.398  0.00  0.00    +0.070 A 
ATOM     10  C   UNL     1       0.782  -2.702  -2.337  0.00  0.00    +0.143 A 
BRANCH   5  13
ATOM     11  C   UNL     1       1.227   0.005  -0.034  0.00  0.00    +0.220 C 
ATOM     12  O   UNL     1       1.784  -0.603   0.856  0.00  0.00    -0.275 OA
ATOM     13  N   UNL     1       0.626  -0.666  -1.036  0.00  0.00    -0.282 N 
ATOM     14  H   UNL     1       0.059  -0.118  -1.803  0.00  0.00    +0.155 HD
BRANCH  11  16
ATOM     15  C   UNL     1      -0.240   2.003   0.024  0.00  0.00    +0.017 C 
ATOM     16  C   UNL     1       1.208   1.512  -0.019  0.00  0.00    +0.069 C 
ATOM     17  C   UNL     1       1.955   2.019   1.216  0.00  0.00    +0.017 C 
ENDBRANCH  11  16
ENDBRANCH   5  13
BRANCH  10  18
ATOM     18  O   UNL     1       0.746  -1.971  -3.483  0.00  0.00    -0.493 OA
ATOM     19  C   UNL     1       0.811  -2.692  -4.715  0.00  0.00    +0.277 C 
ENDBRANCH  10  18
ENDBRANCH   1   8
BRANCH   2  20
ATOM     20  C   UNL     1       0.389  -8.484  -0.498  0.00  0.00    +0.072 C 
ATOM     21  C   UNL     1      -0.185  -8.910  -1.861  0.00  0.00    +0.021 C 
ATOM     22  C   UNL     1      -1.421  -9.784  -1.565  0.00  0.00    +0.001 C 
ATOM     23  C   UNL     1      -1.867  -9.344  -0.148  0.00  0.00    +0.001 C 
ATOM     24  C   UNL     1      -0.518  -9.115   0.579  0.00  0.00    +0.021 C 
BRANCH  20  25
ATOM     25  C   UNL     1       1.799  -8.995  -0.348  0.00  0.00    -0.032 A 
ATOM     26  C   UNL     1       2.070 -10.338  -0.531  0.00  0.00    +0.006 A 
ATOM     27  C   UNL     1       3.364 -10.806  -0.400  0.00  0.00    +0.020 A 
ATOM     28  C   UNL     1       4.386  -9.932  -0.074  0.00  0.00    +0.041 A 
ATOM     29  C   UNL     1       4.113  -8.589   0.115  0.00  0.00    +0.020 A 
ATOM     30  C   UNL     1       2.819  -8.121  -0.023  0.00  0.00    +0.006 A 
ATOM     31 CL   UNL     1       6.010 -10.520   0.098  0.00  0.00    -0.084 Cl
ENDBRANCH  20  25
ENDBRANCH   2  20
TORSDOF 6
