REMARK  Name = ZINC09001353
REMARK  6 active torsions:
REMARK  status: ('A' for Active; 'I' for Inactive)
REMARK    1  A    between atoms: C_1  and  S_2
REMARK    2  A    between atoms: S_2  and  C_5
REMARK    3  A    between atoms: N_13  and  C_14
REMARK    4  A    between atoms: C_14  and  C_16
REMARK    5  A    between atoms: N_27  and  C_28
REMARK    6  A    between atoms: C_28  and  C_29
REMARK                            x       y       z     vdW  Elec       q    Type
REMARK                         _______ _______ _______ _____ _____    ______ ____
ROOT
ATOM      1  C   UNL     1       9.859  -7.941  -0.144  0.00  0.00    +0.089 A 
ATOM      2  C   UNL     1       8.796  -8.829  -0.138  0.00  0.00    +0.029 A 
ATOM      3  C   UNL     1       7.496  -8.386  -0.121  0.00  0.00    +0.029 A 
ATOM      4  C   UNL     1       7.202  -7.011  -0.111  0.00  0.00    +0.059 A 
ATOM      5  C   UNL     1       8.299  -6.137  -0.117  0.00  0.00    +0.041 A 
ATOM      6  C   UNL     1       9.600  -6.582  -0.133  0.00  0.00    +0.044 A 
ATOM      7  S   UNL     1       7.544  -4.529  -0.107  0.00  0.00    -0.052 S 
ATOM      8  C   UNL     1       5.839  -5.058  -0.085  0.00  0.00    +0.168 A 
ATOM      9  N   UNL     1       4.738  -4.316  -0.070  0.00  0.00    -0.152 NA
ATOM     10  N   UNL     1       5.954  -6.416  -0.094  0.00  0.00    -0.310 N 
ENDROOT
BRANCH   1  12
ATOM     11  C   UNL     1      11.974  -8.701   1.584  0.00  0.00    +0.200 C 
ATOM     12  S   UNL     1      11.518  -8.534  -0.164  0.00  0.00    -0.006 S 
ATOM     13  O   UNL     1      11.438  -9.815  -0.774  0.00  0.00    -0.170 OA
ATOM     14  O   UNL     1      12.269  -7.489  -0.768  0.00  0.00    -0.170 OA
ENDBRANCH   1  12
BRANCH   9  15
ATOM     15  C   UNL     1       4.830  -2.981  -0.063  0.00  0.00    +0.276 C 
ATOM     16  O   UNL     1       5.926  -2.446  -0.071  0.00  0.00    -0.268 OA
BRANCH  15  17
ATOM     17  C   UNL     1       3.606  -2.156  -0.046  0.00  0.00    +0.121 A 
ATOM     18  C   UNL     1       2.374  -2.740  -0.037  0.00  0.00    +0.212 A 
ATOM     19  O   UNL     1       1.246  -2.031  -0.022  0.00  0.00    -0.462 OA
ATOM     20  C   UNL     1       1.216  -0.683  -0.014  0.00  0.00    +0.138 A 
ATOM     21  C   UNL     1       0.002  -0.004   0.002  0.00  0.00    +0.047 A 
ATOM     22  C   UNL     1      -0.017   1.374   0.010  0.00  0.00    +0.004 A 
ATOM     23  C   UNL     1       1.166   2.099   0.002  0.00  0.00    +0.001 A 
ATOM     24  C   UNL     1       2.379   1.447  -0.013  0.00  0.00    +0.015 A 
ATOM     25  C   UNL     1       2.411   0.053  -0.021  0.00  0.00    +0.065 A 
ATOM     26  C   UNL     1       3.690  -0.684  -0.038  0.00  0.00    +0.205 A 
ATOM     27  O   UNL     1       4.762  -0.105  -0.045  0.00  0.00    -0.286 OA
ENDBRANCH  15  17
ENDBRANCH   9  15
BRANCH  10  28
ATOM     28  C   UNL     1       4.749  -7.250  -0.086  0.00  0.00    +0.212 C 
BRANCH  28  29
ATOM     29  C   UNL     1       4.331  -7.521  -1.472  0.00  0.00    -0.084 C 
ATOM     30  C   UNL     1       3.998  -7.737  -2.576  0.00  0.00    +0.005 C 
ENDBRANCH  28  29
ENDBRANCH  10  28
TORSDOF 5
