REMARK  Name = ZINC67347756
REMARK  2 active torsions:
REMARK  status: ('A' for Active; 'I' for Inactive)
REMARK    1  A    between atoms: C_2  and  C_13
REMARK    2  A    between atoms: C_13  and  N_14
REMARK                            x       y       z     vdW  Elec       q    Type
REMARK                         _______ _______ _______ _____ _____    ______ ____
ROOT
ATOM      1  C   UNL     1      -0.017   1.380   0.010  0.00  0.00    +0.054 A 
ATOM      2  C   UNL     1       1.175   2.083   0.002  0.00  0.00    -0.025 A 
ATOM      3  C   UNL     1       2.381   1.407  -0.014  0.00  0.00    +0.029 A 
ATOM      4  C   UNL     1       2.404   0.023  -0.022  0.00  0.00    +0.086 A 
ATOM      5  C   UNL     1       1.212  -0.683  -0.013  0.00  0.00    +0.180 A 
ATOM      6  C   UNL     1       0.002  -0.004   0.002  0.00  0.00    +0.164 A 
ATOM      7  O   UNL     1      -1.167  -0.709   0.010  0.00  0.00    -0.488 OA
ATOM      8  C   UNL     1      -1.468  -1.433  -1.184  0.00  0.00    +0.232 C 
ATOM      9  C   UNL     1      -0.780  -2.789  -1.181  0.00  0.00    +0.082 C 
ATOM     10  C   UNL     1       0.736  -2.670  -1.212  0.00  0.00    +0.232 C 
ATOM     11  O   UNL     1       1.220  -2.048  -0.020  0.00  0.00    -0.487 OA
ATOM     12 CL   UNL     1       3.919  -0.824  -0.042  0.00  0.00    -0.080 Cl
ENDROOT
BRANCH   2  13
ATOM     13  C   UNL     1       1.159   3.590   0.011  0.00  0.00    +0.140 C 
BRANCH  13  14
ATOM     14  N   UNL     1       1.167   4.070   1.395  0.00  0.00    -0.309 N 
ATOM     15  C   UNL     1       1.155   5.430   1.655  0.00  0.00    +0.215 A 
ATOM     16  N   UNL     1       1.130   6.282   0.641  0.00  0.00    -0.222 NA
ATOM     17  C   UNL     1       1.118   7.588   0.855  0.00  0.00    +0.131 A 
ATOM     18  C   UNL     1       1.131   8.059   2.159  0.00  0.00    +0.054 A 
ATOM     19  C   UNL     1       1.156   7.139   3.196  0.00  0.00    +0.131 A 
ATOM     20  N   UNL     1       1.162   5.847   2.913  0.00  0.00    -0.222 NA
ATOM     21 BR   UNL     1       1.114   9.917   2.515  0.00  0.00    -0.047 Br
ATOM     22  H   UNL     1       1.181   3.436   2.128  0.00  0.00    +0.149 HD
ENDBRANCH  13  14
ENDBRANCH   2  13
TORSDOF 2
