REMARK  Name = ZINC39989598
REMARK  6 active torsions:
REMARK  status: ('A' for Active; 'I' for Inactive)
REMARK    1  A    between atoms: C_1  and  C_2
REMARK    2  A    between atoms: C_3  and  C_19
REMARK    3  A    between atoms: C_4  and  N_12
REMARK    4  A    between atoms: N_5  and  C_11
REMARK    5  A    between atoms: C_8  and  C_9
REMARK    6  A    between atoms: N_23  and  C_27
REMARK                            x       y       z     vdW  Elec       q    Type
REMARK                         _______ _______ _______ _____ _____    ______ ____
ROOT
ATOM      1  C   UNL     1      -0.482   1.747  -0.362  0.00  0.00    +0.046 C 
ATOM      2  C   UNL     1      -0.191   0.274  -0.231  0.00  0.00    -0.017 A 
ATOM      3  C   UNL     1      -1.208  -0.626   0.131  0.00  0.00    +0.019 A 
ATOM      4  C   UNL     1      -0.910  -1.994   0.246  0.00  0.00    +0.111 A 
ATOM      5  N   UNL     1       0.347  -2.449   0.012  0.00  0.00    -0.298 N 
ATOM      6  C   UNL     1       1.338  -1.608  -0.336  0.00  0.00    +0.270 A 
ATOM      7  O   UNL     1       2.457  -2.044  -0.541  0.00  0.00    -0.266 OA
ATOM      8  C   UNL     1       1.089  -0.218  -0.472  0.00  0.00    +0.120 A 
ATOM      9  C   UNL     1       0.630  -3.881   0.140  0.00  0.00    +0.154 C 
ENDROOT
BRANCH   3  10
ATOM     10  C   UNL     1      -2.565  -0.141   0.386  0.00  0.00    +0.032 C 
ATOM     11  C   UNL     1      -2.809   0.670   1.451  0.00  0.00    +0.077 C 
ATOM     12  C   UNL     1      -4.030   1.284   1.865  0.00  0.00    +0.259 C 
ATOM     13  O   UNL     1      -5.061   1.117   1.237  0.00  0.00    -0.269 OA
ATOM     14  N   UNL     1      -4.009   2.038   2.950  0.00  0.00    -0.251 N 
ATOM     15  C   UNL     1      -2.866   2.223   3.647  0.00  0.00    +0.121 C 
ATOM     16  S   UNL     1      -2.612   3.148   5.065  0.00  0.00    -0.027 S 
ATOM     17  S   UNL     1      -1.690   1.251   2.718  0.00  0.00    -0.061 S 
BRANCH  14  18
ATOM     18  C   UNL     1      -5.244   2.684   3.404  0.00  0.00    +0.105 C 
ATOM     19  C   UNL     1      -5.575   2.208   4.828  0.00  0.00    +0.047 C 
ATOM     20  C   UNL     1      -6.691   3.129   5.399  0.00  0.00    +0.168 C 
ATOM     21  S   UNL     1      -6.121   4.770   4.785  0.00  0.00    -0.029 S 
ATOM     22  O   UNL     1      -5.307   5.378   5.779  0.00  0.00    -0.174 OA
ATOM     23  O   UNL     1      -7.235   5.480   4.263  0.00  0.00    -0.174 OA
ATOM     24  C   UNL     1      -5.053   4.220   3.393  0.00  0.00    +0.188 C 
ENDBRANCH  14  18
ENDBRANCH   3  10
BRANCH   4  25
ATOM     25  N   UNL     1      -1.893  -2.872   0.597  0.00  0.00    -0.316 N 
ATOM     26  C   UNL     1      -2.568  -3.611  -0.447  0.00  0.00    +0.106 C 
ATOM     27  C   UNL     1      -3.791  -2.804  -0.947  0.00  0.00    +0.019 C 
ATOM     28  C   UNL     1      -4.851  -2.797   0.073  0.00  0.00    +0.002 C 
ATOM     29  C   UNL     1      -4.459  -2.117   1.381  0.00  0.00    +0.002 C 
ATOM     30  C   UNL     1      -3.744  -3.107   2.266  0.00  0.00    +0.019 C 
ATOM     31  C   UNL     1      -2.220  -3.034   2.028  0.00  0.00    +0.106 C 
ENDBRANCH   4  25
BRANCH   8  32
ATOM     32  C   UNL     1       2.146   0.671  -0.848  0.00  0.00    +0.105 C 
ATOM     33  N   UNL     1       2.985   1.377  -1.146  0.00  0.00    -0.191 NA
ENDBRANCH   8  32
TORSDOF 4
