REMARK  Name = ZINC27312719
REMARK  12 active torsions:
REMARK  status: ('A' for Active; 'I' for Inactive)
REMARK    1  A    between atoms: C_3  and  C_7
REMARK    2  A    between atoms: C_7  and  C_8
REMARK    3  A    between atoms: C_11  and  S_15
REMARK    4  A    between atoms: S_15  and  C_16
REMARK    5  A    between atoms: C_16  and  C_17
REMARK    6  A    between atoms: C_17  and  C_18
REMARK    7  A    between atoms: C_18  and  C_19
REMARK    8  A    between atoms: C_19  and  C_20
REMARK    9  A    between atoms: C_20  and  C_21
REMARK   10  A    between atoms: C_21  and  C_22
REMARK   11  A    between atoms: C_22  and  O_23
REMARK   12  A    between atoms: O_23  and  C_24
REMARK                            x       y       z     vdW  Elec       q    Type
REMARK                         _______ _______ _______ _____ _____    ______ ____
ROOT
ATOM      1  S   UNL     1       5.554   2.886   5.590  0.00  0.00    -0.088 S 
ENDROOT
BRANCH   1   5
ATOM      2  C   UNL     1       4.154   2.277   1.395  0.00  0.00    +0.039 A 
ATOM      3  C   UNL     1       5.003   1.396   2.000  0.00  0.00    +0.123 A 
ATOM      4  N   UNL     1       5.402   1.606   3.252  0.00  0.00    -0.231 NA
ATOM      5  C   UNL     1       4.994   2.658   3.935  0.00  0.00    +0.169 A 
ATOM      6  N   UNL     1       4.147   3.570   3.383  0.00  0.00    -0.302 N 
ATOM      7  C   UNL     1       3.718   3.404   2.114  0.00  0.00    +0.256 A 
ATOM      8  O   UNL     1       2.963   4.214   1.601  0.00  0.00    -0.267 OA
ATOM      9  H   UNL     1       3.855   4.338   3.899  0.00  0.00    +0.171 HD
BRANCH   2  10
ATOM     10  C   UNL     1       3.696   2.049  -0.023  0.00  0.00    +0.078 C 
BRANCH  10  13
ATOM     11  C   UNL     1      -0.017   1.378   0.010  0.00  0.00    +0.020 A 
ATOM     12  C   UNL     1       1.185   2.070   0.002  0.00  0.00    +0.007 A 
ATOM     13  C   UNL     1       2.365   1.343  -0.013  0.00  0.00    -0.025 A 
ATOM     14  C   UNL     1       2.305  -0.038  -0.020  0.00  0.00    +0.114 A 
ATOM     15  N   UNL     1       1.144  -0.663  -0.013  0.00  0.00    -0.263 NA
ATOM     16  C   UNL     1       0.002  -0.004   0.002  0.00  0.00    +0.111 A 
ENDBRANCH  10  13
ENDBRANCH   2  10
ENDBRANCH   1   5
BRANCH   1  17
ATOM     17  C   UNL     1       6.635   1.460   5.888  0.00  0.00    +0.077 C 
BRANCH  17  18
ATOM     18  C   UNL     1       7.197   1.535   7.309  0.00  0.00    +0.011 C 
BRANCH  18  19
ATOM     19  C   UNL     1       8.108   0.332   7.561  0.00  0.00    +0.001 C 
BRANCH  19  20
ATOM     20  C   UNL     1       8.671   0.407   8.982  0.00  0.00    +0.000 C 
BRANCH  20  21
ATOM     21  C   UNL     1       9.582  -0.796   9.234  0.00  0.00    +0.003 C 
BRANCH  21  22
ATOM     22  C   UNL     1      10.144  -0.722  10.655  0.00  0.00    +0.041 C 
BRANCH  22  23
ATOM     23  C   UNL     1      11.056  -1.924  10.907  0.00  0.00    +0.229 C 
BRANCH  23  24
ATOM     24  O   UNL     1      11.581  -1.855  12.234  0.00  0.00    -0.492 OA
BRANCH  24  25
ATOM     25  C   UNL     1      12.415  -2.855  12.621  0.00  0.00    +0.121 A 
ATOM     26  C   UNL     1      12.727  -3.880  11.739  0.00  0.00    +0.047 A 
ATOM     27  C   UNL     1      13.575  -4.896  12.134  0.00  0.00    +0.023 A 
ATOM     28  C   UNL     1      14.114  -4.893  13.408  0.00  0.00    +0.041 A 
ATOM     29  C   UNL     1      13.804  -3.872  14.289  0.00  0.00    +0.023 A 
ATOM     30  C   UNL     1      12.961  -2.850  13.896  0.00  0.00    +0.047 A 
ATOM     31 CL   UNL     1      15.179  -6.171  13.902  0.00  0.00    -0.084 Cl
ENDBRANCH  24  25
ENDBRANCH  23  24
ENDBRANCH  22  23
ENDBRANCH  21  22
ENDBRANCH  20  21
ENDBRANCH  19  20
ENDBRANCH  18  19
ENDBRANCH  17  18
ENDBRANCH   1  17
TORSDOF 12
