REMARK  Name = ZINC39480041
REMARK  4 active torsions:
REMARK  status: ('A' for Active; 'I' for Inactive)
REMARK    1  A    between atoms: C_1  and  N_2
REMARK    2  A    between atoms: C_8  and  O_9
REMARK    3  A    between atoms: C_12  and  S_21
REMARK    4  A    between atoms: S_21  and  C_22
REMARK                            x       y       z     vdW  Elec       q    Type
REMARK                         _______ _______ _______ _____ _____    ______ ____
ROOT
ATOM      1  C   UNL     1       0.326   1.383  -0.049  0.00  0.00    +0.137 C 
ATOM      2  N   UNL     1       0.408  -0.079   0.006  0.00  0.00    -0.283 N 
ATOM      3  C   UNL     1      -0.807  -0.718  -0.098  0.00  0.00    +0.081 A 
ATOM      4  C   UNL     1      -1.882   0.005   0.374  0.00  0.00    -0.015 A 
ATOM      5  C   UNL     1      -3.151  -0.137  -0.066  0.00  0.00    +0.026 A 
ATOM      6  C   UNL     1      -3.419  -1.295  -0.804  0.00  0.00    +0.045 A 
ATOM      7  C   UNL     1      -2.402  -2.206  -1.044  0.00  0.00    +0.067 A 
ATOM      8  C   UNL     1      -1.082  -1.935  -0.701  0.00  0.00    +0.140 A 
ATOM      9 CL   UNL     1      -5.016  -1.591  -1.415  0.00  0.00    -0.083 Cl
ATOM     10  C   UNL     1      -1.588   0.548   1.801  0.00  0.00    +0.099 C 
ATOM     11  C   UNL     1      -0.198  -0.016   2.054  0.00  0.00    +0.079 C 
ATOM     12  N   UNL     1       0.939   0.602   1.995  0.00  0.00    -0.239 NA
ATOM     13  C   UNL     1       2.001  -0.106   1.513  0.00  0.00    +0.142 A 
ATOM     14  C   UNL     1       1.675  -0.566   0.145  0.00  0.00    +0.156 A 
ATOM     15  N   UNL     1       2.541  -1.237  -0.514  0.00  0.00    -0.218 NA
ATOM     16  C   UNL     1       3.722  -1.530   0.023  0.00  0.00    +0.225 A 
ATOM     17  N   UNL     1       4.056  -1.152   1.242  0.00  0.00    -0.222 NA
ATOM     18  C   UNL     1       3.216  -0.441   2.017  0.00  0.00    +0.160 A 
ATOM     19 CL   UNL     1       3.675   0.045   3.619  0.00  0.00    -0.060 Cl
ENDROOT
BRANCH   8  20
ATOM     20  O   UNL     1      -0.093  -2.835  -0.949  0.00  0.00    -0.505 OA
ATOM     21  H   UNL     1       0.061  -3.459  -0.226  0.00  0.00    +0.292 HD
ENDBRANCH   8  20
BRANCH  11  22
ATOM     22  S   UNL     1      -0.126  -1.724   2.480  0.00  0.00    -0.113 S 
ATOM     23  C   UNL     1      -1.867  -2.211   2.637  0.00  0.00    +0.091 C 
ENDBRANCH  11  22
TORSDOF 2
