REMARK  Name = ZINC19645593
REMARK  12 active torsions:
REMARK  status: ('A' for Active; 'I' for Inactive)
REMARK    1  A    between atoms: C_1  and  C_2
REMARK    2  A    between atoms: C_2  and  C_30
REMARK    3  A    between atoms: C_4  and  N_10
REMARK    4  A    between atoms: C_6  and  C_8
REMARK    5  A    between atoms: C_6  and  C_9
REMARK    6  A    between atoms: N_10  and  C_11
REMARK    7  A    between atoms: N_10  and  C_18
REMARK    8  A    between atoms: C_11  and  C_12
REMARK    9  A    between atoms: C_18  and  N_20
REMARK   10  A    between atoms: N_20  and  C_21
REMARK   11  A    between atoms: C_26  and  O_27
REMARK   12  A    between atoms: O_27  and  C_28
REMARK                            x       y       z     vdW  Elec       q    Type
REMARK                         _______ _______ _______ _____ _____    ______ ____
ROOT
ATOM      1  N   UNL     1      -4.713  -0.291   0.071  0.00  0.00    -0.305 N 
ENDROOT
BRANCH   1   5
ATOM      2  C   UNL     1      -3.866   3.207  -2.465  0.00  0.00    -0.010 C 
ATOM      3  C   UNL     1      -5.289   2.719  -2.168  0.00  0.00    -0.072 C 
ATOM      4  C   UNL     1      -5.248   1.252  -1.746  0.00  0.00    +0.009 C 
ATOM      5  C   UNL     1      -4.723   1.125  -0.316  0.00  0.00    +0.073 C 
ATOM      6  C   UNL     1      -5.659   1.895   0.616  0.00  0.00    +0.009 C 
ATOM      7  C   UNL     1      -5.707   3.369   0.222  0.00  0.00    -0.072 C 
ATOM      8  N   UNL     1      -5.940   3.569  -1.193  0.00  0.00    +0.386 N 
ATOM      9  C   UNL     1      -4.417   4.063   0.674  0.00  0.00    -0.010 C 
ATOM     10  C   UNL     1      -6.872   4.020   1.000  0.00  0.00    -0.010 C 
ATOM     11  C   UNL     1      -6.086   2.801  -3.489  0.00  0.00    -0.010 C 
ATOM     12  H   UNL     1      -5.645   4.615  -1.363  0.00  0.00    -0.084 HD
ATOM     13  H   UNL     1      -7.032   3.475  -1.296  0.00  0.00    -0.084 HD
ENDBRANCH   1   5
BRANCH   1  14
ATOM     14  C   UNL     1      -3.547  -0.902   0.364  0.00  0.00    +0.138 C 
ATOM     15  S   UNL     1      -3.517  -2.586   0.672  0.00  0.00    -0.018 S 
BRANCH  14  16
ATOM     16  N   UNL     1      -2.406  -0.187   0.413  0.00  0.00    -0.294 N 
ATOM     17  H   UNL     1      -1.704  -0.212  -0.433  0.00  0.00    +0.154 HD
BRANCH  16  18
ATOM     18  C   UNL     1      -2.114   0.589   1.543  0.00  0.00    +0.076 A 
ATOM     19  C   UNL     1      -3.037   0.691   2.574  0.00  0.00    +0.047 A 
ATOM     20  C   UNL     1      -2.748   1.463   3.685  0.00  0.00    +0.043 A 
ATOM     21  C   UNL     1      -1.539   2.128   3.774  0.00  0.00    +0.024 A 
ATOM     22  C   UNL     1      -0.613   2.026   2.752  0.00  0.00    +0.049 A 
ATOM     23  C   UNL     1      -0.894   1.255   1.636  0.00  0.00    +0.141 A 
ATOM     24 CL   UNL     1      -3.907   1.595   4.971  0.00  0.00    -0.083 Cl
BRANCH  23  25
ATOM     25  O   UNL     1       0.016   1.155   0.630  0.00  0.00    -0.493 OA
ATOM     26  C   UNL     1       1.242   1.870   0.791  0.00  0.00    +0.277 C 
ENDBRANCH  23  25
ENDBRANCH  16  18
ENDBRANCH  14  16
ENDBRANCH   1  14
BRANCH   1  27
ATOM     27  C   UNL     1      -5.970  -1.041   0.140  0.00  0.00    +0.143 C 
BRANCH  27  28
ATOM     28  C   UNL     1      -6.468  -1.057   1.562  0.00  0.00    -0.012 A 
ATOM     29  C   UNL     1      -7.426  -0.146   1.980  0.00  0.00    +0.008 A 
ATOM     30  C   UNL     1      -7.856  -0.198   3.297  0.00  0.00    +0.020 A 
ATOM     31  C   UNL     1      -7.318  -1.149   4.144  0.00  0.00    +0.111 A 
ATOM     32  N   UNL     1      -6.408  -2.000   3.711  0.00  0.00    -0.263 NA
ATOM     33  C   UNL     1      -5.981  -1.983   2.464  0.00  0.00    +0.115 A 
ENDBRANCH  27  28
ENDBRANCH   1  27
TORSDOF 7
