REMARK  Name = ZINC39668960
REMARK  5 active torsions:
REMARK  status: ('A' for Active; 'I' for Inactive)
REMARK    1  A    between atoms: C_10  and  C_12
REMARK    2  A    between atoms: C_12  and  N_13
REMARK    3  A    between atoms: C_14  and  C_16
REMARK    4  A    between atoms: C_27  and  C_29
REMARK    5  A    between atoms: C_32  and  C_36
REMARK                            x       y       z     vdW  Elec       q    Type
REMARK                         _______ _______ _______ _____ _____    ______ ____
ROOT
ATOM      1  C   UNL     1       8.851  -0.665   1.133  0.00  0.00    +0.100 C 
ATOM      2  C   UNL     1       8.605  -2.085   1.689  0.00  0.00    +0.121 C 
ATOM      3  N   UNL     1       9.774  -2.354   2.559  0.00  0.00    -0.296 N 
ATOM      4  C   UNL     1      10.031  -1.063   3.241  0.00  0.00    +0.115 C 
ATOM      5  C   UNL     1       9.786   0.003   2.155  0.00  0.00    -0.004 C 
ATOM      6  C   UNL     1       9.114   1.230   2.763  0.00  0.00    -0.010 C 
ATOM      7  C   UNL     1      10.085   1.911   3.732  0.00  0.00    -0.082 C 
ATOM      8  N   UNL     1      11.304   2.301   3.013  0.00  0.00    +0.379 N 
ATOM      9  C   UNL     1      11.993   1.107   2.511  0.00  0.00    -0.082 C 
ATOM     10  C   UNL     1      11.103   0.392   1.491  0.00  0.00    -0.010 C 
ATOM     11  C   UNL     1      10.452  -3.511   2.699  0.00  0.00    +0.249 C 
ATOM     12  O   UNL     1      11.337  -3.601   3.527  0.00  0.00    -0.270 OA
ATOM     13  H   UNL     1      11.059   2.897   2.237  0.00  0.00    -0.086 HD
ATOM     14  H   UNL     1      11.916   2.803   3.639  0.00  0.00    -0.086 HD
ENDROOT
BRANCH  11  15
ATOM     15  C   UNL     1      10.118  -4.669   1.845  0.00  0.00    +0.072 A 
ATOM     16  C   UNL     1       8.796  -4.901   1.461  0.00  0.00    +0.016 A 
ATOM     17  C   UNL     1       8.492  -5.983   0.664  0.00  0.00    +0.013 A 
ATOM     18  C   UNL     1       9.493  -6.842   0.243  0.00  0.00    +0.058 A 
ATOM     19  C   UNL     1      10.805  -6.622   0.618  0.00  0.00    +0.051 A 
ATOM     20  C   UNL     1      11.127  -5.536   1.413  0.00  0.00    +0.136 A 
ATOM     21  F   UNL     1      12.410  -5.318   1.774  0.00  0.00    -0.205 F 
BRANCH  18  22
ATOM     22  C   UNL     1       9.150  -8.024  -0.628  0.00  0.00    +0.418 C 
ATOM     23  F   UNL     1       9.227  -7.649  -1.973  0.00  0.00    -0.166 F 
ATOM     24  F   UNL     1      10.054  -9.062  -0.381  0.00  0.00    -0.166 F 
ATOM     25  F   UNL     1       7.852  -8.456  -0.337  0.00  0.00    -0.166 F 
ENDBRANCH  18  22
ENDBRANCH  11  15
BRANCH   1  27
ATOM     26  N   UNL     1       7.398   1.051   0.102  0.00  0.00    -0.312 N 
ATOM     27  C   UNL     1       7.552   0.093   1.037  0.00  0.00    +0.218 C 
ATOM     28  O   UNL     1       6.645  -0.159   1.802  0.00  0.00    -0.275 OA
ATOM     29  H   UNL     1       8.123   1.253  -0.510  0.00  0.00    +0.149 HD
BRANCH  26  30
ATOM     30  C   UNL     1       6.135   1.788   0.009  0.00  0.00    +0.140 C 
BRANCH  30  40
ATOM     31  C   UNL     1       2.682   5.205  -1.096  0.00  0.00    +0.000 A 
ATOM     32  C   UNL     1       3.328   4.893   0.086  0.00  0.00    +0.000 A 
ATOM     33  C   UNL     1       4.470   4.117   0.062  0.00  0.00    +0.006 A 
ATOM     34  C   UNL     1       4.972   3.648  -1.142  0.00  0.00    -0.014 A 
ATOM     35  C   UNL     1       4.325   3.956  -2.320  0.00  0.00    -0.040 A 
ATOM     36  C   UNL     1       3.180   4.738  -2.296  0.00  0.00    +0.004 A 
ATOM     37  C   UNL     1       4.832   3.454  -3.648  0.00  0.00    +0.063 C 
ATOM     38  C   UNL     1       6.283   2.990  -3.506  0.00  0.00    +0.165 C 
ATOM     39  O   UNL     1       6.373   2.123  -2.369  0.00  0.00    -0.370 OA
ATOM     40  C   UNL     1       6.223   2.809  -1.127  0.00  0.00    +0.165 C 
ENDBRANCH  30  40
ENDBRANCH  26  30
ENDBRANCH   1  27
TORSDOF 5
