REMARK  Name = ZINC03008553
REMARK  4 active torsions:
REMARK  status: ('A' for Active; 'I' for Inactive)
REMARK    1  A    between atoms: C_1  and  C_2
REMARK    2  A    between atoms: C_5  and  N_8
REMARK    3  A    between atoms: C_9  and  N_18
REMARK    4  A    between atoms: C_19  and  C_21
REMARK                            x       y       z     vdW  Elec       q    Type
REMARK                         _______ _______ _______ _____ _____    ______ ____
ROOT
ATOM      1  N   UNL     1      -0.113   1.092  -0.254  0.00  0.00    -0.218 N 
ATOM      2  C   UNL     1      -0.008  -0.226   0.051  0.00  0.00    +0.134 A 
ATOM      3  C   UNL     1       1.315  -0.482   0.334  0.00  0.00    +0.038 A 
ATOM      4  C   UNL     1       2.015   0.704   0.197  0.00  0.00    +0.091 A 
ATOM      5  N   UNL     1       1.161   1.654  -0.157  0.00  0.00    -0.168 NA
ATOM      6  C   UNL     1       3.518   0.650   0.469  0.00  0.00    +0.223 C 
ATOM      7  S   UNL     1       3.684  -0.957   1.348  0.00  0.00    -0.021 S 
ATOM      8  O   UNL     1       3.590  -0.739   2.749  0.00  0.00    -0.174 OA
ATOM      9  O   UNL     1       4.791  -1.673   0.818  0.00  0.00    -0.174 OA
ATOM     10  C   UNL     1       2.120  -1.714   0.742  0.00  0.00    +0.206 C 
ENDROOT
BRANCH   1  15
ATOM     11  C   UNL     1      -4.876   3.824  -1.691  0.00  0.00    +0.044 C 
ATOM     12  C   UNL     1      -3.611   3.098  -1.310  0.00  0.00    -0.050 A 
ATOM     13  C   UNL     1      -2.701   3.699  -0.459  0.00  0.00    +0.005 A 
ATOM     14  C   UNL     1      -1.541   3.036  -0.107  0.00  0.00    +0.028 A 
ATOM     15  C   UNL     1      -1.289   1.766  -0.609  0.00  0.00    +0.067 A 
ATOM     16  C   UNL     1      -2.202   1.169  -1.468  0.00  0.00    +0.028 A 
ATOM     17  C   UNL     1      -3.362   1.834  -1.812  0.00  0.00    +0.005 A 
ENDBRANCH   1  15
BRANCH   2  18
ATOM     18  N   UNL     1      -1.049  -1.151   0.073  0.00  0.00    -0.266 N 
ATOM     19  C   UNL     1      -0.800  -2.451  -0.180  0.00  0.00    +0.251 C 
ATOM     20  O   UNL     1       0.340  -2.825  -0.376  0.00  0.00    -0.270 OA
ATOM     21  H   UNL     1      -1.953  -0.860   0.270  0.00  0.00    +0.157 HD
BRANCH  19  22
ATOM     22  C   UNL     1      -1.913  -3.422  -0.219  0.00  0.00    +0.056 A 
ATOM     23  C   UNL     1      -3.206  -3.022   0.125  0.00  0.00    +0.029 A 
ATOM     24  C   UNL     1      -4.241  -3.933   0.086  0.00  0.00    +0.019 A 
ATOM     25  C   UNL     1      -4.000  -5.244  -0.292  0.00  0.00    +0.017 A 
ATOM     26  C   UNL     1      -2.722  -5.648  -0.633  0.00  0.00    +0.022 A 
ATOM     27  C   UNL     1      -1.678  -4.744  -0.604  0.00  0.00    +0.053 A 
ATOM     28 CL   UNL     1      -0.076  -5.252  -1.040  0.00  0.00    -0.083 Cl
ATOM     29 BR   UNL     1      -5.992  -3.393   0.550  0.00  0.00    -0.050 Br
ENDBRANCH  19  22
ENDBRANCH   2  18
TORSDOF 3
