REMARK  Name = ZINC39989866
REMARK  9 active torsions:
REMARK  status: ('A' for Active; 'I' for Inactive)
REMARK    1  A    between atoms: C_1  and  C_2
REMARK    2  A    between atoms: C_2  and  N_3
REMARK    3  A    between atoms: C_4  and  N_23
REMARK    4  A    between atoms: C_5  and  C_13
REMARK    5  A    between atoms: C_6  and  C_12
REMARK    6  A    between atoms: C_7  and  C_10
REMARK    7  A    between atoms: N_17  and  C_21
REMARK    8  A    between atoms: C_21  and  C_22
REMARK    9  A    between atoms: N_26  and  C_29
REMARK                            x       y       z     vdW  Elec       q    Type
REMARK                         _______ _______ _______ _____ _____    ______ ____
ROOT
ATOM      1  N   UNL     1       0.499  -0.441   1.562  0.00  0.00    -0.295 N 
ATOM      2  C   UNL     1       1.823  -0.665   1.367  0.00  0.00    +0.112 A 
ATOM      3  C   UNL     1       2.546  -1.488   2.247  0.00  0.00    +0.019 A 
ATOM      4  C   UNL     1       1.886  -2.081   3.336  0.00  0.00    -0.017 A 
ATOM      5  C   UNL     1       0.527  -1.835   3.515  0.00  0.00    +0.120 A 
ATOM      6  C   UNL     1      -0.154  -0.992   2.601  0.00  0.00    +0.270 A 
ATOM      7  O   UNL     1      -1.343  -0.769   2.755  0.00  0.00    -0.266 OA
ATOM      8  C   UNL     1       2.636  -2.969   4.295  0.00  0.00    +0.046 C 
ENDROOT
BRANCH   3   9
ATOM      9  C   UNL     1       3.974  -1.726   2.030  0.00  0.00    +0.032 C 
ATOM     10  C   UNL     1       4.884  -1.277   2.936  0.00  0.00    +0.077 C 
ATOM     11  C   UNL     1       6.303  -1.437   2.954  0.00  0.00    +0.258 C 
ATOM     12  O   UNL     1       6.877  -2.050   2.072  0.00  0.00    -0.269 OA
ATOM     13  N   UNL     1       6.975  -0.898   3.956  0.00  0.00    -0.256 N 
ATOM     14  C   UNL     1       6.339  -0.217   4.934  0.00  0.00    +0.121 C 
ATOM     15  S   UNL     1       7.002   0.554   6.312  0.00  0.00    -0.027 S 
ATOM     16  S   UNL     1       4.630  -0.319   4.423  0.00  0.00    -0.061 S 
BRANCH  13  17
ATOM     17  C   UNL     1       8.432  -1.041   4.008  0.00  0.00    +0.111 C 
ATOM     18  C   UNL     1       9.087   0.129   3.271  0.00  0.00    +0.025 C 
ENDBRANCH  13  17
ENDBRANCH   3   9
BRANCH   2  19
ATOM     19  N   UNL     1       2.458  -0.086   0.307  0.00  0.00    -0.313 N 
ATOM     20  C   UNL     1       3.146   1.204   0.460  0.00  0.00    +0.125 C 
ATOM     21  C   UNL     1       4.601   1.040   0.003  0.00  0.00    +0.124 C 
ATOM     22  N   UNL     1       4.610   0.385  -1.312  0.00  0.00    -0.327 N 
ATOM     23  C   UNL     1       3.922  -0.905  -1.465  0.00  0.00    +0.124 C 
ATOM     24  C   UNL     1       2.472  -0.744  -1.007  0.00  0.00    +0.125 C 
BRANCH  22  25
ATOM     25  C   UNL     1       5.260   0.978  -2.398  0.00  0.00    +0.030 A 
ATOM     26  C   UNL     1       5.153   0.416  -3.664  0.00  0.00    +0.026 A 
ATOM     27  C   UNL     1       5.796   1.004  -4.736  0.00  0.00    +0.040 A 
ATOM     28  C   UNL     1       6.547   2.152  -4.549  0.00  0.00    +0.124 A 
ATOM     29  C   UNL     1       6.655   2.714  -3.288  0.00  0.00    +0.040 A 
ATOM     30  C   UNL     1       6.010   2.133  -2.214  0.00  0.00    +0.026 A 
ATOM     31  F   UNL     1       7.176   2.725  -5.599  0.00  0.00    -0.205 F 
ENDBRANCH  22  25
ENDBRANCH   2  19
BRANCH   1  33
ATOM     32  C   UNL     1      -0.279   1.847   1.184  0.00  0.00    +0.027 C 
ATOM     33  C   UNL     1      -0.231   0.422   0.630  0.00  0.00    +0.123 C 
ENDBRANCH   1  33
BRANCH   5  34
ATOM     34  C   UNL     1      -0.174  -2.425   4.616  0.00  0.00    +0.105 C 
ATOM     35  N   UNL     1      -0.731  -2.892   5.489  0.00  0.00    -0.191 NA
ENDBRANCH   5  34
TORSDOF 6
