REMARK  Name = ZINC16571006
REMARK  8 active torsions:
REMARK  status: ('A' for Active; 'I' for Inactive)
REMARK    1  A    between atoms: C_1  and  C_2
REMARK    2  A    between atoms: C_2  and  C_3
REMARK    3  A    between atoms: C_4  and  C_17
REMARK    4  A    between atoms: C_5  and  O_16
REMARK    5  A    between atoms: N_6  and  C_8
REMARK    6  A    between atoms: C_18  and  N_30
REMARK    7  A    between atoms: N_21  and  C_24
REMARK    8  A    between atoms: C_34  and  C_36
REMARK                            x       y       z     vdW  Elec       q    Type
REMARK                         _______ _______ _______ _____ _____    ______ ____
ROOT
ATOM      1  C   UNL     1      -2.820   3.735  -0.026  0.00  0.00    +0.081 C 
ATOM      2  C   UNL     1      -3.490   2.523   0.045  0.00  0.00    +0.122 C 
ATOM      3  C   UNL     1      -2.450   1.480   0.101  0.00  0.00    +0.275 C 
ATOM      4  O   UNL     1      -2.651   0.283   0.166  0.00  0.00    -0.268 OA
ATOM      5  N   UNL     1      -1.243   2.070   0.073  0.00  0.00    -0.201 N 
ATOM      6  C   UNL     1      -1.373   3.405  -0.006  0.00  0.00    +0.260 C 
ATOM      7  O   UNL     1      -0.462   4.206  -0.052  0.00  0.00    -0.269 OA
ENDROOT
BRANCH   2   8
ATOM      8  N   UNL     1      -4.849   2.332   0.055  0.00  0.00    -0.318 N 
ATOM      9  C   UNL     1      -5.555   2.637  -1.028  0.00  0.00    +0.091 A 
ATOM     10  C   UNL     1      -6.922   2.457  -1.051  0.00  0.00    +0.018 A 
ATOM     11  C   UNL     1      -7.559   1.951   0.075  0.00  0.00    +0.006 A 
ATOM     12  C   UNL     1      -6.791   1.643   1.190  0.00  0.00    -0.034 A 
ATOM     13  C   UNL     1      -5.427   1.842   1.145  0.00  0.00    +0.094 A 
ATOM     14  C   UNL     1      -7.441   1.092   2.433  0.00  0.00    +0.045 C 
ENDBRANCH   2   8
BRANCH   5  15
ATOM     15  C   UNL     1      -0.020   1.388   0.113  0.00  0.00    +0.045 A 
ATOM     16  C   UNL     1       1.173   2.096   0.066  0.00  0.00    +0.024 A 
ATOM     17  C   UNL     1       2.378   1.421   0.101  0.00  0.00    +0.002 A 
ATOM     18  C   UNL     1       2.396   0.040   0.182  0.00  0.00    +0.000 A 
ATOM     19  C   UNL     1       1.209  -0.668   0.229  0.00  0.00    +0.002 A 
ATOM     20  C   UNL     1       0.002   0.002   0.195  0.00  0.00    +0.024 A 
ENDBRANCH   5  15
BRANCH   1  22
ATOM     21  C   UNL     1      -3.868   5.862   0.982  0.00  0.00    +0.075 A 
ATOM     22  C   UNL     1      -3.421   5.075  -0.105  0.00  0.00    +0.074 A 
ATOM     23  C   UNL     1      -3.663   5.807  -1.266  0.00  0.00    +0.224 A 
ATOM     24  N   UNL     1      -4.223   6.977  -0.886  0.00  0.00    -0.200 N 
ATOM     25  N   UNL     1      -4.334   6.984   0.508  0.00  0.00    -0.168 NA
BRANCH  24  26
ATOM     26  C   UNL     1      -4.625   8.009  -1.745  0.00  0.00    +0.071 A 
ATOM     27  C   UNL     1      -5.750   8.766  -1.445  0.00  0.00    +0.029 A 
ATOM     28  C   UNL     1      -6.144   9.782  -2.292  0.00  0.00    +0.023 A 
ATOM     29  C   UNL     1      -5.420  10.048  -3.441  0.00  0.00    +0.059 A 
ATOM     30  C   UNL     1      -4.297   9.295  -3.743  0.00  0.00    +0.061 A 
ATOM     31  C   UNL     1      -3.895   8.281  -2.894  0.00  0.00    +0.049 A 
ATOM     32 CL   UNL     1      -3.390   9.631  -5.185  0.00  0.00    -0.082 Cl
ATOM     33 CL   UNL     1      -5.919  11.326  -4.504  0.00  0.00    -0.082 Cl
ENDBRANCH  24  26
BRANCH  21  35
ATOM     34  C   UNL     1      -2.541   6.044   3.069  0.00  0.00    +0.010 C 
ATOM     35  C   UNL     1      -3.812   5.473   2.437  0.00  0.00    +0.054 C 
ENDBRANCH  21  35
BRANCH  23  36
ATOM     36  O   UNL     1      -3.389   5.420  -2.533  0.00  0.00    -0.492 OA
ATOM     37  H   UNL     1      -4.112   4.943  -2.964  0.00  0.00    +0.294 HD
ENDBRANCH  23  36
ENDBRANCH   1  22
TORSDOF 6
