REMARK  Name = ZINC40381417
REMARK  5 active torsions:
REMARK  status: ('A' for Active; 'I' for Inactive)
REMARK    1  A    between atoms: C_1  and  C_2
REMARK    2  A    between atoms: C_5  and  C_7
REMARK    3  A    between atoms: N_9  and  C_10
REMARK    4  A    between atoms: C_13  and  S_17
REMARK    5  A    between atoms: S_17  and  N_20
REMARK                            x       y       z     vdW  Elec       q    Type
REMARK                         _______ _______ _______ _____ _____    ______ ____
ROOT
ATOM      1  C   UNL     1       3.007  -5.372   0.049  0.00  0.00    +0.069 A 
ATOM      2  C   UNL     1       2.218  -6.514   0.035  0.00  0.00    +0.028 A 
ATOM      3  C   UNL     1       2.807  -7.761   0.114  0.00  0.00    +0.030 A 
ATOM      4  C   UNL     1       4.182  -7.874   0.208  0.00  0.00    +0.108 A 
ATOM      5  C   UNL     1       4.973  -6.739   0.223  0.00  0.00    +0.068 A 
ATOM      6  C   UNL     1       4.391  -5.488   0.138  0.00  0.00    +0.146 A 
ATOM      7  F   UNL     1       5.163  -4.380   0.146  0.00  0.00    -0.203 F 
ENDROOT
BRANCH   1  10
ATOM      8  C   UNL     1       1.217  -3.887   0.547  0.00  0.00    +0.255 C 
ATOM      9  O   UNL     1       0.615  -4.806   1.071  0.00  0.00    -0.269 OA
ATOM     10  N   UNL     1       2.413  -4.108  -0.032  0.00  0.00    -0.279 N 
ATOM     11  H   UNL     1       2.862  -3.390  -0.506  0.00  0.00    +0.155 HD
BRANCH   8  16
ATOM     12  C   UNL     1      -0.036   1.495  -0.005  0.00  0.00    +0.051 C 
ATOM     13  C   UNL     1       0.060   0.018   0.277  0.00  0.00    -0.013 A 
ATOM     14  C   UNL     1      -0.837  -0.766   0.925  0.00  0.00    +0.011 A 
ATOM     15  C   UNL     1      -0.563  -2.104   1.082  0.00  0.00    +0.021 A 
ATOM     16  C   UNL     1       0.640  -2.540   0.547  0.00  0.00    +0.074 A 
ATOM     17  S   UNL     1       1.299  -1.035  -0.145  0.00  0.00    -0.089 S 
ENDBRANCH   8  16
ENDBRANCH   1  10
BRANCH   4  18
ATOM     18  S   UNL     1       4.929  -9.467   0.310  0.00  0.00    +0.056 S 
ATOM     19  O   UNL     1       6.190  -9.285   0.939  0.00  0.00    -0.153 OA
ATOM     20  O   UNL     1       3.939 -10.346   0.827  0.00  0.00    -0.153 OA
BRANCH  18  21
ATOM     21  N   UNL     1       5.240  -9.962  -1.239  0.00  0.00    -0.204 NA
ATOM     22  H   UNL     1       5.007  -9.389  -1.987  0.00  0.00    +0.144 HD
ATOM     23  H   UNL     1       5.654 -10.824  -1.399  0.00  0.00    +0.144 HD
ENDBRANCH  18  21
ENDBRANCH   4  18
TORSDOF 4
