REMARK  Name = ZINC00929817
REMARK  8 active torsions:
REMARK  status: ('A' for Active; 'I' for Inactive)
REMARK    1  A    between atoms: C_1  and  C_2
REMARK    2  A    between atoms: C_3  and  C_14
REMARK    3  A    between atoms: N_5  and  C_7
REMARK    4  A    between atoms: N_16  and  C_17
REMARK    5  A    between atoms: C_22  and  S_23
REMARK    6  A    between atoms: S_23  and  C_26
REMARK    7  A    between atoms: C_26  and  C_27
REMARK    8  A    between atoms: C_37  and  C_39
REMARK                            x       y       z     vdW  Elec       q    Type
REMARK                         _______ _______ _______ _____ _____    ______ ____
ROOT
ATOM      1  C   UNL     1       3.569   1.089   6.930  0.00  0.00    +0.059 A 
ATOM      2  C   UNL     1       4.021   0.521   8.115  0.00  0.00    +0.025 A 
ATOM      3  C   UNL     1       5.034  -0.416   8.087  0.00  0.00    +0.002 A 
ATOM      4  C   UNL     1       5.597  -0.793   6.881  0.00  0.00    +0.002 A 
ATOM      5  C   UNL     1       5.146  -0.234   5.700  0.00  0.00    +0.029 A 
ATOM      6  C   UNL     1       4.132   0.704   5.721  0.00  0.00    +0.110 A 
ENDROOT
BRANCH   1   9
ATOM      7  C   UNL     1       2.336   2.776   8.066  0.00  0.00    +0.253 C 
ATOM      8  O   UNL     1       3.097   2.681   9.010  0.00  0.00    -0.270 OA
ATOM      9  N   UNL     1       2.546   2.042   6.955  0.00  0.00    -0.280 N 
ATOM     10  H   UNL     1       1.989   2.176   6.173  0.00  0.00    +0.155 HD
BRANCH   7  13
ATOM     11  C   UNL     1       2.332   5.823   7.180  0.00  0.00    +0.068 C 
ATOM     12  C   UNL     1       1.169   5.051   7.746  0.00  0.00    +0.074 A 
ATOM     13  C   UNL     1       1.185   3.692   8.137  0.00  0.00    +0.096 A 
ATOM     14  C   UNL     1      -0.084   3.383   8.592  0.00  0.00    +0.145 A 
ATOM     15  N   UNL     1      -0.828   4.500   8.492  0.00  0.00    -0.220 N 
ATOM     16  N   UNL     1      -0.030   5.519   7.960  0.00  0.00    -0.170 NA
ATOM     17 CL   UNL     1      -0.616   1.842   9.187  0.00  0.00    -0.061 Cl
BRANCH  15  18
ATOM     18  C   UNL     1      -2.177   4.621   8.853  0.00  0.00    +0.067 A 
ATOM     19  C   UNL     1      -3.045   3.553   8.668  0.00  0.00    +0.028 A 
ATOM     20  C   UNL     1      -4.373   3.673   9.029  0.00  0.00    +0.002 A 
ATOM     21  C   UNL     1      -4.840   4.859   9.564  0.00  0.00    +0.000 A 
ATOM     22  C   UNL     1      -3.980   5.926   9.745  0.00  0.00    +0.002 A 
ATOM     23  C   UNL     1      -2.650   5.810   9.391  0.00  0.00    +0.028 A 
ENDBRANCH  15  18
ENDBRANCH   7  13
ENDBRANCH   1   9
BRANCH   6  24
ATOM     24  S   UNL     1       3.559   1.416   4.214  0.00  0.00    +0.007 S 
ATOM     25  O   UNL     1       4.364   0.824   3.204  0.00  0.00    -0.169 OA
ATOM     26  O   UNL     1       3.594   2.818   4.440  0.00  0.00    -0.169 OA
BRANCH  24  27
ATOM     27  C   UNL     1       1.842   0.852   4.056  0.00  0.00    +0.267 C 
BRANCH  27  28
ATOM     28  C   UNL     1       1.246   1.407   2.788  0.00  0.00    +0.242 C 
ATOM     29  O   UNL     1       1.913   2.114   2.063  0.00  0.00    -0.273 OA
ATOM     30  N   UNL     1      -0.029   1.118   2.460  0.00  0.00    -0.267 N 
ATOM     31  C   UNL     1      -0.890   0.317   3.217  0.00  0.00    +0.040 A 
ATOM     32  C   UNL     1      -0.653  -0.340   4.426  0.00  0.00    +0.024 A 
ATOM     33  C   UNL     1      -1.647  -1.090   5.016  0.00  0.00    +0.002 A 
ATOM     34  C   UNL     1      -2.889  -1.196   4.415  0.00  0.00    +0.000 A 
ATOM     35  C   UNL     1      -3.131  -0.548   3.219  0.00  0.00    +0.005 A 
ATOM     36  C   UNL     1      -2.137   0.205   2.624  0.00  0.00    -0.024 A 
ATOM     37  C   UNL     1      -2.132   1.002   1.339  0.00  0.00    +0.059 C 
ATOM     38  C   UNL     1      -0.717   1.598   1.258  0.00  0.00    +0.083 C 
ATOM     39  C   UNL     1      -0.001   1.097   0.002  0.00  0.00    +0.029 C 
ENDBRANCH  27  28
ENDBRANCH  24  27
ENDBRANCH   6  24
TORSDOF 6
