REMARK  Name = ZINC46645012
REMARK  8 active torsions:
REMARK  status: ('A' for Active; 'I' for Inactive)
REMARK    1  A    between atoms: C_1  and  C_2
REMARK    2  A    between atoms: C_3  and  C_13
REMARK    3  A    between atoms: C_7  and  S_9
REMARK    4  A    between atoms: S_9  and  C_10
REMARK    5  A    between atoms: C_13  and  C_14
REMARK    6  A    between atoms: C_14  and  C_15
REMARK    7  A    between atoms: N_17  and  C_18
REMARK    8  A    between atoms: C_21  and  C_25
REMARK                            x       y       z     vdW  Elec       q    Type
REMARK                         _______ _______ _______ _____ _____    ______ ____
ROOT
ATOM      1  C   UNL     1       1.410   1.041  -4.279  0.00  0.00    +0.218 C 
ATOM      2  O   UNL     1       0.353   1.314  -4.807  0.00  0.00    -0.275 OA
ATOM      3  N   UNL     1       2.569   1.388  -4.871  0.00  0.00    -0.285 N 
ATOM      4  H   UNL     1       3.412   1.230  -4.418  0.00  0.00    +0.155 HD
ENDROOT
BRANCH   3   5
ATOM      5  C   UNL     1       2.557   1.975  -6.136  0.00  0.00    +0.035 A 
ATOM      6  C   UNL     1       1.530   2.846  -6.488  0.00  0.00    +0.024 A 
ATOM      7  C   UNL     1       1.514   3.427  -7.735  0.00  0.00    +0.016 A 
ATOM      8  C   UNL     1       2.531   3.142  -8.651  0.00  0.00    +0.055 A 
ATOM      9  C   UNL     1       3.562   2.266  -8.295  0.00  0.00    +0.055 A 
ATOM     10  C   UNL     1       3.574   1.692  -7.041  0.00  0.00    +0.044 A 
ATOM     11 CL   UNL     1       4.828   1.908  -9.427  0.00  0.00    -0.083 Cl
BRANCH   8  12
ATOM     12  C   UNL     1       2.518   3.763  -9.989  0.00  0.00    +0.243 C 
ATOM     13  O   UNL     1       3.403   3.514 -10.784  0.00  0.00    -0.270 OA
ATOM     14  N   UNL     1       1.523   4.606 -10.330  0.00  0.00    -0.325 N 
ATOM     15  H   UNL     1       0.817   4.805  -9.696  0.00  0.00    +0.145 HD
ATOM     16  H   UNL     1       1.514   5.014 -11.210  0.00  0.00    +0.145 HD
ENDBRANCH   8  12
ENDBRANCH   3   5
BRANCH   1  17
ATOM     17  C   UNL     1       1.426   0.314  -2.959  0.00  0.00    +0.101 C 
BRANCH  17  18
ATOM     18  C   UNL     1      -0.010   0.040  -2.509  0.00  0.00    +0.051 C 
BRANCH  18  21
ATOM     19  C   UNL     1      -0.032   1.519   0.003  0.00  0.00    +0.066 C 
ATOM     20  C   UNL     1      -0.004   0.012   0.003  0.00  0.00    +0.049 A 
ATOM     21  C   UNL     1       0.006  -0.687  -1.189  0.00  0.00    +0.040 A 
ATOM     22  C   UNL     1       0.032  -2.080  -1.144  0.00  0.00    +0.277 A 
ATOM     23  O   UNL     1       0.044  -2.805  -2.289  0.00  0.00    -0.265 OA
ATOM     24  N   UNL     1       0.046  -2.687   0.037  0.00  0.00    -0.183 NA
ATOM     25  C   UNL     1       0.035  -1.982   1.159  0.00  0.00    +0.197 A 
ATOM     26  N   UNL     1       0.016  -0.656   1.146  0.00  0.00    -0.227 NA
BRANCH  25  27
ATOM     27  S   UNL     1       0.054  -2.826   2.705  0.00  0.00    -0.016 S 
BRANCH  27  28
ATOM     28  C   UNL     1       0.086  -4.581   2.246  0.00  0.00    +0.407 C 
ATOM     29  F   UNL     1      -1.053  -4.886   1.493  0.00  0.00    -0.196 F 
ATOM     30  F   UNL     1       1.231  -4.844   1.488  0.00  0.00    -0.196 F 
ENDBRANCH  27  28
ENDBRANCH  25  27
ENDBRANCH  18  21
ENDBRANCH  17  18
ENDBRANCH   1  17
TORSDOF 7
