REMARK  Name = ZINC56825190
REMARK  6 active torsions:
REMARK  status: ('A' for Active; 'I' for Inactive)
REMARK    1  A    between atoms: C_1  and  C_2
REMARK    2  A    between atoms: C_4  and  C_14
REMARK    3  A    between atoms: C_6  and  S_9
REMARK    4  A    between atoms: C_7  and  C_8
REMARK    5  A    between atoms: S_9  and  N_12
REMARK    6  A    between atoms: N_12  and  C_13
REMARK                            x       y       z     vdW  Elec       q    Type
REMARK                         _______ _______ _______ _____ _____    ______ ____
ROOT
ATOM      1  C   UNL     1       0.911   1.566   0.307  0.00  0.00    +0.044 C 
ATOM      2  C   UNL     1       0.429   0.149   0.129  0.00  0.00    -0.045 A 
ATOM      3  C   UNL     1       0.524  -0.460  -1.106  0.00  0.00    +0.016 A 
ATOM      4  C   UNL     1       0.078  -1.772  -1.270  0.00  0.00    +0.039 A 
ATOM      5  C   UNL     1      -0.461  -2.461  -0.182  0.00  0.00    +0.041 A 
ATOM      6  C   UNL     1      -0.549  -1.841   1.047  0.00  0.00    +0.109 A 
ATOM      7  C   UNL     1      -0.101  -0.541   1.204  0.00  0.00    -0.021 A 
ATOM      8  C   UNL     1      -0.195   0.128   2.551  0.00  0.00    +0.046 C 
ENDROOT
BRANCH   4   9
ATOM      9  C   UNL     1       0.176  -2.430  -2.590  0.00  0.00    +0.247 C 
ATOM     10  O   UNL     1       0.371  -3.627  -2.660  0.00  0.00    -0.270 OA
ATOM     11  N   UNL     1       0.048  -1.702  -3.717  0.00  0.00    -0.294 N 
ATOM     12  C   UNL     1      -0.035  -0.235  -3.659  0.00  0.00    +0.108 C 
ATOM     13  C   UNL     1      -1.284   0.221  -4.420  0.00  0.00    +0.019 C 
ATOM     14  C   UNL     1      -1.258  -0.356  -5.838  0.00  0.00    +0.007 C 
ATOM     15  C   UNL     1      -1.272  -1.888  -5.760  0.00  0.00    +0.010 C 
ATOM     16  C   UNL     1      -0.004  -2.354  -5.031  0.00  0.00    +0.079 C 
ATOM     17  C   UNL     1      -0.012  -3.870  -4.864  0.00  0.00    +0.023 C 
ATOM     18  C   UNL     1      -1.255  -4.303  -4.085  0.00  0.00    +0.002 C 
ATOM     19  C   UNL     1      -2.507  -3.863  -4.849  0.00  0.00    +0.000 C 
ATOM     20  C   UNL     1      -2.521  -2.332  -4.996  0.00  0.00    +0.005 C 
ENDBRANCH   4   9
BRANCH   6  21
ATOM     21  S   UNL     1      -1.230  -2.708   2.422  0.00  0.00    +0.058 S 
ATOM     22  O   UNL     1      -1.654  -3.973   1.935  0.00  0.00    -0.153 OA
ATOM     23  O   UNL     1      -0.299  -2.575   3.487  0.00  0.00    -0.153 OA
BRANCH  21  24
ATOM     24  N   UNL     1      -2.597  -1.897   2.885  0.00  0.00    -0.193 NA
ATOM     25  C   UNL     1      -3.732  -1.788   1.964  0.00  0.00    +0.127 C 
ATOM     26  H   UNL     1      -2.647  -1.493   3.765  0.00  0.00    +0.148 HD
ENDBRANCH  21  24
ENDBRANCH   6  21
TORSDOF 3
