REMARK  Name = ZINC49220226
REMARK  4 active torsions:
REMARK  status: ('A' for Active; 'I' for Inactive)
REMARK    1  A    between atoms: C_1  and  C_2
REMARK    2  A    between atoms: C_5  and  C_7
REMARK    3  A    between atoms: C_7  and  C_9
REMARK    4  A    between atoms: C_7  and  N_10
REMARK                            x       y       z     vdW  Elec       q    Type
REMARK                         _______ _______ _______ _____ _____    ______ ____
ROOT
ATOM      1  N   UNL     1       2.811  -2.961  -0.914  0.00  0.00    -0.309 N 
ATOM      2  C   UNL     1       3.161  -3.695  -2.045  0.00  0.00    +0.068 A 
ATOM      3  C   UNL     1       2.627  -4.822  -2.651  0.00  0.00    +0.029 A 
ATOM      4  C   UNL     1       3.211  -5.330  -3.794  0.00  0.00    +0.017 A 
ATOM      5  C   UNL     1       4.329  -4.720  -4.338  0.00  0.00    +0.020 A 
ATOM      6  C   UNL     1       4.869  -3.597  -3.741  0.00  0.00    +0.043 A 
ATOM      7  C   UNL     1       4.289  -3.079  -2.592  0.00  0.00    +0.066 A 
ATOM      8  N   UNL     1       4.588  -1.990  -1.778  0.00  0.00    -0.334 N 
ATOM      9  C   UNL     1       3.682  -1.942  -0.784  0.00  0.00    +0.159 A 
ATOM     10  S   UNL     1       3.644  -0.766   0.460  0.00  0.00    -0.013 S 
ATOM     11 BR   UNL     1       5.121  -5.427  -5.903  0.00  0.00    -0.050 Br
ATOM     12  H   UNL     1       5.323  -1.370  -1.907  0.00  0.00    +0.168 HD
ENDROOT
BRANCH   1  13
ATOM     13  C   UNL     1       1.684  -3.245  -0.023  0.00  0.00    +0.152 C 
ATOM     14  C   UNL     1       2.205  -3.494   1.394  0.00  0.00    +0.039 C 
BRANCH  13  19
ATOM     15  C   UNL     1      -0.018   1.503   0.010  0.00  0.00    +0.086 C 
ATOM     16  C   UNL     1       0.002  -0.004   0.002  0.00  0.00    +0.102 A 
ATOM     17  C   UNL     1      -1.078  -0.805   0.003  0.00  0.00    +0.045 A 
ATOM     18  C   UNL     1      -0.601  -2.136  -0.007  0.00  0.00    +0.047 A 
ATOM     19  C   UNL     1       0.742  -2.069  -0.013  0.00  0.00    +0.128 A 
ATOM     20  O   UNL     1       1.102  -0.775  -0.013  0.00  0.00    -0.463 OA
ENDBRANCH  13  19
ENDBRANCH   1  13
TORSDOF 2
