REMARK  Name = ZINC12467460
REMARK  6 active torsions:
REMARK  status: ('A' for Active; 'I' for Inactive)
REMARK    1  A    between atoms: C_2  and  C_3
REMARK    2  A    between atoms: C_3  and  N_4
REMARK    3  A    between atoms: N_13  and  C_14
REMARK    4  A    between atoms: C_14  and  C_16
REMARK    5  A    between atoms: N_21  and  S_22
REMARK    6  A    between atoms: S_22  and  C_25
REMARK                            x       y       z     vdW  Elec       q    Type
REMARK                         _______ _______ _______ _____ _____    ______ ____
ROOT
ATOM      1  N   UNL     1       6.997   7.947   2.259  0.00  0.00    -0.309 N 
ATOM      2  C   UNL     1       7.902   8.722   1.555  0.00  0.00    +0.062 A 
ATOM      3  C   UNL     1       9.255   8.958   1.846  0.00  0.00    +0.076 A 
ATOM      4  C   UNL     1      10.025   9.764   1.033  0.00  0.00    +0.168 A 
ATOM      5  C   UNL     1       9.476  10.364  -0.100  0.00  0.00    +0.167 A 
ATOM      6  C   UNL     1       8.143  10.145  -0.407  0.00  0.00    +0.066 A 
ATOM      7  C   UNL     1       7.382   9.340   0.409  0.00  0.00    +0.043 A 
ATOM      8  S   UNL     1       5.691   8.801   0.387  0.00  0.00    -0.052 S 
ATOM      9  C   UNL     1       5.715   7.832   1.824  0.00  0.00    +0.167 A 
ATOM     10  N   UNL     1       4.718   7.136   2.368  0.00  0.00    -0.155 NA
ATOM     11  O   UNL     1      10.441  11.101  -0.721  0.00  0.00    -0.453 OA
ATOM     12  C   UNL     1      11.690  10.621  -0.189  0.00  0.00    +0.466 C 
ATOM     13  O   UNL     1      11.340  10.131   1.118  0.00  0.00    -0.453 OA
ENDROOT
BRANCH  10  14
ATOM     14  C   UNL     1       3.518   7.139   1.798  0.00  0.00    +0.257 C 
ATOM     15  O   UNL     1       3.329   7.777   0.780  0.00  0.00    -0.272 OA
BRANCH  14  16
ATOM     16  C   UNL     1       2.390   6.351   2.414  0.00  0.00    +0.168 C 
ATOM     17  C   UNL     1       2.079   6.890   3.826  0.00  0.00    +0.031 C 
ATOM     18  C   UNL     1       0.531   6.802   3.898  0.00  0.00    +0.019 C 
ATOM     19  C   UNL     1       0.134   7.148   2.439  0.00  0.00    +0.110 C 
ATOM     20  N   UNL     1       1.171   6.511   1.607  0.00  0.00    -0.164 NA
BRANCH  20  21
ATOM     21  S   UNL     1       0.994   6.057   0.025  0.00  0.00    +0.068 S 
ATOM     22  O   UNL     1       2.298   6.032  -0.539  0.00  0.00    -0.152 OA
ATOM     23  O   UNL     1      -0.052   6.854  -0.512  0.00  0.00    -0.152 OA
BRANCH  21  24
ATOM     24  C   UNL     1       0.412   4.394   0.022  0.00  0.00    +0.144 A 
ATOM     25  C   UNL     1      -0.864   3.936   0.032  0.00  0.00    +0.038 A 
ATOM     26  C   UNL     1      -1.087   2.572   0.020  0.00  0.00    +0.030 A 
ATOM     27  C   UNL     1      -0.021   1.732   0.012  0.00  0.00    +0.080 A 
ATOM     28  S   UNL     1       1.350   2.875   0.005  0.00  0.00    -0.057 S 
ATOM     29 CL   UNL     1       0.002  -0.004   0.002  0.00  0.00    -0.076 Cl
ENDBRANCH  21  24
ENDBRANCH  20  21
ENDBRANCH  14  16
ENDBRANCH  10  14
BRANCH   1  30
ATOM     30  C   UNL     1       7.422   7.250   3.476  0.00  0.00    +0.212 C 
BRANCH  30  32
ATOM     31  C   UNL     1       5.366   7.021   5.125  0.00  0.00    +0.005 C 
ATOM     32  C   UNL     1       6.278   7.123   4.394  0.00  0.00    -0.084 C 
ENDBRANCH  30  32
ENDBRANCH   1  30
TORSDOF 6
