REMARK  Name = ZINC36686856
REMARK  2 active torsions:
REMARK  status: ('A' for Active; 'I' for Inactive)
REMARK    1  A    between atoms: C_6  and  C_7
REMARK    2  A    between atoms: C_8  and  C_9
REMARK                            x       y       z     vdW  Elec       q    Type
REMARK                         _______ _______ _______ _____ _____    ______ ____
ROOT
ATOM      1  C   UNL     1      -2.463   1.356   0.135  0.00  0.00    +0.240 C 
ATOM      2  O   UNL     1      -1.439   1.985  -0.059  0.00  0.00    -0.271 OA
ATOM      3  N   UNL     1      -3.623   2.007   0.352  0.00  0.00    -0.295 N 
ATOM      4  C   UNL     1      -4.885   1.265   0.479  0.00  0.00    +0.127 C 
ATOM      5  C   UNL     1      -5.542   1.641   1.812  0.00  0.00    +0.126 C 
ATOM      6  N   UNL     1      -5.568   3.106   1.927  0.00  0.00    -0.307 N 
ATOM      7  C   UNL     1      -4.306   3.848   1.800  0.00  0.00    +0.126 C 
ATOM      8  C   UNL     1      -3.647   3.471   0.471  0.00  0.00    +0.127 C 
ATOM      9  C   UNL     1      -6.756   3.772   2.149  0.00  0.00    +0.162 A 
ATOM     10  N   UNL     1      -7.964   3.277   2.292  0.00  0.00    -0.225 NA
ATOM     11  C   UNL     1      -9.047   4.057   2.507  0.00  0.00    +0.080 A 
ATOM     12  C   UNL     1     -10.391   3.655   2.677  0.00  0.00    +0.030 A 
ATOM     13  C   UNL     1     -11.379   4.582   2.888  0.00  0.00    +0.017 A 
ATOM     14  C   UNL     1     -11.098   5.940   2.942  0.00  0.00    +0.019 A 
ATOM     15  C   UNL     1      -9.792   6.369   2.780  0.00  0.00    +0.032 A 
ATOM     16  C   UNL     1      -8.798   5.447   2.569  0.00  0.00    +0.042 A 
ATOM     17  S   UNL     1      -7.040   5.528   2.323  0.00  0.00    -0.052 S 
ATOM     18 BR   UNL     1     -12.485   7.192   3.233  0.00  0.00    -0.050 Br
ENDROOT
BRANCH   1  20
ATOM     19  C   UNL     1      -1.308  -0.759  -0.225  0.00  0.00    +0.013 C 
ATOM     20  C   UNL     1      -2.434  -0.106   0.132  0.00  0.00    +0.068 C 
BRANCH  19  26
ATOM     21  C   UNL     1      -0.436   0.861  -1.897  0.00  0.00    +0.012 A 
ATOM     22  C   UNL     1       0.610   1.551  -2.471  0.00  0.00    +0.050 A 
ATOM     23  C   UNL     1       1.905   1.374  -2.002  0.00  0.00    +0.166 A 
ATOM     24  C   UNL     1       2.154   0.495  -0.946  0.00  0.00    +0.167 A 
ATOM     25  C   UNL     1       1.111  -0.200  -0.366  0.00  0.00    +0.057 A 
ATOM     26  C   UNL     1      -0.194  -0.021  -0.839  0.00  0.00    -0.021 A 
ATOM     27  O   UNL     1       3.493   0.503  -0.679  0.00  0.00    -0.453 OA
ATOM     28  C   UNL     1       4.112   1.080  -1.844  0.00  0.00    +0.466 C 
ATOM     29  O   UNL     1       3.088   1.929  -2.393  0.00  0.00    -0.453 OA
ENDBRANCH  19  26
ENDBRANCH   1  20
TORSDOF 2
