REMARK  Name = ZINC12704042
REMARK  9 active torsions:
REMARK  status: ('A' for Active; 'I' for Inactive)
REMARK    1  A    between atoms: C_1  and  C_2
REMARK    2  A    between atoms: C_5  and  C_7
REMARK    3  A    between atoms: C_7  and  C_9
REMARK    4  A    between atoms: C_7  and  N_17
REMARK    5  A    between atoms: N_11  and  C_12
REMARK    6  A    between atoms: N_17  and  C_18
REMARK    7  A    between atoms: C_26  and  C_28
REMARK    8  A    between atoms: C_29  and  N_36
REMARK    9  A    between atoms: C_30  and  C_33
REMARK                            x       y       z     vdW  Elec       q    Type
REMARK                         _______ _______ _______ _____ _____    ______ ____
ROOT
ATOM      1  N   UNL     1      -4.393   3.461   2.152  0.00  0.00    -0.248 N 
ATOM      2  C   UNL     1      -4.067   4.767   2.215  0.00  0.00    +0.262 C 
ATOM      3  O   UNL     1      -3.816   5.280   3.290  0.00  0.00    -0.269 OA
ENDROOT
BRANCH   1   4
ATOM      4  C   UNL     1      -4.786   2.895   0.933  0.00  0.00    +0.039 A 
ATOM      5  C   UNL     1      -3.848   2.267   0.124  0.00  0.00    +0.026 A 
ATOM      6  C   UNL     1      -4.237   1.710  -1.078  0.00  0.00    +0.041 A 
ATOM      7  C   UNL     1      -5.561   1.776  -1.478  0.00  0.00    +0.142 A 
ATOM      8  C   UNL     1      -6.499   2.403  -0.672  0.00  0.00    +0.078 A 
ATOM      9  C   UNL     1      -6.114   2.957   0.534  0.00  0.00    +0.046 A 
ATOM     10 CL   UNL     1      -8.158   2.484  -1.175  0.00  0.00    -0.081 Cl
ATOM     11  F   UNL     1      -5.939   1.230  -2.654  0.00  0.00    -0.204 F 
ENDBRANCH   1   4
BRANCH   2  12
ATOM     12  C   UNL     1      -4.014   5.568   0.991  0.00  0.00    +0.116 A 
ATOM     13  C   UNL     1      -3.651   6.906   0.824  0.00  0.00    +0.076 A 
ATOM     14  C   UNL     1      -3.725   7.317  -0.507  0.00  0.00    +0.155 A 
ATOM     15  N   UNL     1      -4.115   6.459  -1.425  0.00  0.00    -0.203 NA
ATOM     16  S   UNL     1      -4.403   5.099  -0.683  0.00  0.00    +0.019 S 
BRANCH  14  17
ATOM     17  C   UNL     1      -3.374   8.699  -0.881  0.00  0.00    +0.262 C 
ATOM     18  O   UNL     1      -3.015   9.487  -0.027  0.00  0.00    -0.269 OA
ATOM     19  N   UNL     1      -3.452   9.090  -2.168  0.00  0.00    -0.324 N 
ATOM     20  H   UNL     1      -3.739   8.462  -2.849  0.00  0.00    +0.145 HD
ATOM     21  H   UNL     1      -3.222  10.000  -2.414  0.00  0.00    +0.145 HD
ENDBRANCH  14  17
BRANCH  13  22
ATOM     22  N   UNL     1      -3.258   7.734   1.866  0.00  0.00    -0.355 N 
ATOM     23  H   UNL     1      -3.224   7.391   2.772  0.00  0.00    +0.142 HD
ATOM     24  H   UNL     1      -3.017   8.657   1.688  0.00  0.00    +0.142 HD
ENDBRANCH  13  22
ENDBRANCH   2  12
BRANCH   1  25
ATOM     25  C   UNL     1      -4.337   2.632   3.359  0.00  0.00    +0.233 C 
BRANCH  25  30
ATOM     26  C   UNL     1      -2.530  -1.572   1.238  0.00  0.00    +0.086 C 
ATOM     27  C   UNL     1      -2.689  -0.404   2.178  0.00  0.00    +0.102 A 
ATOM     28  C   UNL     1      -1.906  -0.134   3.237  0.00  0.00    +0.045 A 
ATOM     29  C   UNL     1      -2.412   1.044   3.832  0.00  0.00    +0.047 A 
ATOM     30  C   UNL     1      -3.475   1.424   3.100  0.00  0.00    +0.135 A 
ATOM     31  O   UNL     1      -3.635   0.546   2.096  0.00  0.00    -0.462 OA
ENDBRANCH  25  30
BRANCH  25  32
ATOM     32  C   UNL     1      -5.729   2.187   3.728  0.00  0.00    +0.242 C 
ATOM     33  O   UNL     1      -6.675   2.528   3.049  0.00  0.00    -0.273 OA
ATOM     34  N   UNL     1      -5.923   1.410   4.812  0.00  0.00    -0.311 N 
ATOM     35  H   UNL     1      -5.167   1.138   5.355  0.00  0.00    +0.149 HD
BRANCH  34  36
ATOM     36  C   UNL     1      -7.276   0.977   5.170  0.00  0.00    +0.073 C 
ATOM     37  C   UNL     1      -7.946   2.031   6.075  0.00  0.00    +0.022 C 
ATOM     38  C   UNL     1      -8.770   1.196   7.086  0.00  0.00    +0.002 C 
ATOM     39  C   UNL     1      -7.848  -0.019   7.358  0.00  0.00    +0.002 C 
ATOM     40  C   UNL     1      -7.213  -0.326   5.985  0.00  0.00    +0.022 C 
ENDBRANCH  34  36
ENDBRANCH  25  32
ENDBRANCH   1  25
TORSDOF 8
