REMARK  Name = ZINC20467609
REMARK  8 active torsions:
REMARK  status: ('A' for Active; 'I' for Inactive)
REMARK    1  A    between atoms: C_1  and  C_2
REMARK    2  A    between atoms: C_2  and  O_3
REMARK    3  A    between atoms: O_3  and  C_4
REMARK    4  A    between atoms: C_4  and  C_6
REMARK    5  A    between atoms: C_9  and  N_12
REMARK    6  A    between atoms: N_12  and  S_13
REMARK    7  A    between atoms: S_13  and  C_16
REMARK    8  A    between atoms: C_21  and  N_22
REMARK                            x       y       z     vdW  Elec       q    Type
REMARK                         _______ _______ _______ _____ _____    ______ ____
ROOT
ATOM      1  S   UNL     1      -2.548   4.837  -0.044  0.00  0.00    +0.095 S 
ATOM      2  O   UNL     1      -2.403   5.691  -1.171  0.00  0.00    -0.148 OA
ATOM      3  O   UNL     1      -3.591   3.877   0.055  0.00  0.00    -0.148 OA
ENDROOT
BRANCH   1   4
ATOM      4  C   UNL     1      -1.033   3.953   0.116  0.00  0.00    +0.151 A 
ATOM      5  C   UNL     1      -0.013   4.137  -0.801  0.00  0.00    +0.049 A 
ATOM      6  C   UNL     1       1.162   3.414  -0.639  0.00  0.00    +0.038 A 
ATOM      7  C   UNL     1       1.282   2.548   0.430  0.00  0.00    +0.128 A 
ATOM      8  N   UNL     1       0.294   2.396   1.292  0.00  0.00    -0.238 NA
ATOM      9  C   UNL     1      -0.844   3.063   1.169  0.00  0.00    +0.143 A 
ATOM     10 BR   UNL     1       2.587   3.621  -1.865  0.00  0.00    -0.049 Br
BRANCH   9  11
ATOM     11  N   UNL     1      -1.858   2.872   2.100  0.00  0.00    -0.342 N 
ATOM     12  H   UNL     1      -1.714   2.170   2.934  0.00  0.00    +0.144 HD
ATOM     13  H   UNL     1      -2.805   3.424   2.002  0.00  0.00    +0.144 HD
ENDBRANCH   9  11
ENDBRANCH   1   4
BRANCH   1  14
ATOM     14  N   UNL     1      -2.683   5.821   1.281  0.00  0.00    -0.098 NA
BRANCH  14  18
ATOM     15  C   UNL     1      -0.045   8.993   1.792  0.00  0.00    +0.059 A 
ATOM     16  C   UNL     1      -1.418   9.187   1.974  0.00  0.00    +0.017 A 
ATOM     17  C   UNL     1      -2.286   8.139   1.804  0.00  0.00    +0.027 A 
ATOM     18  C   UNL     1      -1.801   6.882   1.452  0.00  0.00    +0.074 A 
ATOM     19  C   UNL     1      -0.434   6.684   1.276  0.00  0.00    +0.027 A 
ATOM     20  C   UNL     1       0.439   7.729   1.438  0.00  0.00    +0.017 A 
BRANCH  15  21
ATOM     21  C   UNL     1       0.890  10.118   1.973  0.00  0.00    +0.339 C 
ATOM     22  O   UNL     1       0.468  11.215   2.280  0.00  0.00    -0.245 OA
BRANCH  21  23
ATOM     23  O   UNL     1       2.213   9.929   1.798  0.00  0.00    -0.461 OA
BRANCH  23  25
ATOM     24  C   UNL     1       4.530  10.676   1.752  0.00  0.00    +0.048 C 
ATOM     25  C   UNL     1       3.074  11.081   1.993  0.00  0.00    +0.229 C 
ENDBRANCH  23  25
ENDBRANCH  21  23
ENDBRANCH  15  21
ENDBRANCH  14  18
ENDBRANCH   1  14
TORSDOF 7
