REMARK  Name = ZINC64363643
REMARK  8 active torsions:
REMARK  status: ('A' for Active; 'I' for Inactive)
REMARK    1  A    between atoms: C_1  and  C_2
REMARK    2  A    between atoms: C_4  and  C_12
REMARK    3  A    between atoms: C_12  and  C_13
REMARK    4  A    between atoms: N_15  and  C_16
REMARK    5  A    between atoms: C_16  and  C_18
REMARK    6  A    between atoms: C_16  and  C_19
REMARK    7  A    between atoms: C_23  and  N_25
REMARK    8  A    between atoms: C_26  and  C_28
REMARK                            x       y       z     vdW  Elec       q    Type
REMARK                         _______ _______ _______ _____ _____    ______ ____
ROOT
ATOM      1  C   UNL     1       2.362  -1.217  -5.776  0.00  0.00    +0.100 C 
ATOM      2  C   UNL     1       2.023  -2.674  -6.100  0.00  0.00    +0.033 C 
ENDROOT
BRANCH   1   3
ATOM      3  C   UNL     1       2.435  -0.422  -7.054  0.00  0.00    -0.026 A 
ATOM      4  C   UNL     1       1.273   0.024  -7.657  0.00  0.00    +0.005 A 
ATOM      5  C   UNL     1       1.336   0.754  -8.829  0.00  0.00    +0.002 A 
ATOM      6  C   UNL     1       2.560   1.041  -9.402  0.00  0.00    +0.023 A 
ATOM      7  C   UNL     1       3.728   0.594  -8.799  0.00  0.00    +0.034 A 
ATOM      8  C   UNL     1       3.662  -0.135  -7.618  0.00  0.00    +0.028 A 
BRANCH   7   9
ATOM      9  N   UNL     1       4.969   0.882  -9.375  0.00  0.00    -0.281 N 
ATOM     10  C   UNL     1       5.164   2.060 -10.002  0.00  0.00    +0.248 C 
ATOM     11  O   UNL     1       4.238   2.835 -10.140  0.00  0.00    -0.270 OA
ATOM     12  H   UNL     1       5.690   0.235  -9.325  0.00  0.00    +0.155 HD
BRANCH  10  13
ATOM     13  C   UNL     1       6.504   2.408 -10.521  0.00  0.00    +0.037 A 
ATOM     14  C   UNL     1       7.568   1.517 -10.368  0.00  0.00    +0.013 A 
ATOM     15  C   UNL     1       8.816   1.849 -10.855  0.00  0.00    +0.001 A 
ATOM     16  C   UNL     1       9.014   3.061 -11.492  0.00  0.00    +0.000 A 
ATOM     17  C   UNL     1       7.963   3.948 -11.646  0.00  0.00    +0.001 A 
ATOM     18  C   UNL     1       6.709   3.627 -11.170  0.00  0.00    +0.013 A 
ENDBRANCH  10  13
ENDBRANCH   7   9
ENDBRANCH   1   3
BRANCH   1  21
ATOM     19  C   UNL     1       1.389  -0.832  -3.575  0.00  0.00    +0.218 C 
ATOM     20  O   UNL     1       2.309  -1.457  -3.091  0.00  0.00    -0.275 OA
ATOM     21  N   UNL     1       1.322  -0.655  -4.910  0.00  0.00    -0.308 N 
ATOM     22  H   UNL     1       0.587  -0.155  -5.296  0.00  0.00    +0.149 HD
BRANCH  19  23
ATOM     23  C   UNL     1       0.320  -0.254  -2.684  0.00  0.00    +0.129 C 
BRANCH  23  26
ATOM     24  C   UNL     1      -1.103  -1.951  -0.317  0.00  0.00    +0.035 C 
ATOM     25  C   UNL     1       0.406  -1.718  -0.415  0.00  0.00    +0.104 C 
ATOM     26  C   UNL     1       0.690  -0.483  -1.242  0.00  0.00    -0.030 C 
ATOM     27  C   UNL     1       1.343   0.373  -0.424  0.00  0.00    -0.000 A 
ATOM     28  C   UNL     1       1.885   1.722  -0.625  0.00  0.00    +0.010 A 
ATOM     29  C   UNL     1       2.502   2.342   0.407  0.00  0.00    +0.001 A 
ATOM     30  C   UNL     1       2.638   1.729   1.660  0.00  0.00    +0.002 A 
ATOM     31  C   UNL     1       2.166   0.491   1.921  0.00  0.00    +0.026 A 
ATOM     32  C   UNL     1       1.499  -0.252   0.909  0.00  0.00    +0.043 A 
ATOM     33  N   UNL     1       0.963  -1.450   0.915  0.00  0.00    -0.378 N 
ATOM     34  H   UNL     1       0.939  -2.057   1.672  0.00  0.00    +0.160 HD
ENDBRANCH  23  26
ENDBRANCH  19  23
ENDBRANCH   1  21
TORSDOF 6
