REMARK  Name = ZINC34747577
REMARK  6 active torsions:
REMARK  status: ('A' for Active; 'I' for Inactive)
REMARK    1  A    between atoms: C_1  and  C_2
REMARK    2  A    between atoms: C_5  and  N_8
REMARK    3  A    between atoms: C_9  and  C_11
REMARK    4  A    between atoms: C_11  and  N_12
REMARK    5  A    between atoms: N_31  and  C_32
REMARK    6  A    between atoms: C_32  and  C_33
REMARK                            x       y       z     vdW  Elec       q    Type
REMARK                         _______ _______ _______ _____ _____    ______ ____
ROOT
ATOM      1  N   UNL     1       0.466  -6.764   2.530  0.00  0.00    +0.387 N 
ATOM      2  C   UNL     1       1.702  -6.276   3.156  0.00  0.00    -0.059 C 
ATOM      3  C   UNL     1       1.746  -6.729   4.619  0.00  0.00    +0.089 C 
ATOM      4  N   UNL     1       1.581  -8.191   4.659  0.00  0.00    -0.304 N 
ATOM      5  C   UNL     1       0.456  -8.782   3.919  0.00  0.00    +0.089 C 
ATOM      6  C   UNL     1       0.473  -8.232   2.489  0.00  0.00    -0.059 C 
ATOM      7  C   UNL     1       2.452  -8.980   5.368  0.00  0.00    +0.202 A 
ATOM      8  N   UNL     1       3.572  -9.381   4.802  0.00  0.00    -0.208 NA
ATOM      9  C   UNL     1       4.433 -10.145   5.464  0.00  0.00    +0.117 A 
ATOM     10  C   UNL     1       4.200 -10.560   6.786  0.00  0.00    +0.076 A 
ATOM     11  C   UNL     1       5.239 -11.400   7.385  0.00  0.00    -0.023 A 
ATOM     12  C   UNL     1       6.309 -11.690   6.617  0.00  0.00    -0.004 A 
ATOM     13  S   UNL     1       6.003 -10.875   5.073  0.00  0.00    -0.073 S 
ATOM     14  C   UNL     1       7.497 -12.523   6.993  0.00  0.00    +0.043 C 
ATOM     15  C   UNL     1       7.501 -12.701   8.518  0.00  0.00    +0.005 C 
ATOM     16  C   UNL     1       6.096 -13.112   8.968  0.00  0.00    +0.005 C 
ATOM     17  C   UNL     1       5.134 -11.934   8.811  0.00  0.00    +0.037 C 
ATOM     18  C   UNL     1       2.976 -10.109   7.375  0.00  0.00    +0.264 A 
ATOM     19  O   UNL     1       2.689 -10.419   8.518  0.00  0.00    -0.267 OA
ATOM     20  N   UNL     1       2.150  -9.332   6.650  0.00  0.00    -0.271 N 
ATOM     21  H   UNL     1      -0.328  -6.448   3.067  0.00  0.00    -0.081 HD
ENDROOT
BRANCH   1  22
ATOM     22  C   UNL     1       0.371  -6.238   1.162  0.00  0.00    +0.019 C 
BRANCH  22  24
ATOM     23  N   UNL     1       0.139  -4.034   0.064  0.00  0.00    -0.287 N 
ATOM     24  C   UNL     1       0.241  -4.737   1.209  0.00  0.00    +0.201 C 
ATOM     25  O   UNL     1       0.228  -4.163   2.277  0.00  0.00    -0.278 OA
ATOM     26  H   UNL     1       0.088  -4.497  -0.787  0.00  0.00    +0.155 HD
BRANCH  23  31
ATOM     27  C   UNL     1       0.001   1.635   0.221  0.00  0.00    +0.044 C 
ATOM     28  C   UNL     1       0.038   0.129   0.179  0.00  0.00    -0.050 A 
ATOM     29  C   UNL     1      -0.563  -0.604   1.187  0.00  0.00    +0.005 A 
ATOM     30  C   UNL     1      -0.531  -1.984   1.151  0.00  0.00    +0.023 A 
ATOM     31  C   UNL     1       0.104  -2.636   0.102  0.00  0.00    +0.033 A 
ATOM     32  C   UNL     1       0.706  -1.897  -0.908  0.00  0.00    +0.023 A 
ATOM     33  C   UNL     1       0.667  -0.517  -0.869  0.00  0.00    +0.005 A 
ENDBRANCH  23  31
ENDBRANCH  22  24
ENDBRANCH   1  22
BRANCH  20  34
ATOM     34  C   UNL     1       0.898  -8.862   7.248  0.00  0.00    +0.223 C 
BRANCH  34  35
ATOM     35  C   UNL     1      -0.216  -9.813   6.894  0.00  0.00    +0.230 C 
ATOM     36  O   UNL     1       0.013 -10.787   6.209  0.00  0.00    -0.274 OA
ATOM     37  N   UNL     1      -1.468  -9.580   7.338  0.00  0.00    -0.328 N 
ATOM     38  H   UNL     1      -1.651  -8.801   7.885  0.00  0.00    +0.145 HD
ATOM     39  H   UNL     1      -2.185 -10.192   7.109  0.00  0.00    +0.145 HD
ENDBRANCH  34  35
ENDBRANCH  20  34
TORSDOF 5
