REMARK  Name = ZINC40298939
REMARK  8 active torsions:
REMARK  status: ('A' for Active; 'I' for Inactive)
REMARK    1  A    between atoms: C_1  and  C_2
REMARK    2  A    between atoms: C_7  and  N_8
REMARK    3  A    between atoms: C_9  and  C_11
REMARK    4  A    between atoms: C_11  and  N_12
REMARK    5  A    between atoms: C_20  and  C_21
REMARK    6  A    between atoms: C_21  and  C_23
REMARK    7  A    between atoms: C_21  and  N_24
REMARK    8  A    between atoms: C_25  and  C_27
REMARK                            x       y       z     vdW  Elec       q    Type
REMARK                         _______ _______ _______ _____ _____    ______ ____
ROOT
ATOM      1  N   UNL     1      -0.241  -0.905   5.988  0.00  0.00    -0.317 N 
ATOM      2  C   UNL     1      -1.391  -1.459   6.516  0.00  0.00    +0.069 A 
ATOM      3  C   UNL     1      -2.744  -1.333   6.232  0.00  0.00    +0.028 A 
ATOM      4  C   UNL     1      -3.666  -2.046   6.968  0.00  0.00    +0.002 A 
ATOM      5  C   UNL     1      -3.250  -2.888   7.990  0.00  0.00    +0.002 A 
ATOM      6  C   UNL     1      -1.923  -3.024   8.284  0.00  0.00    +0.030 A 
ATOM      7  C   UNL     1      -0.970  -2.312   7.551  0.00  0.00    +0.089 A 
ATOM      8  N   UNL     1       0.385  -2.236   7.600  0.00  0.00    -0.230 NA
ATOM      9  C   UNL     1       0.810  -1.418   6.682  0.00  0.00    +0.131 A 
ENDROOT
BRANCH   9  10
ATOM     10  C   UNL     1       2.258  -1.084   6.428  0.00  0.00    +0.136 C 
ATOM     11  C   UNL     1       2.765  -0.146   7.524  0.00  0.00    +0.036 C 
BRANCH  10  12
ATOM     12  N   UNL     1       3.051  -2.315   6.433  0.00  0.00    -0.299 N 
ATOM     13  C   UNL     1       4.217  -2.369   5.759  0.00  0.00    +0.280 C 
ATOM     14  O   UNL     1       4.611  -1.394   5.147  0.00  0.00    -0.267 OA
ATOM     15  H   UNL     1       2.737  -3.093   6.921  0.00  0.00    +0.150 HD
BRANCH  13  16
ATOM     16  C   UNL     1       5.012  -3.601   5.765  0.00  0.00    +0.189 A 
ATOM     17  C   UNL     1       6.207  -3.788   5.132  0.00  0.00    +0.054 A 
ATOM     18  C   UNL     1       6.606  -5.106   5.404  0.00  0.00    +0.042 A 
ATOM     19  C   UNL     1       5.649  -5.659   6.181  0.00  0.00    +0.196 A 
ATOM     20  O   UNL     1       4.692  -4.748   6.400  0.00  0.00    -0.458 OA
ENDBRANCH  13  16
ENDBRANCH  10  12
ENDBRANCH   9  10
BRANCH   1  21
ATOM     21  C   UNL     1      -0.168   0.052   4.882  0.00  0.00    +0.219 C 
BRANCH  21  23
ATOM     22  N   UNL     1       0.025  -0.015   2.417  0.00  0.00    -0.284 N 
ATOM     23  C   UNL     1      -0.056  -0.694   3.578  0.00  0.00    +0.237 C 
ATOM     24  O   UNL     1      -0.040  -1.907   3.573  0.00  0.00    -0.274 OA
ATOM     25  H   UNL     1       0.078   0.954   2.425  0.00  0.00    +0.155 HD
BRANCH  22  32
ATOM     26  C   UNL     1      -1.264   1.184   0.181  0.00  0.00    +0.045 C 
ATOM     27  C   UNL     1      -0.584  -0.158   0.084  0.00  0.00    -0.029 A 
ATOM     28  C   UNL     1      -0.568  -0.840  -1.117  0.00  0.00    +0.005 A 
ATOM     29  C   UNL     1       0.055  -2.071  -1.206  0.00  0.00    +0.000 A 
ATOM     30  C   UNL     1       0.666  -2.622  -0.095  0.00  0.00    +0.002 A 
ATOM     31  C   UNL     1       0.655  -1.945   1.108  0.00  0.00    +0.023 A 
ATOM     32  C   UNL     1       0.034  -0.706   1.201  0.00  0.00    +0.036 A 
ENDBRANCH  22  32
ENDBRANCH  21  23
ENDBRANCH   1  21
TORSDOF 6
