REMARK  Name = ZINC06629908
REMARK  11 active torsions:
REMARK  status: ('A' for Active; 'I' for Inactive)
REMARK    1  A    between atoms: C_1  and  C_2
REMARK    2  A    between atoms: C_2  and  N_3
REMARK    3  A    between atoms: N_3  and  C_4
REMARK    4  A    between atoms: N_3  and  C_6
REMARK    5  A    between atoms: C_4  and  C_5
REMARK    6  A    between atoms: C_9  and  N_13
REMARK    7  A    between atoms: C_10  and  C_12
REMARK    8  A    between atoms: C_14  and  C_16
REMARK    9  A    between atoms: C_17  and  C_18
REMARK   10  A    between atoms: C_23  and  O_24
REMARK   11  A    between atoms: O_24  and  C_25
REMARK                            x       y       z     vdW  Elec       q    Type
REMARK                         _______ _______ _______ _____ _____    ______ ____
ROOT
ATOM      1  N   UNL     1       1.704  -6.159   0.572  0.00  0.00    -0.282 N 
ATOM      2  C   UNL     1       0.777  -7.072   0.921  0.00  0.00    +0.241 C 
ATOM      3  O   UNL     1      -0.326  -6.710   1.288  0.00  0.00    -0.270 OA
ATOM      4  H   UNL     1       2.559  -6.448   0.216  0.00  0.00    +0.155 HD
ENDROOT
BRANCH   1   8
ATOM      5  C   UNL     1       0.900  -2.097   1.021  0.00  0.00    +0.014 A 
ATOM      6  C   UNL     1      -0.140  -2.991   0.842  0.00  0.00    +0.023 A 
ATOM      7  C   UNL     1       0.123  -4.338   0.692  0.00  0.00    +0.025 A 
ATOM      8  C   UNL     1       1.434  -4.796   0.722  0.00  0.00    +0.037 A 
ATOM      9  C   UNL     1       2.477  -3.896   0.903  0.00  0.00    -0.028 A 
ATOM     10  C   UNL     1       2.207  -2.549   1.047  0.00  0.00    +0.026 A 
ATOM     11  C   UNL     1       3.901  -4.388   0.938  0.00  0.00    +0.046 C 
BRANCH   5  12
ATOM     12  N   UNL     1       0.630  -0.734   1.172  0.00  0.00    -0.394 NA
ATOM     13  H   UNL     1       1.497  -0.230   1.288  0.00  0.00    +0.126 HD
BRANCH  12  15
ATOM     14  C   UNL     1       0.856  -0.344  -1.235  0.00  0.00    +0.022 C 
ATOM     15  C   UNL     1      -0.069  -0.238  -0.021  0.00  0.00    +0.081 C 
ENDBRANCH  12  15
BRANCH  12  16
ATOM     16  C   UNL     1      -0.216  -0.530   2.355  0.00  0.00    +0.081 C 
ATOM     17  C   UNL     1       0.556  -0.939   3.611  0.00  0.00    +0.022 C 
ENDBRANCH  12  16
ENDBRANCH   5  12
ENDBRANCH   1   8
BRANCH   2  18
ATOM     18  C   UNL     1       1.095  -8.498   0.860  0.00  0.00    +0.068 C 
ATOM     19  C   UNL     1       0.166  -9.413   1.210  0.00  0.00    +0.016 C 
BRANCH  19  20
ATOM     20  C   UNL     1       0.485 -10.846   1.148  0.00  0.00    +0.018 A 
ATOM     21  C   UNL     1       1.754 -11.267   0.732  0.00  0.00    +0.026 A 
ATOM     22  C   UNL     1       2.046 -12.613   0.676  0.00  0.00    +0.019 A 
ATOM     23  C   UNL     1       1.089 -13.552   1.031  0.00  0.00    +0.019 A 
ATOM     24  C   UNL     1      -0.166 -13.150   1.443  0.00  0.00    +0.047 A 
ATOM     25  C   UNL     1      -0.477 -11.801   1.511  0.00  0.00    +0.127 A 
ATOM     26 BR   UNL     1       3.760 -13.181   0.114  0.00  0.00    -0.050 Br
BRANCH  25  27
ATOM     27  O   UNL     1      -1.709 -11.405   1.921  0.00  0.00    -0.495 OA
ATOM     28  C   UNL     1      -2.636 -12.433   2.275  0.00  0.00    +0.277 C 
ENDBRANCH  25  27
ENDBRANCH  19  20
ENDBRANCH   2  18
TORSDOF 7
