REMARK  Name = ZINC33052226
REMARK  5 active torsions:
REMARK  status: ('A' for Active; 'I' for Inactive)
REMARK    1  A    between atoms: C_1  and  C_2
REMARK    2  A    between atoms: C_7  and  N_8
REMARK    3  A    between atoms: C_14  and  C_38
REMARK    4  A    between atoms: N_16  and  C_32
REMARK    5  A    between atoms: C_23  and  C_25
REMARK                            x       y       z     vdW  Elec       q    Type
REMARK                         _______ _______ _______ _____ _____    ______ ____
ROOT
ATOM      1  N   UNL     1       5.048   0.515  -2.595  0.00  0.00    -0.269 N 
ATOM      2  C   UNL     1       4.123   0.479  -1.615  0.00  0.00    +0.308 C 
ATOM      3  O   UNL     1       3.987  -0.525  -0.943  0.00  0.00    -0.252 OA
ATOM      4  N   UNL     1       3.348   1.557  -1.381  0.00  0.00    -0.268 N 
ATOM      5  C   UNL     1       3.477   2.802  -2.175  0.00  0.00    +0.151 C 
ATOM      6  C   UNL     1       3.334   4.021  -1.313  0.00  0.00    +0.035 A 
ATOM      7  C   UNL     1       4.305   4.935  -0.914  0.00  0.00    +0.067 A 
ATOM      8  N   UNL     1       3.727   5.866  -0.193  0.00  0.00    -0.169 NA
ATOM      9  N   UNL     1       2.354   5.575  -0.109  0.00  0.00    -0.215 N 
ATOM     10  C   UNL     1       2.146   4.424  -0.774  0.00  0.00    +0.146 A 
ATOM     11  N   UNL     1       0.998   3.636  -0.915  0.00  0.00    -0.303 N 
ATOM     12  C   UNL     1      -0.270   3.978  -1.242  0.00  0.00    +0.093 A 
ATOM     13  C   UNL     1      -0.992   2.840  -1.354  0.00  0.00    +0.020 A 
ATOM     14  C   UNL     1      -0.134   1.761  -1.048  0.00  0.00    +0.025 A 
ATOM     15  C   UNL     1       1.072   2.274  -0.759  0.00  0.00    +0.050 A 
ATOM     16  C   UNL     1       2.318   1.565  -0.317  0.00  0.00    +0.155 C 
ATOM     17  C   UNL     1       5.772   4.866  -1.252  0.00  0.00    +0.068 C 
ATOM     18  H   UNL     1       5.216   1.444  -3.159  0.00  0.00    +0.156 HD
ENDROOT
BRANCH   1  25
ATOM     19  C   UNL     1       6.036   0.207  -5.245  0.00  0.00    +0.045 C 
ATOM     20  C   UNL     1       6.296  -0.820  -4.174  0.00  0.00    -0.029 A 
ATOM     21  C   UNL     1       7.034  -1.951  -4.465  0.00  0.00    +0.005 A 
ATOM     22  C   UNL     1       7.273  -2.894  -3.483  0.00  0.00    +0.000 A 
ATOM     23  C   UNL     1       6.776  -2.708  -2.206  0.00  0.00    +0.002 A 
ATOM     24  C   UNL     1       6.042  -1.577  -1.907  0.00  0.00    +0.023 A 
ATOM     25  C   UNL     1       5.795  -0.630  -2.893  0.00  0.00    +0.038 A 
ENDBRANCH   1  25
BRANCH  16  26
ATOM     26  C   UNL     1       2.875   2.259   0.899  0.00  0.00    -0.020 A 
ATOM     27  C   UNL     1       2.018   2.807   1.836  0.00  0.00    +0.006 A 
ATOM     28  C   UNL     1       2.527   3.443   2.952  0.00  0.00    +0.002 A 
ATOM     29  C   UNL     1       3.895   3.533   3.132  0.00  0.00    +0.020 A 
ATOM     30  C   UNL     1       4.753   2.985   2.196  0.00  0.00    +0.041 A 
ATOM     31  C   UNL     1       4.242   2.343   1.081  0.00  0.00    +0.025 A 
ATOM     32 CL   UNL     1       6.471   3.097   2.422  0.00  0.00    -0.084 Cl
ENDBRANCH  16  26
BRANCH   9  33
ATOM     33  C   UNL     1       1.382   6.342   0.548  0.00  0.00    +0.068 A 
ATOM     34  C   UNL     1       1.413   7.727   0.460  0.00  0.00    +0.028 A 
ATOM     35  C   UNL     1       0.450   8.480   1.105  0.00  0.00    +0.002 A 
ATOM     36  C   UNL     1      -0.536   7.855   1.845  0.00  0.00    +0.000 A 
ATOM     37  C   UNL     1      -0.566   6.476   1.939  0.00  0.00    +0.002 A 
ATOM     38  C   UNL     1       0.390   5.718   1.293  0.00  0.00    +0.028 A 
ENDBRANCH   9  33
TORSDOF 3
