REMARK  Name = ZINC49405447
REMARK  6 active torsions:
REMARK  status: ('A' for Active; 'I' for Inactive)
REMARK    1  A    between atoms: C_6  and  N_7
REMARK    2  A    between atoms: C_8  and  C_10
REMARK    3  A    between atoms: C_10  and  S_11
REMARK    4  A    between atoms: S_11  and  C_12
REMARK    5  A    between atoms: C_14  and  C_18
REMARK    6  A    between atoms: C_20  and  C_23
REMARK                            x       y       z     vdW  Elec       q    Type
REMARK                         _______ _______ _______ _____ _____    ______ ____
ROOT
ATOM      1  C   UNL     1      -3.718  -5.347  -0.450  0.00  0.00    +0.098 A 
ATOM      2  C   UNL     1      -3.826  -6.729  -0.560  0.00  0.00    +0.048 A 
ATOM      3  C   UNL     1      -5.095  -7.302  -0.649  0.00  0.00    +0.043 A 
ATOM      4  C   UNL     1      -6.210  -6.453  -0.621  0.00  0.00    +0.033 A 
ATOM      5  C   UNL     1      -6.016  -5.093  -0.509  0.00  0.00    +0.113 A 
ATOM      6  N   UNL     1      -4.801  -4.584  -0.423  0.00  0.00    -0.249 NA
ENDROOT
BRANCH   3   7
ATOM      7  C   UNL     1      -5.260  -8.768  -0.768  0.00  0.00    +0.259 A 
ATOM      8  N   UNL     1      -6.400  -9.412  -0.862  0.00  0.00    -0.192 NA
ATOM      9  C   UNL     1      -6.178 -10.724  -0.956  0.00  0.00    +0.175 A 
ATOM     10  N   UNL     1      -4.894 -10.943  -0.923  0.00  0.00    -0.061 NA
ATOM     11  O   UNL     1      -4.267  -9.674  -0.805  0.00  0.00    -0.333 OA
BRANCH   9  12
ATOM     12  C   UNL     1      -7.242 -11.785  -1.079  0.00  0.00    +0.060 C 
ATOM     13  C   UNL     1      -6.799 -13.245  -0.971  0.00  0.00    +0.012 C 
ATOM     14  C   UNL     1      -7.215 -12.670  -2.326  0.00  0.00    +0.012 C 
ENDBRANCH   9  12
ENDBRANCH   3   7
BRANCH   1  15
ATOM     15  S   UNL     1      -2.125  -4.603  -0.337  0.00  0.00    -0.097 S 
BRANCH  15  16
ATOM     16  C   UNL     1      -2.478  -2.828  -0.204  0.00  0.00    +0.171 C 
BRANCH  16  18
ATOM     17  N   UNL     1      -1.200  -0.722   0.010  0.00  0.00    -0.285 N 
ATOM     18  C   UNL     1      -1.183  -2.065  -0.099  0.00  0.00    +0.227 C 
ATOM     19  O   UNL     1      -0.126  -2.659  -0.113  0.00  0.00    -0.275 OA
ATOM     20  H   UNL     1      -2.044  -0.252   0.098  0.00  0.00    +0.155 HD
BRANCH  17  26
ATOM     21  C   UNL     1       1.072  -0.453  -0.766  0.00  0.00    +0.024 A 
ATOM     22  C   UNL     1       2.256   0.258  -0.778  0.00  0.00    +0.017 A 
ATOM     23  C   UNL     1       2.377   1.416  -0.032  0.00  0.00    +0.018 A 
ATOM     24  C   UNL     1       1.312   1.866   0.729  0.00  0.00    +0.017 A 
ATOM     25  C   UNL     1       0.126   1.159   0.745  0.00  0.00    +0.024 A 
ATOM     26  C   UNL     1       0.002  -0.004  -0.004  0.00  0.00    +0.033 A 
ATOM     27 BR   UNL     1       4.000   2.387  -0.051  0.00  0.00    -0.050 Br
ENDBRANCH  17  26
ENDBRANCH  16  18
ENDBRANCH  15  16
ENDBRANCH   1  15
TORSDOF 6
