REMARK  Name = ZINC33435749
REMARK  3 active torsions:
REMARK  status: ('A' for Active; 'I' for Inactive)
REMARK    1  A    between atoms: C_5  and  N_7
REMARK    2  A    between atoms: C_8  and  C_10
REMARK    3  A    between atoms: C_11  and  N_15
REMARK                            x       y       z     vdW  Elec       q    Type
REMARK                         _______ _______ _______ _____ _____    ______ ____
ROOT
ATOM      1  N   UNL     1       1.083  -1.879  -3.775  0.00  0.00    -0.261 N 
ATOM      2  C   UNL     1       0.027  -1.205  -3.276  0.00  0.00    +0.307 C 
ATOM      3  O   UNL     1      -0.345  -0.177  -3.808  0.00  0.00    -0.252 OA
ATOM      4  N   UNL     1      -0.617  -1.672  -2.188  0.00  0.00    -0.284 N 
ATOM      5  C   UNL     1      -0.253  -2.966  -1.598  0.00  0.00    +0.114 C 
ATOM      6  C   UNL     1      -0.031  -2.817  -0.099  0.00  0.00    +0.027 C 
ATOM      7  C   UNL     1      -1.204  -2.091   0.560  0.00  0.00    +0.018 C 
ATOM      8  C   UNL     1      -1.338  -0.708  -0.082  0.00  0.00    +0.054 C 
ATOM      9  C   UNL     1      -1.701  -0.896  -1.565  0.00  0.00    +0.119 C 
ATOM     10  C   UNL     1      -0.012   0.013  -0.020  0.00  0.00    +0.027 A 
ATOM     11  C   UNL     1      -0.038   1.373  -0.023  0.00  0.00    +0.022 A 
ATOM     12  C   UNL     1       1.152   2.108  -0.038  0.00  0.00    +0.007 A 
ATOM     13  C   UNL     1       2.340   1.437  -0.082  0.00  0.00    +0.070 A 
ATOM     14  C   UNL     1       2.332   0.036  -0.092  0.00  0.00    +0.251 A 
ATOM     15  O   UNL     1       3.384  -0.574  -0.201  0.00  0.00    -0.268 OA
ATOM     16  N   UNL     1       1.167  -0.650   0.019  0.00  0.00    -0.312 N 
ATOM     17  C   UNL     1       1.267  -2.096   0.216  0.00  0.00    +0.130 C 
ATOM     18  H   UNL     1       1.367  -2.851  -3.346  0.00  0.00    +0.157 HD
ENDROOT
BRANCH   1  20
ATOM     19  C   UNL     1       2.927  -1.863  -5.486  0.00  0.00    +0.178 A 
ATOM     20  C   UNL     1       1.809  -1.346  -4.827  0.00  0.00    +0.126 A 
ATOM     21  S   UNL     1       1.582   0.148  -5.680  0.00  0.00    +0.052 S 
ATOM     22  N   UNL     1       2.882   0.004  -6.782  0.00  0.00    -0.108 NA
ATOM     23  N   UNL     1       3.417  -1.128  -6.473  0.00  0.00    -0.135 NA
BRANCH  19  25
ATOM     24  N   UNL     1       4.602  -3.615  -5.771  0.00  0.00    -0.279 N 
ATOM     25  C   UNL     1       3.523  -3.152  -5.109  0.00  0.00    +0.271 C 
ATOM     26  O   UNL     1       3.042  -3.801  -4.199  0.00  0.00    -0.268 OA
ATOM     27  H   UNL     1       5.091  -2.989  -6.531  0.00  0.00    +0.155 HD
BRANCH  24  32
ATOM     28  C   UNL     1       4.755  -7.125  -4.686  0.00  0.00    +0.002 A 
ATOM     29  C   UNL     1       6.083  -7.420  -4.938  0.00  0.00    +0.002 A 
ATOM     30  C   UNL     1       6.921  -6.454  -5.464  0.00  0.00    +0.022 A 
ATOM     31  C   UNL     1       6.432  -5.192  -5.746  0.00  0.00    +0.062 A 
ATOM     32  C   UNL     1       5.099  -4.892  -5.490  0.00  0.00    +0.052 A 
ATOM     33  C   UNL     1       4.261  -5.865  -4.962  0.00  0.00    +0.025 A 
ATOM     34 CL   UNL     1       7.483  -3.982  -6.414  0.00  0.00    -0.082 Cl
ENDBRANCH  24  32
ENDBRANCH  19  25
ENDBRANCH   1  20
TORSDOF 3
