REMARK  Name = ZINC66253797
REMARK  11 active torsions:
REMARK  status: ('A' for Active; 'I' for Inactive)
REMARK    1  A    between atoms: C_1  and  C_2
REMARK    2  A    between atoms: C_3  and  S_21
REMARK    3  A    between atoms: C_5  and  N_7
REMARK    4  A    between atoms: N_7  and  S_8
REMARK    5  A    between atoms: S_8  and  C_11
REMARK    6  A    between atoms: C_14  and  C_17
REMARK    7  A    between atoms: C_17  and  C_18
REMARK    8  A    between atoms: C_18  and  C_19
REMARK    9  A    between atoms: C_18  and  C_20
REMARK   10  A    between atoms: S_21  and  C_22
REMARK   11  A    between atoms: C_22  and  C_23
REMARK                            x       y       z     vdW  Elec       q    Type
REMARK                         _______ _______ _______ _____ _____    ______ ____
ROOT
ATOM      1  N   UNL     1       0.052  -2.861   2.245  0.00  0.00    -0.070 NA
ENDROOT
BRANCH   1   6
ATOM      2  C   UNL     1      -0.018   1.503   0.010  0.00  0.00    +0.067 C 
ATOM      3  C   UNL     1       0.002  -0.004   0.002  0.00  0.00    +0.061 A 
ATOM      4  C   UNL     1       0.005  -0.682  -1.178  0.00  0.00    +0.070 A 
ATOM      5  S   UNL     1       0.031  -2.370  -0.589  0.00  0.00    -0.043 S 
ATOM      6  C   UNL     1       0.035  -1.995   1.158  0.00  0.00    +0.203 A 
ATOM      7  N   UNL     1       0.022  -0.675   1.141  0.00  0.00    -0.226 NA
BRANCH   4   8
ATOM      8  S   UNL     1      -0.012  -0.066  -2.829  0.00  0.00    -0.107 S 
BRANCH   8   9
ATOM      9  C   UNL     1       0.003  -1.562  -3.855  0.00  0.00    +0.170 C 
BRANCH   9  10
ATOM     10  C   UNL     1      -0.010  -1.173  -5.311  0.00  0.00    +0.221 C 
ATOM     11  O   UNL     1      -0.028  -0.001  -5.625  0.00  0.00    -0.275 OA
ATOM     12  N   UNL     1      -0.002  -2.126  -6.263  0.00  0.00    -0.329 N 
ATOM     13  H   UNL     1       0.013  -3.062  -6.012  0.00  0.00    +0.145 HD
ATOM     14  H   UNL     1      -0.010  -1.875  -7.200  0.00  0.00    +0.145 HD
ENDBRANCH   9  10
ENDBRANCH   8   9
ENDBRANCH   4   8
ENDBRANCH   1   6
BRANCH   1  15
ATOM     15  S   UNL     1       0.074  -4.499   1.998  0.00  0.00    +0.093 S 
ATOM     16  O   UNL     1      -1.170  -4.835   1.399  0.00  0.00    -0.148 OA
ATOM     17  O   UNL     1       1.320  -4.801   1.387  0.00  0.00    -0.148 OA
BRANCH  15  18
ATOM     18  C   UNL     1       0.092  -5.264   3.585  0.00  0.00    +0.110 A 
ATOM     19  C   UNL     1       1.296  -5.543   4.204  0.00  0.00    +0.029 A 
ATOM     20  C   UNL     1       1.310  -6.144   5.449  0.00  0.00    +0.005 A 
ATOM     21  C   UNL     1       0.121  -6.466   6.075  0.00  0.00    -0.047 A 
ATOM     22  C   UNL     1      -1.083  -6.186   5.456  0.00  0.00    +0.005 A 
ATOM     23  C   UNL     1      -1.098  -5.581   4.213  0.00  0.00    +0.029 A 
BRANCH  21  24
ATOM     24  C   UNL     1       0.136  -7.122   7.431  0.00  0.00    +0.038 C 
BRANCH  24  25
ATOM     25  C   UNL     1       0.121  -6.045   8.518  0.00  0.00    -0.013 C 
ATOM     26  C   UNL     1       0.011  -6.709   9.892  0.00  0.00    +0.007 C 
ATOM     27  C   UNL     1       1.414  -5.230   8.448  0.00  0.00    +0.007 C 
ENDBRANCH  24  25
ENDBRANCH  21  24
ENDBRANCH  15  18
ENDBRANCH   1  15
TORSDOF 8
