REMARK  Name = ZINC15958453
REMARK  5 active torsions:
REMARK  status: ('A' for Active; 'I' for Inactive)
REMARK    1  A    between atoms: C_1  and  C_2
REMARK    2  A    between atoms: C_17  and  C_20
REMARK    3  A    between atoms: C_20  and  C_21
REMARK    4  A    between atoms: N_26  and  C_29
REMARK    5  A    between atoms: C_32  and  C_35
REMARK                            x       y       z     vdW  Elec       q    Type
REMARK                         _______ _______ _______ _____ _____    ______ ____
ROOT
ATOM      1  C   UNL     1       0.120   1.504  -0.027  0.00  0.00    +0.044 C 
ATOM      2  C   UNL     1       0.324   0.013  -0.103  0.00  0.00    -0.049 A 
ATOM      3  C   UNL     1       0.205  -0.642  -1.317  0.00  0.00    +0.011 A 
ATOM      4  C   UNL     1       0.391  -2.005  -1.386  0.00  0.00    +0.005 A 
ATOM      5  C   UNL     1       0.698  -2.738  -0.243  0.00  0.00    +0.057 A 
ATOM      6  C   UNL     1       0.816  -2.071   0.974  0.00  0.00    +0.063 A 
ATOM      7  C   UNL     1       0.634  -0.704   1.038  0.00  0.00    +0.025 A 
ATOM      8 CL   UNL     1       1.198  -2.961   2.415  0.00  0.00    -0.082 Cl
ATOM      9  N   UNL     1       0.838  -4.091  -0.561  0.00  0.00    -0.282 N 
ATOM     10  C   UNL     1       0.642  -4.327  -1.873  0.00  0.00    +0.243 C 
ATOM     11  O   UNL     1       0.700  -5.403  -2.432  0.00  0.00    -0.273 OA
ATOM     12  C   UNL     1       0.339  -3.000  -2.510  0.00  0.00    +0.136 C 
ATOM     13  C   UNL     1      -1.034  -3.005  -3.193  0.00  0.00    +0.123 C 
ATOM     14  C   UNL     1      -0.848  -2.111  -4.451  0.00  0.00    +0.108 C 
ATOM     15  C   UNL     1       0.618  -1.635  -4.386  0.00  0.00    +0.076 C 
ATOM     16  N   UNL     1       1.314  -2.672  -3.567  0.00  0.00    -0.295 NA
ATOM     17  C   UNL     1      -1.023  -3.081  -5.598  0.00  0.00    +0.232 C 
ATOM     18  O   UNL     1      -0.947  -2.797  -6.774  0.00  0.00    -0.274 OA
ATOM     19  N   UNL     1      -1.274  -4.303  -5.112  0.00  0.00    -0.210 N 
ATOM     20  C   UNL     1      -1.313  -4.378  -3.762  0.00  0.00    +0.233 C 
ATOM     21  O   UNL     1      -1.531  -5.376  -3.108  0.00  0.00    -0.274 OA
ATOM     22  H   UNL     1       1.051  -4.780   0.087  0.00  0.00    +0.155 HD
ATOM     23  H   UNL     1       2.166  -2.303  -3.171  0.00  0.00    +0.124 HD
ENDROOT
BRANCH  19  24
ATOM     24  C   UNL     1      -1.485  -5.414  -5.934  0.00  0.00    +0.044 A 
ATOM     25  C   UNL     1      -2.740  -6.010  -5.984  0.00  0.00    +0.025 A 
ATOM     26  C   UNL     1      -2.953  -7.105  -6.792  0.00  0.00    +0.015 A 
ATOM     27  C   UNL     1      -1.905  -7.616  -7.563  0.00  0.00    +0.037 A 
ATOM     28  C   UNL     1      -0.645  -7.013  -7.510  0.00  0.00    +0.015 A 
ATOM     29  C   UNL     1      -0.442  -5.916  -6.704  0.00  0.00    +0.025 A 
BRANCH  27  30
ATOM     30  C   UNL     1      -2.128  -8.789  -8.430  0.00  0.00    +0.242 C 
ATOM     31  O   UNL     1      -3.225  -9.313  -8.475  0.00  0.00    -0.270 OA
ATOM     32  N   UNL     1      -1.117  -9.281  -9.173  0.00  0.00    -0.325 N 
ATOM     33  H   UNL     1      -0.242  -8.863  -9.138  0.00  0.00    +0.145 HD
ATOM     34  H   UNL     1      -1.264 -10.052  -9.743  0.00  0.00    +0.145 HD
ENDBRANCH  27  30
ENDBRANCH  19  24
BRANCH  15  35
ATOM     35  C   UNL     1       1.226  -1.588  -5.789  0.00  0.00    +0.115 C 
BRANCH  35  36
ATOM     36  C   UNL     1       2.614  -1.005  -5.717  0.00  0.00    +0.212 C 
ATOM     37  O   UNL     1       3.072  -0.661  -4.648  0.00  0.00    -0.276 OA
ATOM     38  N   UNL     1       3.345  -0.866  -6.840  0.00  0.00    -0.329 N 
ATOM     39  H   UNL     1       2.979  -1.141  -7.695  0.00  0.00    +0.145 HD
ATOM     40  H   UNL     1       4.239  -0.491  -6.793  0.00  0.00    +0.145 HD
ENDBRANCH  35  36
ENDBRANCH  15  35
TORSDOF 4
