REMARK  Name = ZINC08607241
REMARK  9 active torsions:
REMARK  status: ('A' for Active; 'I' for Inactive)
REMARK    1  A    between atoms: C_1  and  C_2
REMARK    2  A    between atoms: C_2  and  S_3
REMARK    3  A    between atoms: S_3  and  C_4
REMARK    4  A    between atoms: C_9  and  C_25
REMARK    5  A    between atoms: C_11  and  C_15
REMARK    6  A    between atoms: C_12  and  C_14
REMARK    7  A    between atoms: N_17  and  C_18
REMARK    8  A    between atoms: C_23  and  C_24
REMARK    9  A    between atoms: C_28  and  C_31
REMARK                            x       y       z     vdW  Elec       q    Type
REMARK                         _______ _______ _______ _____ _____    ______ ____
ROOT
ATOM      1  C   UNL     1       0.566  -2.357  -1.425  0.00  0.00    +0.210 A 
ATOM      2  N   UNL     1       0.055  -3.057  -0.402  0.00  0.00    -0.187 NA
ATOM      3  C   UNL     1       0.237  -4.332  -0.612  0.00  0.00    +0.219 A 
ATOM      4  N   UNL     1       0.886  -4.476  -1.794  0.00  0.00    -0.220 N 
ATOM      5  N   UNL     1       1.079  -3.193  -2.302  0.00  0.00    -0.141 NA
ATOM      6  C   UNL     1       1.270  -5.770  -2.353  0.00  0.00    +0.177 C 
ATOM      7  C   UNL     1       0.585  -6.870  -1.587  0.00  0.00    +0.060 C 
ATOM      8  C   UNL     1      -0.046  -6.667  -0.421  0.00  0.00    +0.018 C 
ATOM      9  N   UNL     1      -0.125  -5.426   0.162  0.00  0.00    -0.287 N 
ATOM     10  C   UNL     1      -0.691  -7.840   0.272  0.00  0.00    +0.061 C 
ATOM     11  H   UNL     1      -0.423  -5.318   1.079  0.00  0.00    +0.155 HD
ENDROOT
BRANCH   6  12
ATOM     12  C   UNL     1       2.764  -5.939  -2.247  0.00  0.00    -0.018 A 
ATOM     13  C   UNL     1       3.373  -5.921  -1.005  0.00  0.00    +0.007 A 
ATOM     14  C   UNL     1       4.739  -6.074  -0.901  0.00  0.00    +0.015 A 
ATOM     15  C   UNL     1       5.509  -6.250  -2.054  0.00  0.00    +0.063 A 
ATOM     16  C   UNL     1       4.887  -6.268  -3.305  0.00  0.00    +0.015 A 
ATOM     17  C   UNL     1       3.519  -6.118  -3.393  0.00  0.00    +0.007 A 
BRANCH  15  18
ATOM     18  C   UNL     1       6.971  -6.415  -1.951  0.00  0.00    +0.387 C 
ATOM     19  O   UNL     1       7.513  -6.398  -0.855  0.00  0.00    -0.241 OA
ATOM     20  O   UNL     1       7.642  -6.568  -2.962  0.00  0.00    -0.241 OA
ENDBRANCH  15  18
ENDBRANCH   6  12
BRANCH   7  21
ATOM     21  C   UNL     1       0.608  -8.180  -2.122  0.00  0.00    +0.248 C 
ATOM     22  O   UNL     1      -0.168  -8.488  -3.009  0.00  0.00    -0.270 OA
ATOM     23  N   UNL     1       1.487  -9.085  -1.650  0.00  0.00    -0.281 N 
ATOM     24  H   UNL     1       2.060  -8.860  -0.901  0.00  0.00    +0.155 HD
BRANCH  23  25
ATOM     25  C   UNL     1       1.574 -10.350  -2.241  0.00  0.00    +0.037 A 
ATOM     26  C   UNL     1       0.433 -10.963  -2.743  0.00  0.00    +0.023 A 
ATOM     27  C   UNL     1       0.521 -12.212  -3.326  0.00  0.00    +0.002 A 
ATOM     28  C   UNL     1       1.744 -12.851  -3.411  0.00  0.00    +0.000 A 
ATOM     29  C   UNL     1       2.882 -12.244  -2.913  0.00  0.00    +0.005 A 
ATOM     30  C   UNL     1       2.801 -10.992  -2.333  0.00  0.00    -0.029 A 
ATOM     31  C   UNL     1       4.043 -10.328  -1.796  0.00  0.00    +0.045 C 
ENDBRANCH  23  25
ENDBRANCH   7  21
BRANCH   1  32
ATOM     32  S   UNL     1       0.547  -0.602  -1.575  0.00  0.00    -0.085 S 
BRANCH  32  34
ATOM     33  C   UNL     1      -0.372   1.486  -0.065  0.00  0.00    +0.016 C 
ATOM     34  C   UNL     1      -0.287  -0.042  -0.064  0.00  0.00    +0.074 C 
ENDBRANCH  32  34
ENDBRANCH   1  32
TORSDOF 6
