REMARK  Name = ZINC59879562
REMARK  12 active torsions:
REMARK  status: ('A' for Active; 'I' for Inactive)
REMARK    1  A    between atoms: C_1  and  C_2
REMARK    2  A    between atoms: C_2  and  C_3
REMARK    3  A    between atoms: C_2  and  C_4
REMARK    4  A    between atoms: C_7  and  C_9
REMARK    5  A    between atoms: C_9  and  N_10
REMARK    6  A    between atoms: C_11  and  C_13
REMARK    7  A    between atoms: C_13  and  S_14
REMARK    8  A    between atoms: S_14  and  C_15
REMARK    9  A    between atoms: N_20  and  N_21
REMARK   10  A    between atoms: C_22  and  C_23
REMARK   11  A    between atoms: C_22  and  C_24
REMARK   12  A    between atoms: C_27  and  N_30
REMARK                            x       y       z     vdW  Elec       q    Type
REMARK                         _______ _______ _______ _____ _____    ______ ____
ROOT
ATOM      1  C   UNL     1      -8.847  -0.985  -5.775  0.00  0.00    +0.211 A 
ATOM      2  N   UNL     1      -9.854  -1.267  -6.608  0.00  0.00    -0.186 NA
ATOM      3  C   UNL     1     -10.222  -0.174  -7.244  0.00  0.00    +0.232 A 
ATOM      4  N   UNL     1      -9.440   0.840  -6.816  0.00  0.00    -0.245 N 
ATOM      5  N   UNL     1      -8.564   0.293  -5.864  0.00  0.00    -0.144 NA
ATOM      6  N   UNL     1     -11.232  -0.081  -8.184  0.00  0.00    -0.205 N 
ATOM      7  H   UNL     1     -11.430   0.772  -8.600  0.00  0.00    +0.177 HD
ATOM      8  H   UNL     1      -9.477   1.765  -7.106  0.00  0.00    +0.192 HD
ENDROOT
BRANCH   6   9
ATOM      9  N   UNL     1     -11.968  -1.220  -8.535  0.00  0.00    -0.184 NA
ATOM     10  C   UNL     1     -12.917  -1.133  -9.417  0.00  0.00    +0.063 C 
ATOM     11  C   UNL     1     -13.225   0.193 -10.064  0.00  0.00    +0.068 C 
BRANCH  10  12
ATOM     12  C   UNL     1     -13.692  -2.331  -9.787  0.00  0.00    -0.002 A 
ATOM     13  C   UNL     1     -14.709  -2.240 -10.741  0.00  0.00    +0.011 A 
ATOM     14  C   UNL     1     -15.432  -3.362 -11.084  0.00  0.00    +0.023 A 
ATOM     15  C   UNL     1     -15.150  -4.583 -10.481  0.00  0.00    +0.025 A 
ATOM     16  C   UNL     1     -14.139  -4.677  -9.531  0.00  0.00    +0.023 A 
ATOM     17  C   UNL     1     -13.408  -3.561  -9.188  0.00  0.00    +0.011 A 
BRANCH  15  18
ATOM     18  N   UNL     1     -15.884  -5.717 -10.831  0.00  0.00    -0.358 N 
ATOM     19  H   UNL     1     -16.590  -5.653 -11.493  0.00  0.00    +0.142 HD
ATOM     20  H   UNL     1     -15.689  -6.570 -10.412  0.00  0.00    +0.142 HD
ENDBRANCH  15  18
ENDBRANCH  10  12
ENDBRANCH   6   9
BRANCH   1  21
ATOM     21  S   UNL     1      -8.036  -2.141  -4.721  0.00  0.00    -0.075 S 
BRANCH  21  22
ATOM     22  C   UNL     1      -6.789  -1.147  -3.856  0.00  0.00    +0.173 C 
BRANCH  22  24
ATOM     23  N   UNL     1      -5.029  -1.501  -2.155  0.00  0.00    -0.306 N 
ATOM     24  C   UNL     1      -6.014  -2.027  -2.909  0.00  0.00    +0.224 C 
ATOM     25  O   UNL     1      -6.276  -3.208  -2.827  0.00  0.00    -0.275 OA
ATOM     26  H   UNL     1      -4.819  -0.556  -2.221  0.00  0.00    +0.149 HD
BRANCH  23  27
ATOM     27  C   UNL     1      -4.275  -2.356  -1.235  0.00  0.00    +0.202 C 
BRANCH  27  31
ATOM     28  C   UNL     1      -1.412  -0.526   0.013  0.00  0.00    +0.220 A 
ATOM     29  N   UNL     1      -2.310  -0.300   0.929  0.00  0.00    -0.112 NA
ATOM     30  N   UNL     1      -3.403  -0.901   0.613  0.00  0.00    -0.111 NA
ATOM     31  C   UNL     1      -3.239  -1.530  -0.516  0.00  0.00    +0.234 A 
ATOM     32  O   UNL     1      -1.979  -1.304  -0.924  0.00  0.00    -0.423 OA
BRANCH  28  34
ATOM     33  C   UNL     1      -0.019   1.526   0.010  0.00  0.00    +0.017 C 
ATOM     34  C   UNL     1       0.002  -0.004   0.002  0.00  0.00    +0.071 C 
ATOM     35  C   UNL     1       0.742  -0.511   1.242  0.00  0.00    +0.017 C 
ENDBRANCH  28  34
ENDBRANCH  27  31
ENDBRANCH  23  27
ENDBRANCH  22  24
ENDBRANCH  21  22
ENDBRANCH   1  21
TORSDOF 9
