REMARK  Name = ZINC03438111
REMARK  13 active torsions:
REMARK  status: ('A' for Active; 'I' for Inactive)
REMARK    1  A    between atoms: C_1  and  C_2
REMARK    2  A    between atoms: C_7  and  S_8
REMARK    3  A    between atoms: S_8  and  C_9
REMARK    4  A    between atoms: C_9  and  C_10
REMARK    5  A    between atoms: C_10  and  O_12
REMARK    6  A    between atoms: O_12  and  C_13
REMARK    7  A    between atoms: C_13  and  C_14
REMARK    8  A    between atoms: N_16  and  C_17
REMARK    9  A    between atoms: C_17  and  C_18
REMARK   10  A    between atoms: C_21  and  O_26
REMARK   11  A    between atoms: C_22  and  O_24
REMARK   12  A    between atoms: O_24  and  C_25
REMARK   13  A    between atoms: O_26  and  C_27
REMARK                            x       y       z     vdW  Elec       q    Type
REMARK                         _______ _______ _______ _____ _____    ______ ____
ROOT
ATOM      1  C   UNL     1       4.547   6.208  -0.008  0.00  0.00    +0.251 C 
ATOM      2  O   UNL     1       5.445   5.393  -0.021  0.00  0.00    -0.272 OA
ATOM      3  N   UNL     1       4.832   7.525  -0.004  0.00  0.00    -0.308 N 
ATOM      4  H   UNL     1       4.018   8.264   0.008  0.00  0.00    +0.149 HD
ENDROOT
BRANCH   1   5
ATOM      5  C   UNL     1       3.112   5.748   0.003  0.00  0.00    +0.327 C 
BRANCH   5   6
ATOM      6  O   UNL     1       3.069   4.296  -0.004  0.00  0.00    -0.455 OA
BRANCH   6   7
ATOM      7  C   UNL     1       1.855   3.722   0.004  0.00  0.00    +0.318 C 
ATOM      8  O   UNL     1       0.862   4.410   0.018  0.00  0.00    -0.250 OA
BRANCH   7   9
ATOM      9  C   UNL     1       1.732   2.220  -0.003  0.00  0.00    +0.194 C 
BRANCH   9  10
ATOM     10  S   UNL     1      -0.022   1.758   0.012  0.00  0.00    -0.114 S 
BRANCH  10  17
ATOM     11  C   UNL     1      -2.507   0.017   0.038  0.00  0.00    +0.045 C 
ATOM     12  C   UNL     1      -1.191  -0.717   0.015  0.00  0.00    -0.036 A 
ATOM     13  C   UNL     1      -1.169  -2.097   0.003  0.00  0.00    +0.019 A 
ATOM     14  C   UNL     1       0.040  -2.771  -0.012  0.00  0.00    +0.018 A 
ATOM     15  C   UNL     1       1.230  -2.064  -0.020  0.00  0.00    +0.016 A 
ATOM     16  C   UNL     1       1.214  -0.684  -0.013  0.00  0.00    +0.016 A 
ATOM     17  C   UNL     1       0.002  -0.004   0.002  0.00  0.00    +0.011 A 
ATOM     18 BR   UNL     1       0.065  -4.662  -0.022  0.00  0.00    -0.050 Br
ENDBRANCH  10  17
ENDBRANCH   9  10
ENDBRANCH   7   9
ENDBRANCH   6   7
ENDBRANCH   5   6
ENDBRANCH   1   5
BRANCH   3  19
ATOM     19  C   UNL     1       6.227   7.972  -0.015  0.00  0.00    +0.139 C 
BRANCH  19  20
ATOM     20  C   UNL     1       6.272   9.479  -0.007  0.00  0.00    -0.027 A 
ATOM     21  C   UNL     1       6.286  10.174  -1.202  0.00  0.00    +0.009 A 
ATOM     22  C   UNL     1       6.321  11.556  -1.200  0.00  0.00    +0.050 A 
ATOM     23  C   UNL     1       6.353  12.247   0.001  0.00  0.00    +0.162 A 
ATOM     24  C   UNL     1       6.344  11.547   1.203  0.00  0.00    +0.162 A 
ATOM     25  C   UNL     1       6.303  10.162   1.195  0.00  0.00    +0.054 A 
BRANCH  24  26
ATOM     26  O   UNL     1       6.375  12.220   2.385  0.00  0.00    -0.491 OA
ATOM     27  C   UNL     1       6.363  11.436   3.579  0.00  0.00    +0.277 C 
ENDBRANCH  24  26
BRANCH  23  28
ATOM     28  O   UNL     1       6.393  13.606   0.004  0.00  0.00    -0.491 OA
ATOM     29  C   UNL     1       6.400  14.258  -1.267  0.00  0.00    +0.277 C 
ENDBRANCH  23  28
ENDBRANCH  19  20
ENDBRANCH   3  19
TORSDOF 10
