REMARK  Name = ZINC13959023
REMARK  4 active torsions:
REMARK  status: ('A' for Active; 'I' for Inactive)
REMARK    1  A    between atoms: C_3  and  C_6
REMARK    2  A    between atoms: C_8  and  C_33
REMARK    3  A    between atoms: C_12  and  C_15
REMARK    4  A    between atoms: C_20  and  C_23
REMARK                            x       y       z     vdW  Elec       q    Type
REMARK                         _______ _______ _______ _____ _____    ______ ____
ROOT
ATOM      1  C   UNL     1      -1.108  -5.387  -0.015  0.00  0.00    +0.255 C 
ATOM      2  O   UNL     1       0.047  -5.001  -0.025  0.00  0.00    -0.270 OA
ATOM      3  N   UNL     1      -1.377  -6.707  -0.019  0.00  0.00    -0.261 N 
ATOM      4  C   UNL     1      -0.338  -7.628  -0.034  0.00  0.00    +0.165 A 
ATOM      5  N   UNL     1      -0.398  -8.946  -0.040  0.00  0.00    -0.229 NA
ATOM      6  C   UNL     1       0.698  -9.679  -0.055  0.00  0.00    +0.057 A 
ATOM      7  C   UNL     1       1.898  -9.049  -0.064  0.00  0.00    +0.072 A 
ATOM      8  S   UNL     1       1.375  -7.340  -0.058  0.00  0.00    -0.060 S 
ATOM      9  H   UNL     1      -2.297  -7.014  -0.011  0.00  0.00    +0.157 HD
ENDROOT
BRANCH   6  10
ATOM     10  C   UNL     1       0.619 -11.184  -0.061  0.00  0.00    +0.014 C 
ATOM     11  C   UNL     1       1.621 -11.752   0.946  0.00  0.00    +0.016 C 
ATOM     12  C   UNL     1       1.540 -13.280   0.940  0.00  0.00    -0.010 C 
ATOM     13  C   UNL     1       0.125 -13.717   1.325  0.00  0.00    +0.007 C 
ATOM     14  C   UNL     1      -0.877 -13.149   0.318  0.00  0.00    -0.010 C 
ATOM     15  C   UNL     1      -0.796 -11.621   0.324  0.00  0.00    +0.016 C 
ATOM     16  C   UNL     1      -0.545 -13.672  -1.081  0.00  0.00    +0.007 C 
ATOM     17  C   UNL     1       0.869 -13.235  -1.467  0.00  0.00    -0.010 C 
ATOM     18  C   UNL     1       1.871 -13.803  -0.460  0.00  0.00    +0.007 C 
ATOM     19  C   UNL     1       0.950 -11.707  -1.461  0.00  0.00    +0.016 C 
ENDBRANCH   6  10
BRANCH   1  26
ATOM     20  C   UNL     1      -1.178  -0.885   0.009  0.00  0.00    +0.110 A 
ATOM     21  C   UNL     1      -2.478  -0.329   0.029  0.00  0.00    +0.064 A 
ATOM     22  C   UNL     1      -3.549  -1.154   0.031  0.00  0.00    +0.149 A 
ATOM     23  N   UNL     1      -3.352  -2.506   0.021  0.00  0.00    -0.209 N 
ATOM     24  C   UNL     1      -2.082  -3.011   0.007  0.00  0.00    +0.169 A 
ATOM     25  N   UNL     1      -1.024  -2.203   0.001  0.00  0.00    -0.224 NA
ATOM     26  C   UNL     1      -2.204  -4.416   0.001  0.00  0.00    +0.101 A 
ATOM     27  C   UNL     1      -3.581  -4.706   0.013  0.00  0.00    +0.150 A 
ATOM     28  N   UNL     1      -4.247  -3.583   0.025  0.00  0.00    -0.172 NA
BRANCH  20  31
ATOM     29  C   UNL     1       2.090   0.756  -0.014  0.00  0.00    +0.042 A 
ATOM     30  C   UNL     1       1.303  -0.409  -0.013  0.00  0.00    +0.051 A 
ATOM     31  C   UNL     1       0.002  -0.004   0.002  0.00  0.00    +0.153 A 
ATOM     32  O   UNL     1      -0.016   1.344   0.009  0.00  0.00    -0.461 OA
ATOM     33  C   UNL     1       1.243   1.806  -0.000  0.00  0.00    +0.196 A 
ENDBRANCH  20  31
BRANCH  22  34
ATOM     34  C   UNL     1      -4.946  -0.588   0.047  0.00  0.00    +0.434 C 
ATOM     35  F   UNL     1      -5.365  -0.420   1.372  0.00  0.00    -0.164 F 
ATOM     36  F   UNL     1      -4.955   0.649  -0.606  0.00  0.00    -0.164 F 
ATOM     37  F   UNL     1      -5.813  -1.468  -0.608  0.00  0.00    -0.164 F 
ENDBRANCH  22  34
ENDBRANCH   1  26
TORSDOF 4
