REMARK  Name = ZINC19635354
REMARK  4 active torsions:
REMARK  status: ('A' for Active; 'I' for Inactive)
REMARK    1  A    between atoms: C_1  and  S_2
REMARK    2  A    between atoms: S_2  and  C_3
REMARK    3  A    between atoms: C_5  and  C_8
REMARK    4  A    between atoms: C_15  and  C_19
REMARK                            x       y       z     vdW  Elec       q    Type
REMARK                         _______ _______ _______ _____ _____    ______ ____
ROOT
ATOM      1  C   UNL     1      -4.162  -3.160   0.035  0.00  0.00    +0.266 C 
ATOM      2  O   UNL     1      -3.678  -2.044   0.044  0.00  0.00    -0.268 OA
ATOM      3  N   UNL     1      -3.364  -4.242   0.130  0.00  0.00    -0.291 N 
ATOM      4  C   UNL     1      -1.905  -4.091   0.236  0.00  0.00    +0.115 C 
ATOM      5  C   UNL     1      -1.440  -4.584   1.611  0.00  0.00    +0.076 C 
ATOM      6  C   UNL     1      -2.106  -5.907   1.903  0.00  0.00    +0.070 A 
ATOM      7  C   UNL     1      -3.244  -6.371   1.231  0.00  0.00    +0.018 A 
ATOM      8  C   UNL     1      -3.573  -7.585   1.744  0.00  0.00    +0.073 A 
ATOM      9  N   UNL     1      -2.656  -7.873   2.715  0.00  0.00    -0.276 N 
ATOM     10  H   UNL     1      -2.633  -8.676   3.259  0.00  0.00    +0.189 HD
ATOM     11  N   UNL     1      -1.755  -6.801   2.784  0.00  0.00    -0.178 NA
ATOM     12  C   UNL     1      -3.935  -5.601   0.136  0.00  0.00    +0.147 C 
ENDROOT
BRANCH   8  13
ATOM     13  C   UNL     1      -4.710  -8.436   1.329  0.00  0.00    +0.035 A 
ATOM     14  C   UNL     1      -5.751  -8.697   2.221  0.00  0.00    +0.013 A 
ATOM     15  C   UNL     1      -6.809  -9.491   1.828  0.00  0.00    +0.001 A 
ATOM     16  C   UNL     1      -6.841 -10.028   0.553  0.00  0.00    +0.003 A 
ATOM     17  C   UNL     1      -5.813  -9.774  -0.337  0.00  0.00    +0.039 A 
ATOM     18  C   UNL     1      -4.749  -8.976   0.042  0.00  0.00    +0.133 A 
ATOM     19  F   UNL     1      -3.748  -8.724  -0.829  0.00  0.00    -0.205 F 
ENDBRANCH   8  13
BRANCH   1  22
ATOM     20  C   UNL     1      -7.452  -4.708  -0.368  0.00  0.00    +0.135 A 
ATOM     21  N   UNL     1      -6.148  -4.541  -0.264  0.00  0.00    -0.228 NA
ATOM     22  C   UNL     1      -5.620  -3.330  -0.079  0.00  0.00    +0.134 A 
ATOM     23  C   UNL     1      -6.455  -2.244   0.005  0.00  0.00    +0.080 A 
ATOM     24  S   UNL     1      -8.047  -3.031  -0.202  0.00  0.00    -0.069 S 
BRANCH  20  26
ATOM     25  C   UNL     1     -10.095  -5.642  -0.662  0.00  0.00    +0.092 C 
ATOM     26  S   UNL     1      -8.367  -6.194  -0.613  0.00  0.00    -0.102 S 
ENDBRANCH  20  26
ENDBRANCH   1  22
TORSDOF 3
