REMARK  Name = ZINC05722251
REMARK  14 active torsions:
REMARK  status: ('A' for Active; 'I' for Inactive)
REMARK    1  A    between atoms: CD1_1  and  CG1_2
REMARK    2  A    between atoms: CG1_2  and  CB_3
REMARK    3  A    between atoms: CB_3  and  CG2_5
REMARK    4  A    between atoms: CB_3  and  CA_6
REMARK    5  A    between atoms: CA_6  and  C_8
REMARK    6  A    between atoms: CA_6  and  N_18
REMARK    7  A    between atoms: N_10  and  CA_11
REMARK    8  A    between atoms: CA_11  and  C_12
REMARK    9  A    between atoms: N_14  and  CA_15
REMARK   10  A    between atoms: CA_15  and  C_16
REMARK   11  A    between atoms: C_19  and  CA_21
REMARK   12  A    between atoms: CA_21  and  N_22
REMARK   13  A    between atoms: C_23  and  CA_25
REMARK   14  A    between atoms: CA_25  and  N_49
REMARK                            x       y       z     vdW  Elec       q    Type
REMARK                         _______ _______ _______ _____ _____    ______ ____
ROOT
ATOM      1  CA  ILE A   3      -1.325   1.770  -0.033  0.00  0.00    +0.162 C 
ENDROOT
BRANCH   1   2
ATOM      2  C   ILE A   3      -2.538   1.166   0.625  0.00  0.00    +0.234 C 
ATOM      3  O   ILE A   3      -2.658  -0.039   0.686  0.00  0.00    -0.274 OA
ATOM      4  N   GLY A   4      -3.490   1.965   1.146  0.00  0.00    -0.305 N 
ATOM      5  H   GLY A   4      -3.430   2.927   1.035  0.00  0.00    +0.149 HD
BRANCH   4   6
ATOM      6  CA  GLY A   4      -4.615   1.381   1.881  0.00  0.00    +0.200 C 
BRANCH   6   7
ATOM      7  C   GLY A   4      -5.529   2.481   2.356  0.00  0.00    +0.231 C 
ATOM      8  O   GLY A   4      -5.267   3.638   2.106  0.00  0.00    -0.274 OA
ATOM      9  N   GLY A   5      -6.638   2.178   3.060  0.00  0.00    -0.303 N 
ATOM     10  H   GLY A   5      -6.848   1.253   3.260  0.00  0.00    +0.149 HD
BRANCH   9  11
ATOM     11  CA  GLY A   5      -7.527   3.247   3.522  0.00  0.00    +0.229 C 
BRANCH  11  12
ATOM     12  C   GLY A   5      -8.684   2.647   4.278  0.00  0.00    +0.373 C 
ATOM     13  O   GLY A   5      -8.759   1.449   4.417  0.00  0.00    -0.245 OA
ATOM     14  OXT GLY A   5      -9.632   3.443   4.797  0.00  0.00    -0.245 OA
ENDBRANCH  11  12
ENDBRANCH   9  11
ENDBRANCH   6   7
ENDBRANCH   4   6
ENDBRANCH   1   2
BRANCH   1  15
ATOM     15  N   ILE A   3      -0.202   0.834   0.060  0.00  0.00    -0.302 N 
ATOM     16  C   GLY A   2       1.065   1.294   0.013  0.00  0.00    +0.231 C 
ATOM     17  O   GLY A   2       1.274   2.483  -0.101  0.00  0.00    -0.274 OA
ATOM     18  H   ILE A   3      -0.369  -0.117   0.151  0.00  0.00    +0.150 HD
BRANCH  16  19
ATOM     19  CA  GLY A   2       2.220   0.330   0.103  0.00  0.00    +0.200 C 
BRANCH  19  20
ATOM     20  N   GLY A   2       3.481   1.072   0.029  0.00  0.00    -0.308 N 
ATOM     21  C   GLY A   1       4.655   0.412   0.090  0.00  0.00    +0.196 C 
ATOM     22  O   GLY A   1       4.667  -0.795   0.206  0.00  0.00    -0.278 OA
ATOM     23  H   GLY A   2       3.471   2.037  -0.063  0.00  0.00    +0.149 HD
BRANCH  21  24
ATOM     24  CA  GLY A   1       5.952   1.175   0.014  0.00  0.00    +0.011 C 
BRANCH  24  27
ATOM     25  H1  GLY A   1       7.961   0.724   0.053  0.00  0.00    -0.089 HD
ATOM     26  H2  GLY A   1       7.020  -0.322   0.940  0.00  0.00    -0.089 HD
ATOM     27  N   GLY A   1       7.074   0.222   0.081  0.00  0.00    +0.384 N 
ATOM     28  H3  GLY A   1       7.024  -0.415  -0.723  0.00  0.00    -0.089 HD
ENDBRANCH  24  27
ENDBRANCH  21  24
ENDBRANCH  19  20
ENDBRANCH  16  19
ENDBRANCH   1  15
BRANCH   1  29
ATOM     29  CB  ILE A   3      -1.631   2.054  -1.505  0.00  0.00    +0.015 C 
ATOM     30  CG2 ILE A   3      -2.717   3.127  -1.603  0.00  0.00    +0.010 C 
BRANCH  29  32
ATOM     31  CD1 ILE A   3      -2.308   1.022  -3.678  0.00  0.00    +0.004 C 
ATOM     32  CG1 ILE A   3      -2.120   0.771  -2.181  0.00  0.00    +0.002 C 
ENDBRANCH  29  32
ENDBRANCH   1  29
TORSDOF 12
