REMARK  Name = ZINC36766158
REMARK  3 active torsions:
REMARK  status: ('A' for Active; 'I' for Inactive)
REMARK    1  A    between atoms: C_3  and  C_8
REMARK    2  A    between atoms: C_9  and  C_15
REMARK    3  A    between atoms: C_13  and  N_14
REMARK                            x       y       z     vdW  Elec       q    Type
REMARK                         _______ _______ _______ _____ _____    ______ ____
ROOT
ATOM      1  C   UNL     1       3.638   2.201  -0.046  0.00  0.00    +0.049 A 
ATOM      2  C   UNL     1       4.661   2.112  -1.023  0.00  0.00    +0.103 A 
ATOM      3  N   UNL     1       5.652   2.889  -0.648  0.00  0.00    -0.172 NA
ATOM      4  N   UNL     1       5.315   3.500   0.565  0.00  0.00    -0.263 N 
ATOM      5  H   UNL     1       5.871   4.122   1.060  0.00  0.00    +0.190 HD
ATOM      6  C   UNL     1       4.077   3.079   0.927  0.00  0.00    +0.120 A 
ENDROOT
BRANCH   2   7
ATOM      7  C   UNL     1       4.620   1.286  -2.254  0.00  0.00    +0.022 A 
ATOM      8  C   UNL     1       3.496   1.314  -3.078  0.00  0.00    +0.011 A 
ATOM      9  C   UNL     1       3.462   0.543  -4.222  0.00  0.00    +0.002 A 
ATOM     10  C   UNL     1       4.541  -0.257  -4.553  0.00  0.00    +0.021 A 
ATOM     11  C   UNL     1       5.660  -0.291  -3.739  0.00  0.00    +0.060 A 
ATOM     12  C   UNL     1       5.707   0.481  -2.594  0.00  0.00    +0.068 A 
ATOM     13 CL   UNL     1       7.114   0.445  -1.577  0.00  0.00    -0.081 Cl
ATOM     14 CL   UNL     1       7.008  -1.300  -4.161  0.00  0.00    -0.082 Cl
ENDBRANCH   2   7
BRANCH   1  17
ATOM     15  C   UNL     1      -0.057   1.541  -0.239  0.00  0.00    +0.002 A 
ATOM     16  C   UNL     1       1.151   2.208  -0.219  0.00  0.00    +0.009 A 
ATOM     17  C   UNL     1       2.337   1.491  -0.067  0.00  0.00    -0.011 A 
ATOM     18  C   UNL     1       2.296   0.103   0.064  0.00  0.00    +0.024 A 
ATOM     19  C   UNL     1       1.081  -0.553   0.043  0.00  0.00    +0.018 A 
ATOM     20  C   UNL     1      -0.093   0.165  -0.108  0.00  0.00    +0.015 A 
ATOM     21 BR   UNL     1       1.022  -2.434   0.220  0.00  0.00    -0.050 Br
ENDBRANCH   1  17
BRANCH   6  22
ATOM     22  N   UNL     1       3.380   3.459   2.066  0.00  0.00    -0.343 N 
ATOM     23  H   UNL     1       2.496   3.099   2.237  0.00  0.00    +0.144 HD
ATOM     24  H   UNL     1       3.778   4.085   2.692  0.00  0.00    +0.144 HD
ENDBRANCH   6  22
TORSDOF 3
