REMARK  Name = ZINC15770337
REMARK  4 active torsions:
REMARK  status: ('A' for Active; 'I' for Inactive)
REMARK    1  A    between atoms: C_1  and  C_2
REMARK    2  A    between atoms: C_2  and  C_4
REMARK    3  A    between atoms: C_2  and  N_14
REMARK    4  A    between atoms: C_15  and  C_17
REMARK                            x       y       z     vdW  Elec       q    Type
REMARK                         _______ _______ _______ _____ _____    ______ ____
ROOT
ATOM      1  N   UNL     1      -4.657  -0.137  -0.860  0.00  0.00    -0.309 N 
ATOM      2  C   UNL     1      -5.660  -0.844  -1.419  0.00  0.00    +0.217 C 
ATOM      3  O   UNL     1      -5.762  -2.031  -1.195  0.00  0.00    -0.275 OA
ATOM      4  H   UNL     1      -4.575   0.813  -1.039  0.00  0.00    +0.149 HD
ENDROOT
BRANCH   2   5
ATOM      5  C   UNL     1      -6.653  -0.158  -2.322  0.00  0.00    +0.078 C 
ATOM      6  C   UNL     1      -7.372   0.948  -1.545  0.00  0.00    +0.032 C 
ATOM      7  C   UNL     1      -8.423   1.598  -2.448  0.00  0.00    +0.108 C 
ATOM      8  N   UNL     1      -9.384   0.582  -2.896  0.00  0.00    -0.310 N 
ATOM      9  C   UNL     1      -8.722  -0.465  -3.685  0.00  0.00    +0.108 C 
ATOM     10  C   UNL     1      -7.682  -1.178  -2.818  0.00  0.00    +0.032 C 
ATOM     11  C   UNL     1     -10.418   1.158  -3.606  0.00  0.00    +0.163 A 
ATOM     12  N   UNL     1     -11.234   2.119  -3.239  0.00  0.00    -0.223 NA
ATOM     13  C   UNL     1     -12.209   2.587  -4.046  0.00  0.00    +0.099 A 
ATOM     14  C   UNL     1     -13.152   3.609  -3.784  0.00  0.00    +0.032 A 
ATOM     15  C   UNL     1     -14.071   3.937  -4.755  0.00  0.00    +0.022 A 
ATOM     16  C   UNL     1     -14.074   3.277  -5.972  0.00  0.00    +0.112 A 
ATOM     17  N   UNL     1     -13.192   2.323  -6.214  0.00  0.00    -0.246 NA
ATOM     18  C   UNL     1     -12.301   1.979  -5.321  0.00  0.00    +0.129 A 
ATOM     19  S   UNL     1     -10.979   0.791  -5.262  0.00  0.00    -0.033 S 
ENDBRANCH   2   5
BRANCH   1  21
ATOM     20  C   UNL     1      -4.250  -0.858   1.441  0.00  0.00    +0.033 C 
ATOM     21  C   UNL     1      -3.692  -0.803   0.018  0.00  0.00    +0.100 C 
BRANCH  21  22
ATOM     22  C   UNL     1      -2.397  -0.033   0.016  0.00  0.00    -0.024 A 
ATOM     23  C   UNL     1      -2.415   1.349   0.025  0.00  0.00    +0.009 A 
ATOM     24  C   UNL     1      -1.229   2.059   0.019  0.00  0.00    +0.050 A 
ATOM     25  C   UNL     1      -0.017   1.385   0.010  0.00  0.00    +0.162 A 
ATOM     26  C   UNL     1       0.002  -0.004   0.002  0.00  0.00    +0.162 A 
ATOM     27  C   UNL     1      -1.192  -0.710   0.004  0.00  0.00    +0.055 A 
ATOM     28  O   UNL     1       1.181  -0.685  -0.007  0.00  0.00    -0.485 OA
ATOM     29  C   UNL     1       2.347   0.053  -0.387  0.00  0.00    +0.270 C 
ATOM     30  C   UNL     1       2.334   1.392   0.364  0.00  0.00    +0.270 C 
ATOM     31  O   UNL     1       1.143   2.098   0.002  0.00  0.00    -0.485 OA
ENDBRANCH  21  22
ENDBRANCH   1  21
TORSDOF 3
