REMARK  Name = ZINC18067320
REMARK  4 active torsions:
REMARK  status: ('A' for Active; 'I' for Inactive)
REMARK    1  A    between atoms: C_6  and  C_7
REMARK    2  A    between atoms: C_12  and  C_13
REMARK    3  A    between atoms: C_16  and  O_20
REMARK    4  A    between atoms: C_18  and  O_19
REMARK                            x       y       z     vdW  Elec       q    Type
REMARK                         _______ _______ _______ _____ _____    ______ ____
ROOT
ATOM      1  C   UNL     1      -1.224  -0.854   0.077  0.00  0.00    +0.027 A 
ATOM      2  C   UNL     1      -2.285  -0.688   0.985  0.00  0.00    +0.143 A 
ATOM      3  N   UNL     1      -3.291  -1.419   0.586  0.00  0.00    -0.181 NA
ATOM      4  N   UNL     1      -2.934  -2.088  -0.591  0.00  0.00    -0.276 N 
ATOM      5  H   UNL     1      -3.498  -2.695  -1.095  0.00  0.00    +0.189 HD
ATOM      6  C   UNL     1      -1.656  -1.734  -0.907  0.00  0.00    +0.077 A 
ENDROOT
BRANCH   1  12
ATOM      7  C   UNL     1       0.206   1.183   0.224  0.00  0.00    +0.010 A 
ATOM      8  C   UNL     1       1.448   1.781   0.295  0.00  0.00    +0.020 A 
ATOM      9  C   UNL     1       2.594   1.004   0.295  0.00  0.00    +0.041 A 
ATOM     10  C   UNL     1       2.502  -0.376   0.225  0.00  0.00    +0.020 A 
ATOM     11  C   UNL     1       1.265  -0.984   0.154  0.00  0.00    +0.010 A 
ATOM     12  C   UNL     1       0.108  -0.206   0.153  0.00  0.00    -0.014 A 
ATOM     13 CL   UNL     1       4.153   1.763   0.384  0.00  0.00    -0.084 Cl
ENDBRANCH   1  12
BRANCH   6  14
ATOM     14  C   UNL     1      -0.879  -2.199  -2.073  0.00  0.00    +0.042 A 
ATOM     15  C   UNL     1      -0.506  -3.540  -2.176  0.00  0.00    +0.017 A 
ATOM     16  C   UNL     1       0.219  -3.971  -3.266  0.00  0.00    +0.046 A 
ATOM     17  C   UNL     1       0.581  -3.074  -4.264  0.00  0.00    +0.120 A 
ATOM     18  C   UNL     1       0.215  -1.740  -4.170  0.00  0.00    +0.091 A 
ATOM     19  C   UNL     1      -0.518  -1.297  -3.083  0.00  0.00    +0.129 A 
BRANCH  19  20
ATOM     20  O   UNL     1      -0.882   0.008  -2.992  0.00  0.00    -0.506 OA
ATOM     21  H   UNL     1      -0.237   0.566  -2.537  0.00  0.00    +0.292 HD
ENDBRANCH  19  20
BRANCH  17  22
ATOM     22  O   UNL     1       1.296  -3.506  -5.335  0.00  0.00    -0.507 OA
ATOM     23  H   UNL     1       0.752  -3.807  -6.076  0.00  0.00    +0.292 HD
ENDBRANCH  17  22
ENDBRANCH   6  14
TORSDOF 4
