REMARK  Name = ZINC09285726
REMARK  8 active torsions:
REMARK  status: ('A' for Active; 'I' for Inactive)
REMARK    1  A    between atoms: C_1  and  C_2
REMARK    2  A    between atoms: C_2  and  C_4
REMARK    3  A    between atoms: C_2  and  N_58
REMARK    4  A    between atoms: C_7  and  S_16
REMARK    5  A    between atoms: N_8  and  C_9
REMARK    6  A    between atoms: S_16  and  C_17
REMARK    7  A    between atoms: C_17  and  C_18
REMARK    8  A    between atoms: C_21  and  C_23
REMARK                            x       y       z     vdW  Elec       q    Type
REMARK                         _______ _______ _______ _____ _____    ______ ____
ROOT
ATOM      1  C   UNL     1       1.063   2.241   0.004  0.00  0.00    +0.125 A 
ATOM      2  N   UNL     1       0.603   3.461   0.015  0.00  0.00    -0.135 NA
ATOM      3  N   UNL     1      -0.682   3.449   0.027  0.00  0.00    -0.122 NA
ATOM      4  C   UNL     1      -1.118   2.211   0.019  0.00  0.00    +0.197 A 
ATOM      5  N   UNL     1      -0.017   1.399   0.010  0.00  0.00    -0.275 N 
ENDROOT
BRANCH   5   6
ATOM      6  C   UNL     1       0.002  -0.004   0.002  0.00  0.00    +0.050 A 
ATOM      7  C   UNL     1       0.504  -0.686  -1.098  0.00  0.00    +0.029 A 
ATOM      8  C   UNL     1       0.525  -2.067  -1.102  0.00  0.00    +0.040 A 
ATOM      9  C   UNL     1       0.038  -2.771  -0.014  0.00  0.00    +0.124 A 
ATOM     10  C   UNL     1      -0.467  -2.093   1.082  0.00  0.00    +0.040 A 
ATOM     11  C   UNL     1      -0.486  -0.712   1.092  0.00  0.00    +0.029 A 
ATOM     12  F   UNL     1       0.056  -4.122  -0.021  0.00  0.00    -0.205 F 
ENDBRANCH   5   6
BRANCH   1  14
ATOM     13  C   UNL     1       3.119   2.048   1.377  0.00  0.00    -0.005 C 
ATOM     14  C   UNL     1       2.514   1.834  -0.012  0.00  0.00    -0.002 C 
BRANCH  14  20
ATOM     15  C   UNL     1       2.624   2.547  -2.323  0.00  0.00    -0.078 C 
ATOM     16  C   UNL     1       3.315   3.517  -3.284  0.00  0.00    -0.019 C 
ATOM     17  C   UNL     1       4.805   3.175  -3.364  0.00  0.00    -0.004 C 
ATOM     18  C   UNL     1       5.413   3.242  -1.960  0.00  0.00    -0.019 C 
ATOM     19  C   UNL     1       4.661   2.279  -1.037  0.00  0.00    -0.078 C 
ATOM     20  N   UNL     1       3.238   2.678  -0.984  0.00  0.00    +0.386 N 
ATOM     21  H   UNL     1       3.178   3.658  -0.685  0.00  0.00    -0.081 HD
ENDBRANCH  14  20
ENDBRANCH   1  14
BRANCH   4  22
ATOM     22  S   UNL     1      -2.802   1.692   0.023  0.00  0.00    -0.076 S 
BRANCH  22  23
ATOM     23  C   UNL     1      -3.627   3.304   0.035  0.00  0.00    +0.175 C 
BRANCH  23  24
ATOM     24  C   UNL     1      -5.120   3.103   0.040  0.00  0.00    +0.228 A 
ATOM     25  N   UNL     1      -5.879   2.996   1.094  0.00  0.00    -0.111 NA
ATOM     26  N   UNL     1      -7.102   2.834   0.730  0.00  0.00    -0.107 NA
ATOM     27  C   UNL     1      -7.166   2.833  -0.581  0.00  0.00    +0.248 A 
ATOM     28  O   UNL     1      -5.912   3.009  -1.043  0.00  0.00    -0.419 OA
BRANCH  27  29
ATOM     29  C   UNL     1      -8.387   2.674  -1.399  0.00  0.00    +0.039 A 
ATOM     30  C   UNL     1      -8.305   2.698  -2.792  0.00  0.00    +0.014 A 
ATOM     31  C   UNL     1      -9.447   2.544  -3.550  0.00  0.00    +0.021 A 
ATOM     32  C   UNL     1     -10.675   2.377  -2.932  0.00  0.00    +0.041 A 
ATOM     33  C   UNL     1     -10.763   2.357  -1.550  0.00  0.00    +0.021 A 
ATOM     34  C   UNL     1      -9.627   2.505  -0.782  0.00  0.00    +0.014 A 
ATOM     35 CL   UNL     1     -12.109   2.192  -3.893  0.00  0.00    -0.084 Cl
ENDBRANCH  27  29
ENDBRANCH  23  24
ENDBRANCH  22  23
ENDBRANCH   4  22
TORSDOF 7
