REMARK  Name = ZINC41605785
REMARK  14 active torsions:
REMARK  status: ('A' for Active; 'I' for Inactive)
REMARK    1  A    between atoms: C_1  and  C_2
REMARK    2  A    between atoms: C_2  and  N_3
REMARK    3  A    between atoms: N_3  and  C_4
REMARK    4  A    between atoms: N_3  and  C_6
REMARK    5  A    between atoms: C_4  and  C_5
REMARK    6  A    between atoms: C_6  and  C_8
REMARK    7  A    between atoms: C_6  and  C_9
REMARK    8  A    between atoms: C_9  and  N_10
REMARK    9  A    between atoms: C_11  and  C_13
REMARK   10  A    between atoms: N_15  and  C_16
REMARK   11  A    between atoms: C_19  and  N_22
REMARK   12  A    between atoms: C_23  and  C_25
REMARK   13  A    between atoms: C_25  and  C_26
REMARK   14  A    between atoms: C_25  and  C_27
REMARK                            x       y       z     vdW  Elec       q    Type
REMARK                         _______ _______ _______ _____ _____    ______ ____
ROOT
ATOM      1  C   UNL     1      -3.335  -1.179   2.605  0.00  0.00    +0.303 C 
ATOM      2  O   UNL     1      -2.605  -0.340   3.093  0.00  0.00    -0.265 OA
ATOM      3  N   UNL     1      -4.492  -1.503   3.216  0.00  0.00    -0.278 N 
ATOM      4  H   UNL     1      -5.039  -2.224   2.866  0.00  0.00    +0.155 HD
ENDROOT
BRANCH   3   5
ATOM      5  C   UNL     1      -4.903  -0.801   4.353  0.00  0.00    +0.034 A 
ATOM      6  C   UNL     1      -5.585  -1.460   5.367  0.00  0.00    +0.025 A 
ATOM      7  C   UNL     1      -5.991  -0.767   6.490  0.00  0.00    +0.025 A 
ATOM      8  C   UNL     1      -5.717   0.590   6.605  0.00  0.00    +0.034 A 
ATOM      9  C   UNL     1      -5.036   1.249   5.590  0.00  0.00    +0.025 A 
ATOM     10  C   UNL     1      -4.625   0.555   4.470  0.00  0.00    +0.025 A 
BRANCH   8  11
ATOM     11  N   UNL     1      -6.129   1.293   7.744  0.00  0.00    -0.285 N 
ATOM     12  C   UNL     1      -6.519   2.579   7.637  0.00  0.00    +0.220 C 
ATOM     13  O   UNL     1      -6.600   3.099   6.545  0.00  0.00    -0.275 OA
ATOM     14  H   UNL     1      -6.134   0.854   8.609  0.00  0.00    +0.155 HD
BRANCH  12  15
ATOM     15  C   UNL     1      -6.854   3.369   8.876  0.00  0.00    +0.069 C 
ATOM     16  C   UNL     1      -5.628   3.429   9.790  0.00  0.00    +0.017 C 
ATOM     17  C   UNL     1      -7.263   4.789   8.479  0.00  0.00    +0.017 C 
ENDBRANCH  12  15
ENDBRANCH   8  11
ENDBRANCH   3   5
BRANCH   1  19
ATOM     18  N   UNL     1      -1.793  -1.527   0.718  0.00  0.00    -0.309 N 
ATOM     19  C   UNL     1      -2.950  -1.851   1.329  0.00  0.00    +0.299 C 
ATOM     20  O   UNL     1      -3.679  -2.689   0.840  0.00  0.00    -0.265 OA
ATOM     21  H   UNL     1      -1.210  -0.857   1.108  0.00  0.00    +0.149 HD
BRANCH  18  22
ATOM     22  C   UNL     1      -1.415  -2.186  -0.534  0.00  0.00    +0.089 C 
BRANCH  22  23
ATOM     23  C   UNL     1      -0.016  -1.728  -0.951  0.00  0.00    -0.054 C 
ATOM     24  C   UNL     1       0.360  -2.383  -2.281  0.00  0.00    -0.012 C 
BRANCH  23  25
ATOM     25  N   UNL     1      -0.005  -0.267  -1.104  0.00  0.00    +0.382 N 
ATOM     26  H   UNL     1      -0.326   0.163  -0.249  0.00  0.00    -0.081 HD
BRANCH  25  28
ATOM     27  C   UNL     1       2.266  -0.124  -0.200  0.00  0.00    -0.017 C 
ATOM     28  C   UNL     1       1.362   0.184  -1.395  0.00  0.00    -0.082 C 
ENDBRANCH  25  28
BRANCH  25  29
ATOM     29  C   UNL     1      -0.893   0.117  -2.209  0.00  0.00    -0.082 C 
ATOM     30  C   UNL     1      -0.967   1.642  -2.299  0.00  0.00    -0.017 C 
ENDBRANCH  25  29
ENDBRANCH  23  25
ENDBRANCH  22  23
ENDBRANCH  18  22
ENDBRANCH   1  19
TORSDOF 9
