REMARK  Name = ZINC02658848
REMARK  6 active torsions:
REMARK  status: ('A' for Active; 'I' for Inactive)
REMARK    1  A    between atoms: C_1  and  C_2
REMARK    2  A    between atoms: N_4  and  C_5
REMARK    3  A    between atoms: C_6  and  C_14
REMARK    4  A    between atoms: C_14  and  O_16
REMARK    5  A    between atoms: O_16  and  C_17
REMARK    6  A    between atoms: C_17  and  C_18
REMARK                            x       y       z     vdW  Elec       q    Type
REMARK                         _______ _______ _______ _____ _____    ______ ____
ROOT
ATOM      1  C   UNL     1      -6.078   5.349   1.488  0.00  0.00    +0.342 C 
ATOM      2  O   UNL     1      -6.931   5.380   0.621  0.00  0.00    -0.245 OA
ENDROOT
BRANCH   1   4
ATOM      3  C   UNL     1      -6.888   5.570   3.828  0.00  0.00    +0.086 A 
ATOM      4  C   UNL     1      -6.257   6.120   2.720  0.00  0.00    +0.091 A 
ATOM      5  C   UNL     1      -5.776   7.487   2.830  0.00  0.00    -0.021 A 
ATOM      6  C   UNL     1      -6.010   8.084   4.019  0.00  0.00    -0.004 A 
ATOM      7  S   UNL     1      -6.843   6.858   4.986  0.00  0.00    -0.077 S 
ATOM      8  C   UNL     1      -5.635   9.478   4.418  0.00  0.00    +0.043 C 
ATOM      9  C   UNL     1      -4.616  10.015   3.402  0.00  0.00    +0.005 C 
ATOM     10  C   UNL     1      -5.133   9.733   1.989  0.00  0.00    +0.005 C 
ATOM     11  C   UNL     1      -5.073   8.232   1.702  0.00  0.00    +0.037 C 
BRANCH   3  15
ATOM     12  C   UNL     1      -8.584   2.559   5.293  0.00  0.00    +0.109 C 
ATOM     13  C   UNL     1      -8.002   3.941   5.136  0.00  0.00    +0.214 C 
ATOM     14  O   UNL     1      -8.055   4.730   6.055  0.00  0.00    -0.276 OA
ATOM     15  N   UNL     1      -7.423   4.300   3.973  0.00  0.00    -0.280 N 
ATOM     16  H   UNL     1      -7.380   3.668   3.237  0.00  0.00    +0.155 HD
ENDBRANCH   3  15
ENDBRANCH   1   4
BRANCH   1  17
ATOM     17  O   UNL     1      -4.967   4.604   1.313  0.00  0.00    -0.455 OA
BRANCH  17  18
ATOM     18  C   UNL     1      -4.856   3.867   0.068  0.00  0.00    +0.288 C 
BRANCH  18  19
ATOM     19  C   UNL     1      -3.559   3.099   0.051  0.00  0.00    +0.086 A 
ATOM     20  C   UNL     1      -3.574   1.718   0.044  0.00  0.00    +0.097 A 
ATOM     21  C   UNL     1      -2.357   1.028   0.029  0.00  0.00    +0.259 A 
ATOM     22  O   UNL     1      -2.336  -0.193   0.022  0.00  0.00    -0.267 OA
ATOM     23  N   UNL     1      -1.206   1.733   0.017  0.00  0.00    -0.267 N 
ATOM     24  C   UNL     1      -0.013   1.076   0.008  0.00  0.00    +0.111 A 
ATOM     25  C   UNL     1       1.154   1.761   0.001  0.00  0.00    +0.035 A 
ATOM     26  C   UNL     1       1.147   3.163   0.008  0.00  0.00    +0.020 A 
ATOM     27  C   UNL     1      -0.041   3.830   0.022  0.00  0.00    +0.048 A 
ATOM     28  C   UNL     1      -1.244   3.099   0.030  0.00  0.00    +0.141 A 
ATOM     29  N   UNL     1      -2.406   3.750   0.044  0.00  0.00    -0.231 NA
ATOM     30 BR   UNL     1       2.797   0.825  -0.019  0.00  0.00    -0.049 Br
ENDBRANCH  18  19
ENDBRANCH  17  18
ENDBRANCH   1  17
TORSDOF 5
