REMARK  Name = ZINC13395639
REMARK  11 active torsions:
REMARK  status: ('A' for Active; 'I' for Inactive)
REMARK    1  A    between atoms: C_1  and  C_2
REMARK    2  A    between atoms: C_4  and  C_7
REMARK    3  A    between atoms: C_7  and  O_8
REMARK    4  A    between atoms: O_8  and  C_9
REMARK    5  A    between atoms: C_12  and  C_15
REMARK    6  A    between atoms: N_17  and  C_18
REMARK    7  A    between atoms: C_21  and  S_24
REMARK    8  A    between atoms: S_24  and  N_27
REMARK    9  A    between atoms: N_27  and  C_28
REMARK   10  A    between atoms: C_28  and  C_29
REMARK   11  A    between atoms: C_29  and  C_30
REMARK                            x       y       z     vdW  Elec       q    Type
REMARK                         _______ _______ _______ _____ _____    ______ ____
ROOT
ATOM      1  C   UNL     1      -1.459   6.037  -5.155  0.00  0.00    +0.248 C 
ATOM      2  O   UNL     1      -0.951   6.566  -4.185  0.00  0.00    -0.270 OA
ATOM      3  N   UNL     1      -1.841   4.746  -5.096  0.00  0.00    -0.282 N 
ATOM      4  H   UNL     1      -2.176   4.302  -5.891  0.00  0.00    +0.155 HD
ENDROOT
BRANCH   1   8
ATOM      5  C   UNL     1      -2.029   8.257  -8.730  0.00  0.00    +0.121 A 
ATOM      6  C   UNL     1      -1.448   8.864  -7.622  0.00  0.00    +0.046 A 
ATOM      7  C   UNL     1      -1.262   8.148  -6.461  0.00  0.00    +0.016 A 
ATOM      8  C   UNL     1      -1.658   6.809  -6.397  0.00  0.00    +0.037 A 
ATOM      9  C   UNL     1      -2.236   6.201  -7.515  0.00  0.00    +0.016 A 
ATOM     10  C   UNL     1      -2.425   6.926  -8.670  0.00  0.00    +0.046 A 
BRANCH   5  11
ATOM     11  O   UNL     1      -2.212   8.967  -9.872  0.00  0.00    -0.486 OA
BRANCH  11  12
ATOM     12  C   UNL     1      -2.814   8.282 -10.972  0.00  0.00    +0.285 C 
BRANCH  12  16
ATOM     13  C   UNL     1      -4.145   9.347 -15.675  0.00  0.00    +0.073 C 
ATOM     14  C   UNL     1      -3.575   9.627 -14.309  0.00  0.00    +0.076 A 
ATOM     15  N   UNL     1      -3.463   8.819 -13.280  0.00  0.00    -0.246 NA
ATOM     16  C   UNL     1      -2.935   9.222 -12.144  0.00  0.00    +0.086 A 
ATOM     17  C   UNL     1      -2.507  10.507 -12.051  0.00  0.00    +0.073 A 
ATOM     18  S   UNL     1      -2.895  11.101 -13.691  0.00  0.00    -0.080 S 
ENDBRANCH  12  16
ENDBRANCH  11  12
ENDBRANCH   5  11
ENDBRANCH   1   8
BRANCH   3  19
ATOM     19  C   UNL     1      -1.756   4.047  -3.888  0.00  0.00    +0.034 A 
ATOM     20  C   UNL     1      -1.464   2.689  -3.889  0.00  0.00    +0.025 A 
ATOM     21  C   UNL     1      -1.381   2.001  -2.694  0.00  0.00    +0.030 A 
ATOM     22  C   UNL     1      -1.588   2.663  -1.498  0.00  0.00    +0.105 A 
ATOM     23  C   UNL     1      -1.884   4.013  -1.493  0.00  0.00    +0.030 A 
ATOM     24  C   UNL     1      -1.964   4.708  -2.684  0.00  0.00    +0.025 A 
BRANCH  22  25
ATOM     25  S   UNL     1      -1.480   1.781   0.024  0.00  0.00    +0.058 S 
ATOM     26  O   UNL     1      -1.734   0.416  -0.278  0.00  0.00    -0.153 OA
ATOM     27  O   UNL     1      -2.252   2.509   0.970  0.00  0.00    -0.153 OA
BRANCH  25  28
ATOM     28  N   UNL     1       0.094   1.869   0.531  0.00  0.00    -0.189 NA
ATOM     29  H   UNL     1       0.632   1.063   0.585  0.00  0.00    +0.148 HD
BRANCH  28  30
ATOM     30  C   UNL     1       0.677   3.164   0.891  0.00  0.00    +0.117 C 
BRANCH  30  31
ATOM     31  C   UNL     1       1.982   2.940   1.657  0.00  0.00    +0.142 C 
BRANCH  31  32
ATOM     32  C   UNL     1       2.582   4.272   2.028  0.00  0.00    +0.357 C 
ATOM     33  O   UNL     1       2.022   5.295   1.711  0.00  0.00    -0.246 OA
ATOM     34  O   UNL     1       3.737   4.322   2.710  0.00  0.00    -0.246 OA
ENDBRANCH  31  32
ENDBRANCH  30  31
ENDBRANCH  28  30
ENDBRANCH  25  28
ENDBRANCH  22  25
ENDBRANCH   3  19
TORSDOF 10
