REMARK  Name = ZINC54401551
REMARK  7 active torsions:
REMARK  status: ('A' for Active; 'I' for Inactive)
REMARK    1  A    between atoms: C_1  and  C_2
REMARK    2  A    between atoms: C_2  and  C_3
REMARK    3  A    between atoms: C_3  and  C_4
REMARK    4  A    between atoms: C_3  and  C_5
REMARK    5  A    between atoms: C_3  and  C_6
REMARK    6  A    between atoms: N_8  and  C_9
REMARK    7  A    between atoms: C_10  and  N_17
REMARK                            x       y       z     vdW  Elec       q    Type
REMARK                         _______ _______ _______ _____ _____    ______ ____
ROOT
ATOM      1  C   UNL     1       1.294  -4.089   2.283  0.00  0.00    +0.068 A 
ATOM      2  C   UNL     1       2.078  -4.798   3.193  0.00  0.00    +0.048 A 
ATOM      3  C   UNL     1       2.002  -6.182   3.236  0.00  0.00    +0.040 A 
ATOM      4  C   UNL     1       1.152  -6.856   2.378  0.00  0.00    +0.021 A 
ATOM      5  C   UNL     1       0.376  -6.153   1.475  0.00  0.00    +0.032 A 
ATOM      6  C   UNL     1       0.440  -4.771   1.429  0.00  0.00    +0.042 A 
ATOM      7 BR   UNL     1      -0.631  -3.815   0.199  0.00  0.00    -0.048 Br
ATOM      8 BR   UNL     1       1.053  -8.743   2.438  0.00  0.00    -0.050 Br
ENDROOT
BRANCH   1  11
ATOM      9  C   UNL     1       2.276  -2.087   1.445  0.00  0.00    +0.223 C 
ATOM     10  O   UNL     1       3.094  -2.753   0.847  0.00  0.00    -0.275 OA
ATOM     11  N   UNL     1       1.365  -2.689   2.235  0.00  0.00    -0.283 N 
ATOM     12  H   UNL     1       0.758  -2.154   2.770  0.00  0.00    +0.155 HD
BRANCH   9  13
ATOM     13  C   UNL     1       2.278  -0.587   1.305  0.00  0.00    +0.041 C 
ATOM     14  C   UNL     1       2.499   0.053   2.677  0.00  0.00    +0.020 C 
ATOM     15  C   UNL     1       0.935  -0.125   0.737  0.00  0.00    +0.020 C 
BRANCH  13  17
ATOM     16  C   UNL     1       3.406   1.359   0.217  0.00  0.00    +0.005 C 
ATOM     17  C   UNL     1       3.404  -0.165   0.359  0.00  0.00    +0.012 C 
ENDBRANCH  13  17
ENDBRANCH   9  13
ENDBRANCH   1  11
BRANCH   2  18
ATOM     18  N   UNL     1       2.937  -4.114   4.060  0.00  0.00    -0.356 N 
ATOM     19  H   UNL     1       2.989  -3.146   4.028  0.00  0.00    +0.142 HD
ATOM     20  H   UNL     1       3.482  -4.609   4.692  0.00  0.00    +0.142 HD
ENDBRANCH   2  18
TORSDOF 4
