REMARK  Name = ZINC25395079
REMARK  13 active torsions:
REMARK  status: ('A' for Active; 'I' for Inactive)
REMARK    1  A    between atoms: C_1  and  C_2
REMARK    2  A    between atoms: C_2  and  C_3
REMARK    3  A    between atoms: C_3  and  C_5
REMARK    4  A    between atoms: C_3  and  C_6
REMARK    5  A    between atoms: C_6  and  C_8
REMARK    6  A    between atoms: C_6  and  N_32
REMARK    7  A    between atoms: N_10  and  N_11
REMARK    8  A    between atoms: C_12  and  C_14
REMARK    9  A    between atoms: C_18  and  S_20
REMARK   10  A    between atoms: S_20  and  N_23
REMARK   11  A    between atoms: N_23  and  C_24
REMARK   12  A    between atoms: C_29  and  O_30
REMARK   13  A    between atoms: O_30  and  C_31
REMARK                            x       y       z     vdW  Elec       q    Type
REMARK                         _______ _______ _______ _____ _____    ______ ____
ROOT
ATOM      1  N   UNL     1      -2.657   1.822  -0.725  0.00  0.00    -0.230 N 
ATOM      2  C   UNL     1      -1.601   0.986  -0.749  0.00  0.00    +0.260 C 
ATOM      3  O   UNL     1      -1.756  -0.198  -0.518  0.00  0.00    -0.269 OA
ATOM      4  H   UNL     1      -2.517   2.892  -0.934  0.00  0.00    +0.173 HD
ENDROOT
BRANCH   2   5
ATOM      5  C   UNL     1      -0.253   1.507  -1.062  0.00  0.00    +0.040 A 
ATOM      6  C   UNL     1      -0.072   2.864  -1.334  0.00  0.00    +0.013 A 
ATOM      7  C   UNL     1       1.189   3.344  -1.622  0.00  0.00    +0.003 A 
ATOM      8  C   UNL     1       2.271   2.482  -1.651  0.00  0.00    +0.029 A 
ATOM      9  C   UNL     1       2.098   1.135  -1.387  0.00  0.00    +0.109 A 
ATOM     10  C   UNL     1       0.843   0.643  -1.093  0.00  0.00    +0.042 A 
BRANCH   9  11
ATOM     11  S   UNL     1       3.482   0.046  -1.427  0.00  0.00    +0.072 S 
ATOM     12  O   UNL     1       4.634   0.844  -1.190  0.00  0.00    -0.150 OA
ATOM     13  O   UNL     1       3.146  -1.068  -0.611  0.00  0.00    -0.150 OA
BRANCH  11  14
ATOM     14  N   UNL     1       3.612  -0.524  -2.976  0.00  0.00    -0.213 N 
ATOM     15  H   UNL     1       3.519  -1.602  -3.175  0.00  0.00    +0.174 HD
BRANCH  14  16
ATOM     16  C   UNL     1       3.840   0.366  -4.033  0.00  0.00    +0.090 A 
ATOM     17  C   UNL     1       4.645   1.479  -3.843  0.00  0.00    +0.028 A 
ATOM     18  C   UNL     1       4.872   2.354  -4.889  0.00  0.00    +0.002 A 
ATOM     19  C   UNL     1       4.291   2.127  -6.123  0.00  0.00    +0.004 A 
ATOM     20  C   UNL     1       3.483   1.022  -6.318  0.00  0.00    +0.047 A 
ATOM     21  C   UNL     1       3.254   0.138  -5.276  0.00  0.00    +0.142 A 
BRANCH  21  22
ATOM     22  O   UNL     1       2.459  -0.949  -5.466  0.00  0.00    -0.493 OA
ATOM     23  C   UNL     1       1.892  -1.118  -6.767  0.00  0.00    +0.277 C 
ENDBRANCH  21  22
ENDBRANCH  14  16
ENDBRANCH  11  14
ENDBRANCH   9  11
ENDBRANCH   2   5
BRANCH   1  26
ATOM     24  C   UNL     1      -4.992   2.163  -0.410  0.00  0.00    +0.250 C 
ATOM     25  O   UNL     1      -4.837   3.344  -0.640  0.00  0.00    -0.272 OA
ATOM     26  N   UNL     1      -3.935   1.327  -0.434  0.00  0.00    -0.233 N 
ATOM     27  H   UNL     1      -4.076   0.256  -0.225  0.00  0.00    +0.173 HD
BRANCH  24  28
ATOM     28  C   UNL     1      -6.367   1.631  -0.096  0.00  0.00    +0.165 C 
BRANCH  28  29
ATOM     29  N   UNL     1      -7.230   2.733   0.336  0.00  0.00    -0.288 N 
ATOM     30  C   UNL     1      -7.174   3.174   1.608  0.00  0.00    +0.298 C 
ATOM     31  O   UNL     1      -6.344   2.721   2.372  0.00  0.00    -0.253 OA
ATOM     32  N   UNL     1      -8.037   4.118   2.033  0.00  0.00    -0.313 N 
ATOM     33  H   UNL     1      -7.925   3.200  -0.378  0.00  0.00    +0.151 HD
ATOM     34  H   UNL     1      -7.991   4.478   3.071  0.00  0.00    +0.146 HD
ATOM     35  H   UNL     1      -8.788   4.528   1.341  0.00  0.00    +0.146 HD
ENDBRANCH  28  29
BRANCH  28  36
ATOM     36  C   UNL     1      -6.959   0.980  -1.348  0.00  0.00    +0.015 C 
ATOM     37  C   UNL     1      -7.139   2.038  -2.437  0.00  0.00    +0.010 C 
BRANCH  36  39
ATOM     38  C   UNL     1      -8.852  -0.396  -2.224  0.00  0.00    +0.004 C 
ATOM     39  C   UNL     1      -8.317   0.362  -1.007  0.00  0.00    +0.002 C 
ENDBRANCH  36  39
ENDBRANCH  28  36
ENDBRANCH  24  28
ENDBRANCH   1  26
TORSDOF 10
