REMARK  Name = ZINC01376549
REMARK  8 active torsions:
REMARK  status: ('A' for Active; 'I' for Inactive)
REMARK    1  A    between atoms: C_1  and  C_2
REMARK    2  A    between atoms: C_14  and  S_21
REMARK    3  A    between atoms: C_16  and  C_18
REMARK    4  A    between atoms: C_18  and  C_19
REMARK    5  A    between atoms: C_18  and  C_20
REMARK    6  A    between atoms: S_21  and  C_22
REMARK    7  A    between atoms: C_22  and  C_23
REMARK    8  A    between atoms: C_30  and  C_32
REMARK                            x       y       z     vdW  Elec       q    Type
REMARK                         _______ _______ _______ _____ _____    ______ ____
ROOT
ATOM      1  C   UNL     1      15.361   4.216   0.870  0.00  0.00    +0.008 C 
ATOM      2  C   UNL     1      14.192   3.262   0.615  0.00  0.00    -0.009 C 
ATOM      3  C   UNL     1      13.003   3.659   1.495  0.00  0.00    +0.008 C 
ATOM      4  C   UNL     1      11.757   2.881   1.071  0.00  0.00    +0.037 C 
ATOM      5  C   UNL     1      12.089   1.391   1.056  0.00  0.00    -0.024 A 
ATOM      6  C   UNL     1      13.376   0.976   1.010  0.00  0.00    -0.004 A 
ATOM      7  S   UNL     1      13.274  -0.795   1.010  0.00  0.00    -0.073 S 
ATOM      8  C   UNL     1      11.505  -0.939   1.072  0.00  0.00    +0.114 A 
ATOM      9  C   UNL     1      11.078   0.397   1.089  0.00  0.00    +0.056 A 
ATOM     10  C   UNL     1       9.611   0.579   1.140  0.00  0.00    +0.173 A 
ATOM     11  N   UNL     1       8.823   1.626   1.168  0.00  0.00    -0.128 NA
ATOM     12  N   UNL     1       7.594   1.241   1.206  0.00  0.00    -0.122 NA
ATOM     13  C   UNL     1       7.527  -0.070   1.214  0.00  0.00    +0.198 A 
ATOM     14  N   UNL     1       8.810  -0.541   1.168  0.00  0.00    -0.257 N 
ATOM     15  C   UNL     1       9.362  -1.789   1.146  0.00  0.00    +0.121 A 
ATOM     16  N   UNL     1      10.653  -1.960   1.100  0.00  0.00    -0.226 NA
ATOM     17  C   UNL     1      14.607   1.826   0.969  0.00  0.00    +0.046 C 
ENDROOT
BRANCH  15  18
ATOM     18  C   UNL     1       8.460  -2.996   1.178  0.00  0.00    +0.049 C 
ATOM     19  C   UNL     1       8.807  -3.923   0.012  0.00  0.00    +0.015 C 
ATOM     20  C   UNL     1       8.653  -3.743   2.499  0.00  0.00    +0.015 C 
ENDBRANCH  15  18
BRANCH  13  21
ATOM     21  S   UNL     1       6.058  -1.042   1.267  0.00  0.00    -0.076 S 
BRANCH  21  22
ATOM     22  C   UNL     1       4.723   0.185   1.315  0.00  0.00    +0.173 C 
BRANCH  22  23
ATOM     23  C   UNL     1       3.393  -0.522   1.363  0.00  0.00    +0.226 C 
ATOM     24  O   UNL     1       3.350  -1.734   1.364  0.00  0.00    -0.275 OA
ATOM     25  N   UNL     1       2.251   0.192   1.404  0.00  0.00    -0.298 N 
ATOM     26  C   UNL     1       2.280   1.657   1.297  0.00  0.00    +0.108 C 
ATOM     27  C   UNL     1       1.338   2.088   0.168  0.00  0.00    +0.019 C 
ATOM     28  C   UNL     1      -0.054   1.504   0.420  0.00  0.00    +0.003 C 
ATOM     29  C   UNL     1       0.026  -0.025   0.426  0.00  0.00    +0.022 C 
ATOM     30  C   UNL     1       0.953  -0.479   1.558  0.00  0.00    +0.073 C 
ATOM     31  C   UNL     1       1.144  -1.995   1.486  0.00  0.00    +0.028 C 
ENDBRANCH  22  23
ENDBRANCH  21  22
ENDBRANCH  13  21
TORSDOF 4
