REMARK  Name = ZINC39468854
REMARK  6 active torsions:
REMARK  status: ('A' for Active; 'I' for Inactive)
REMARK    1  A    between atoms: C_1  and  C_2
REMARK    2  A    between atoms: C_2  and  C_3
REMARK    3  A    between atoms: C_2  and  S_4
REMARK    4  A    between atoms: S_4  and  C_7
REMARK    5  A    between atoms: C_19  and  C_20
REMARK    6  A    between atoms: C_25  and  O_26
REMARK                            x       y       z     vdW  Elec       q    Type
REMARK                         _______ _______ _______ _____ _____    ______ ____
ROOT
ATOM      1  C   UNL     1      -0.629   0.010   2.580  0.00  0.00    +0.092 C 
ATOM      2  C   UNL     1      -1.204  -0.614   3.606  0.00  0.00    +0.003 C 
ATOM      3  C   UNL     1      -1.519   0.169   4.850  0.00  0.00    +0.006 C 
ATOM      4  C   UNL     1      -1.641  -0.737   6.069  0.00  0.00    -0.046 C 
ATOM      5  N   UNL     1      -1.995   0.066   7.253  0.00  0.00    +0.399 N 
ATOM      6  C   UNL     1      -0.978   1.078   7.537  0.00  0.00    -0.020 C 
ATOM      7  C   UNL     1      -0.766   2.003   6.329  0.00  0.00    -0.003 C 
ATOM      8  C   UNL     1      -0.382   1.165   5.114  0.00  0.00    +0.016 C 
ATOM      9  C   UNL     1      -0.195   2.023   3.893  0.00  0.00    -0.013 C 
ATOM     10  C   UNL     1      -0.319   1.454   2.682  0.00  0.00    +0.006 C 
ATOM     11  C   UNL     1      -1.393   1.978   8.708  0.00  0.00    +0.159 C 
ATOM     12  O   UNL     1      -1.533   1.179   9.896  0.00  0.00    -0.297 OA
ATOM     13  P   UNL     1      -2.441  -0.169   9.800  0.00  0.00    +0.421 P 
ATOM     14  O   UNL     1      -3.940   0.187   9.910  0.00  0.00    -0.239 OA
ATOM     15  N   UNL     1      -2.097  -0.820   8.305  0.00  0.00    -0.267 NA
ATOM     16  O   UNL     1      -2.044  -1.163  10.914  0.00  0.00    -0.128 OA
ATOM     17  H   UNL     1      -1.989  -1.775   8.170  0.00  0.00    +0.113 HD
ATOM     18  H   UNL     1      -2.886   0.514   7.103  0.00  0.00    -0.055 HD
ENDROOT
BRANCH  10  19
ATOM     19  C   UNL     1      -0.149   2.269   1.455  0.00  0.00    +0.025 A 
ATOM     20  C   UNL     1       1.125   2.643   1.034  0.00  0.00    +0.012 A 
ATOM     21  C   UNL     1       1.278   3.402  -0.109  0.00  0.00    +0.001 A 
ATOM     22  C   UNL     1       0.169   3.794  -0.839  0.00  0.00    +0.004 A 
ATOM     23  C   UNL     1      -1.099   3.429  -0.430  0.00  0.00    +0.046 A 
ATOM     24  C   UNL     1      -1.267   2.662   0.712  0.00  0.00    +0.125 A 
BRANCH  24  25
ATOM     25  O   UNL     1      -2.513   2.297   1.112  0.00  0.00    -0.506 OA
ATOM     26  H   UNL     1      -2.935   2.930   1.709  0.00  0.00    +0.292 HD
ENDBRANCH  24  25
ENDBRANCH  10  19
BRANCH   1  27
ATOM     27  S   UNL     1      -0.234  -0.879   1.112  0.00  0.00    -0.001 S 
ATOM     28  O   UNL     1      -0.747  -0.080   0.054  0.00  0.00    -0.169 OA
ATOM     29  O   UNL     1      -0.733  -2.190   1.336  0.00  0.00    -0.169 OA
BRANCH  27  31
ATOM     30  C   UNL     1       2.118  -1.651   2.275  0.00  0.00    +0.032 C 
ATOM     31  C   UNL     1       1.579  -0.902   1.055  0.00  0.00    +0.130 C 
ATOM     32  C   UNL     1       2.040  -1.609  -0.222  0.00  0.00    +0.032 C 
ENDBRANCH  27  31
ENDBRANCH   1  27
TORSDOF 4
