REMARK  Name = ZINC36603292
REMARK  19 active torsions:
REMARK  status: ('A' for Active; 'I' for Inactive)
REMARK    1  A    between atoms: C_1  and  C_2
REMARK    2  A    between atoms: C_2  and  C_3
REMARK    3  A    between atoms: C_3  and  C_4
REMARK    4  A    between atoms: C_5  and  C_6
REMARK    5  A    between atoms: C_6  and  C_8
REMARK    6  A    between atoms: C_6  and  N_19
REMARK    7  A    between atoms: N_10  and  C_11
REMARK    8  A    between atoms: C_11  and  C_12
REMARK    9  A    between atoms: C_11  and  C_13
REMARK   10  A    between atoms: C_11  and  C_14
REMARK   11  A    between atoms: C_14  and  C_15
REMARK   12  A    between atoms: C_15  and  C_16
REMARK   13  A    between atoms: C_15  and  C_17
REMARK   14  A    between atoms: C_15  and  C_18
REMARK   15  A    between atoms: N_19  and  C_20
REMARK   16  A    between atoms: C_20  and  C_21
REMARK   17  A    between atoms: C_24  and  C_26
REMARK   18  A    between atoms: C_27  and  C_29
REMARK   19  A    between atoms: C_29  and  C_30
REMARK                            x       y       z     vdW  Elec       q    Type
REMARK                         _______ _______ _______ _____ _____    ______ ____
ROOT
ATOM      1  C   UNL     1       3.238  -3.583   1.911  0.00  0.00    +0.185 C 
ENDROOT
BRANCH   1   2
ATOM      2  C   UNL     1       4.389  -4.504   1.598  0.00  0.00    +0.238 C 
ATOM      3  O   UNL     1       4.340  -5.669   1.929  0.00  0.00    -0.273 OA
ATOM      4  N   UNL     1       5.473  -4.032   0.951  0.00  0.00    -0.308 N 
ATOM      5  H   UNL     1       5.512  -3.099   0.686  0.00  0.00    +0.149 HD
BRANCH   4   6
ATOM      6  C   UNL     1       6.592  -4.927   0.647  0.00  0.00    +0.030 C 
ATOM      7  C   UNL     1       7.071  -5.600   1.934  0.00  0.00    +0.031 C 
ATOM      8  C   UNL     1       6.134  -5.996  -0.348  0.00  0.00    +0.031 C 
BRANCH   6   9
ATOM      9  C   UNL     1       7.739  -4.120   0.036  0.00  0.00    +0.031 C 
BRANCH   9  10
ATOM     10  C   UNL     1       7.177  -2.877  -0.657  0.00  0.00    -0.036 C 
ATOM     11  C   UNL     1       6.823  -1.823   0.393  0.00  0.00    +0.010 C 
ATOM     12  C   UNL     1       8.225  -2.310  -1.617  0.00  0.00    +0.010 C 
ATOM     13  C   UNL     1       5.920  -3.257  -1.443  0.00  0.00    +0.010 C 
ENDBRANCH   9  10
ENDBRANCH   6   9
ENDBRANCH   4   6
ENDBRANCH   1   2
BRANCH   1  14
ATOM     14  N   UNL     1       2.207  -4.321   2.644  0.00  0.00    -0.279 N 
ATOM     15  C   UNL     1       1.665  -5.433   2.108  0.00  0.00    +0.221 C 
ATOM     16  O   UNL     1       2.031  -5.822   1.020  0.00  0.00    -0.275 OA
BRANCH  14  17
ATOM     17  C   UNL     1       1.765  -3.852   3.959  0.00  0.00    +0.183 C 
BRANCH  17  18
ATOM     18  C   UNL     1       0.623  -2.883   3.789  0.00  0.00    +0.122 A 
ATOM     19  C   UNL     1      -0.684  -3.180   3.903  0.00  0.00    +0.046 A 
ATOM     20  C   UNL     1      -1.398  -1.983   3.666  0.00  0.00    +0.045 A 
ATOM     21  C   UNL     1      -0.485  -1.026   3.422  0.00  0.00    +0.102 A 
ATOM     22  O   UNL     1       0.738  -1.576   3.504  0.00  0.00    -0.463 OA
ATOM     23  C   UNL     1      -0.783   0.419   3.115  0.00  0.00    +0.086 C 
ENDBRANCH  17  18
ENDBRANCH  14  17
BRANCH  15  24
ATOM     24  C   UNL     1       0.605  -6.193   2.863  0.00  0.00    +0.131 C 
BRANCH  24  25
ATOM     25  C   UNL     1       0.169  -7.386   2.051  0.00  0.00    -0.039 A 
ATOM     26  C   UNL     1      -0.875  -7.267   1.153  0.00  0.00    +0.004 A 
ATOM     27  C   UNL     1      -1.274  -8.362   0.409  0.00  0.00    +0.000 A 
ATOM     28  C   UNL     1      -0.630  -9.575   0.563  0.00  0.00    +0.000 A 
ATOM     29  C   UNL     1       0.414  -9.694   1.461  0.00  0.00    +0.000 A 
ATOM     30  C   UNL     1       0.817  -8.598   2.202  0.00  0.00    +0.004 A 
ENDBRANCH  24  25
ENDBRANCH  15  24
ENDBRANCH   1  14
BRANCH   1  32
ATOM     31  C   UNL     1       1.380  -3.199   0.374  0.00  0.00    -0.029 C 
ATOM     32  C   UNL     1       2.657  -3.050   0.626  0.00  0.00    +0.000 C 
BRANCH  31  33
ATOM     33  C   UNL     1       0.799  -2.667  -0.911  0.00  0.00    +0.027 C 
BRANCH  33  35
ATOM     34  C   UNL     1      -0.509  -3.256  -2.956  0.00  0.00    +0.004 C 
ATOM     35  C   UNL     1       0.081  -3.796  -1.652  0.00  0.00    +0.001 C 
ENDBRANCH  33  35
ENDBRANCH  31  33
ENDBRANCH   1  32
TORSDOF 12
