REMARK  Name = ZINC39968110
REMARK  10 active torsions:
REMARK  status: ('A' for Active; 'I' for Inactive)
REMARK    1  A    between atoms: C_1  and  C_2
REMARK    2  A    between atoms: C_2  and  O_3
REMARK    3  A    between atoms: O_3  and  C_4
REMARK    4  A    between atoms: C_6  and  C_16
REMARK    5  A    between atoms: C_9  and  O_10
REMARK    6  A    between atoms: O_10  and  C_11
REMARK    7  A    between atoms: C_11  and  C_12
REMARK    8  A    between atoms: C_17  and  C_18
REMARK    9  A    between atoms: C_17  and  C_20
REMARK   10  A    between atoms: C_26  and  C_30
REMARK                            x       y       z     vdW  Elec       q    Type
REMARK                         _______ _______ _______ _____ _____    ______ ____
ROOT
ATOM      1  C   UNL     1       0.614  -4.946   0.034  0.00  0.00    +0.026 C 
ATOM      2  C   UNL     1       0.454  -6.286   0.078  0.00  0.00    +0.072 C 
ENDROOT
BRANCH   2   3
ATOM      3  C   UNL     1      -0.931  -6.879   0.083  0.00  0.00    +0.216 C 
ATOM      4  N   UNL     1      -1.182  -7.563   1.358  0.00  0.00    -0.359 N 
ATOM      5  C   UNL     1      -1.411  -8.816   1.091  0.00  0.00    +0.060 A 
ATOM      6  C   UNL     1      -1.720  -9.977   1.937  0.00  0.00    +0.027 A 
ATOM      7  C   UNL     1      -1.913 -11.183   1.367  0.00  0.00    +0.005 A 
ATOM      8  C   UNL     1      -1.830 -11.386  -0.023  0.00  0.00    -0.048 A 
ATOM      9  C   UNL     1      -1.552 -10.390  -0.888  0.00  0.00    +0.030 A 
ATOM     10  C   UNL     1      -1.325  -9.031  -0.379  0.00  0.00    +0.061 A 
ATOM     11  N   UNL     1      -1.045  -7.901  -0.965  0.00  0.00    -0.359 N 
ATOM     12  C   UNL     1      -2.061 -12.773  -0.566  0.00  0.00    +0.044 C 
ATOM     13  H   UNL     1      -1.177  -7.155   2.238  0.00  0.00    +0.162 HD
ATOM     14  H   UNL     1      -0.934  -7.761  -1.918  0.00  0.00    +0.162 HD
ENDBRANCH   2   3
BRANCH   1  17
ATOM     15  C   UNL     1      -1.712  -2.039  -0.429  0.00  0.00    +0.164 A 
ATOM     16  C   UNL     1      -0.614  -2.866  -0.558  0.00  0.00    +0.057 A 
ATOM     17  C   UNL     1      -0.553  -4.062   0.167  0.00  0.00    -0.019 A 
ATOM     18  C   UNL     1      -1.606  -4.413   1.018  0.00  0.00    +0.026 A 
ATOM     19  C   UNL     1      -2.699  -3.582   1.141  0.00  0.00    +0.059 A 
ATOM     20  C   UNL     1      -2.756  -2.393   0.425  0.00  0.00    +0.176 A 
ATOM     21  I   UNL     1      -4.275  -4.110   2.417  0.00  0.00    -0.040 I 
BRANCH  15  22
ATOM     22  O   UNL     1      -1.774  -0.876  -1.131  0.00  0.00    -0.489 OA
BRANCH  22  24
ATOM     23  C   UNL     1      -0.918   0.760  -2.689  0.00  0.00    +0.048 C 
ATOM     24  C   UNL     1      -0.670  -0.577  -1.988  0.00  0.00    +0.226 C 
ENDBRANCH  22  24
ENDBRANCH  15  22
BRANCH  20  25
ATOM     25  O   UNL     1      -3.833  -1.575   0.555  0.00  0.00    -0.476 OA
BRANCH  25  26
ATOM     26  C   UNL     1      -4.924  -1.794  -0.341  0.00  0.00    +0.354 C 
BRANCH  26  27
ATOM     27  C   UNL     1      -6.019  -0.800  -0.051  0.00  0.00    +0.393 C 
ATOM     28  O   UNL     1      -5.878   0.019   0.841  0.00  0.00    -0.243 OA
ATOM     29  O   UNL     1      -7.047  -0.816  -0.707  0.00  0.00    -0.243 OA
ENDBRANCH  26  27
ENDBRANCH  25  26
ENDBRANCH  20  25
ENDBRANCH   1  17
BRANCH   2  30
ATOM     30  C   UNL     1       1.600  -7.143   0.120  0.00  0.00    +0.099 C 
ATOM     31  N   UNL     1       2.510  -7.823   0.154  0.00  0.00    -0.191 NA
ENDBRANCH   2  30
TORSDOF 8
