REMARK  Name = ZINC11634595
REMARK  3 active torsions:
REMARK  status: ('A' for Active; 'I' for Inactive)
REMARK    1  A    between atoms: C_3  and  S_21
REMARK    2  A    between atoms: C_6  and  C_7
REMARK    3  A    between atoms: S_21  and  N_24
REMARK                            x       y       z     vdW  Elec       q    Type
REMARK                         _______ _______ _______ _____ _____    ______ ____
ROOT
ATOM      1  C   UNL     1      -0.385  -3.726  -0.428  0.00  0.00    +0.015 A 
ATOM      2  C   UNL     1      -1.510  -2.931  -0.350  0.00  0.00    +0.029 A 
ATOM      3  C   UNL     1      -1.761  -1.986  -1.329  0.00  0.00    +0.106 A 
ATOM      4  C   UNL     1      -0.891  -1.835  -2.394  0.00  0.00    +0.029 A 
ATOM      5  C   UNL     1       0.240  -2.619  -2.481  0.00  0.00    +0.015 A 
ATOM      6  C   UNL     1       0.500  -3.575  -1.496  0.00  0.00    +0.037 A 
ENDROOT
BRANCH   6   7
ATOM      7  C   UNL     1       1.707  -4.423  -1.586  0.00  0.00    +0.250 C 
ATOM      8  O   UNL     1       1.931  -5.255  -0.728  0.00  0.00    -0.270 OA
ATOM      9  N   UNL     1       2.560  -4.275  -2.619  0.00  0.00    -0.261 N 
ATOM     10  C   UNL     1       3.691  -5.070  -2.703  0.00  0.00    +0.166 A 
ATOM     11  N   UNL     1       4.101  -6.007  -1.881  0.00  0.00    -0.223 NA
ATOM     12  C   UNL     1       5.234  -6.712  -2.091  0.00  0.00    +0.100 A 
ATOM     13  C   UNL     1       5.961  -6.370  -3.253  0.00  0.00    +0.042 A 
ATOM     14  S   UNL     1       4.967  -5.075  -3.954  0.00  0.00    -0.052 S 
ATOM     15  C   UNL     1       7.134  -6.990  -3.604  0.00  0.00    +0.019 A 
ATOM     16  C   UNL     1       7.643  -7.994  -2.800  0.00  0.00    +0.023 A 
ATOM     17  C   UNL     1       6.956  -8.358  -1.650  0.00  0.00    +0.061 A 
ATOM     18  C   UNL     1       5.782  -7.743  -1.292  0.00  0.00    +0.086 A 
ATOM     19 CL   UNL     1       4.961  -8.236   0.156  0.00  0.00    -0.080 Cl
ATOM     20 CL   UNL     1       7.595  -9.619  -0.642  0.00  0.00    -0.082 Cl
ATOM     21  H   UNL     1       2.382  -3.611  -3.304  0.00  0.00    +0.157 HD
ENDBRANCH   6   7
BRANCH   3  22
ATOM     22  S   UNL     1      -3.200  -0.975  -1.222  0.00  0.00    +0.061 S 
ATOM     23  O   UNL     1      -4.139  -1.686  -0.427  0.00  0.00    -0.153 OA
ATOM     24  O   UNL     1      -3.493  -0.544  -2.544  0.00  0.00    -0.153 OA
BRANCH  22  25
ATOM     25  N   UNL     1      -2.784   0.380  -0.365  0.00  0.00    -0.177 NA
ATOM     26  C   UNL     1      -2.281   1.542  -1.038  0.00  0.00    +0.109 C 
ATOM     27  C   UNL     1      -0.749   1.592  -1.257  0.00  0.00    +0.017 C 
ATOM     28  C   UNL     1      -0.013   1.086   0.008  0.00  0.00    +0.001 C 
ATOM     29  C   UNL     1      -0.703   1.564   1.253  0.00  0.00    +0.001 C 
ATOM     30  C   UNL     1      -1.581   0.401   1.701  0.00  0.00    +0.017 C 
ATOM     31  C   UNL     1      -2.928   0.411   1.129  0.00  0.00    +0.109 C 
ENDBRANCH  22  25
ENDBRANCH   3  22
TORSDOF 3
