REMARK  Name = ZINC09111591
REMARK  2 active torsions:
REMARK  status: ('A' for Active; 'I' for Inactive)
REMARK    1  A    between atoms: C_12  and  C_30
REMARK    2  A    between atoms: N_20  and  C_23
REMARK                            x       y       z     vdW  Elec       q    Type
REMARK                         _______ _______ _______ _____ _____    ______ ____
ROOT
ATOM      1  C   UNL     1       0.030   1.449   0.090  0.00  0.00    +0.001 A 
ATOM      2  C   UNL     1       1.220   2.156   0.098  0.00  0.00    +0.002 A 
ATOM      3  C   UNL     1       2.432   1.487   0.059  0.00  0.00    +0.024 A 
ATOM      4  C   UNL     1       2.447   0.111   0.018  0.00  0.00    +0.038 A 
ATOM      5  C   UNL     1       1.240  -0.617   0.025  0.00  0.00    -0.004 A 
ATOM      6  C   UNL     1       0.031   0.068   0.053  0.00  0.00    +0.010 A 
ATOM      7  C   UNL     1       1.301  -2.091   0.025  0.00  0.00    +0.007 C 
ATOM      8  C   UNL     1       2.416  -2.731  -0.314  0.00  0.00    -0.003 C 
ATOM      9  C   UNL     1       3.648  -1.963  -0.712  0.00  0.00    +0.110 C 
ATOM     10  N   UNL     1       3.613  -0.648  -0.044  0.00  0.00    -0.310 N 
ATOM     11  C   UNL     1       4.923  -0.377   0.538  0.00  0.00    +0.172 C 
ATOM     12  C   UNL     1       5.550  -1.758   0.821  0.00  0.00    +0.119 C 
ATOM     13  C   UNL     1       4.924  -2.676  -0.264  0.00  0.00    +0.114 C 
ATOM     14  C   UNL     1       5.962  -2.617  -1.367  0.00  0.00    +0.232 C 
ATOM     15  O   UNL     1       5.786  -2.938  -2.522  0.00  0.00    -0.274 OA
ATOM     16  N   UNL     1       7.109  -2.149  -0.851  0.00  0.00    -0.210 N 
ATOM     17  C   UNL     1       7.016  -1.722   0.433  0.00  0.00    +0.232 C 
ATOM     18  O   UNL     1       7.929  -1.376   1.151  0.00  0.00    -0.274 OA
ENDROOT
BRANCH  16  19
ATOM     19  C   UNL     1       8.309  -2.108  -1.574  0.00  0.00    +0.044 A 
ATOM     20  C   UNL     1       9.429  -1.496  -1.029  0.00  0.00    +0.025 A 
ATOM     21  C   UNL     1      10.611  -1.457  -1.744  0.00  0.00    +0.022 A 
ATOM     22  C   UNL     1      10.678  -2.028  -3.003  0.00  0.00    +0.041 A 
ATOM     23  C   UNL     1       9.562  -2.639  -3.549  0.00  0.00    +0.022 A 
ATOM     24  C   UNL     1       8.381  -2.685  -2.835  0.00  0.00    +0.025 A 
ATOM     25 CL   UNL     1      12.164  -1.978  -3.899  0.00  0.00    -0.084 Cl
ENDBRANCH  16  19
BRANCH  11  26
ATOM     26  C   UNL     1       5.776   0.393  -0.437  0.00  0.00    +0.232 C 
ATOM     27  O   UNL     1       5.489   0.406  -1.615  0.00  0.00    -0.274 OA
ATOM     28  N   UNL     1       6.858   1.067   0.001  0.00  0.00    -0.328 N 
ATOM     29  H   UNL     1       7.088   1.057   0.943  0.00  0.00    +0.145 HD
ATOM     30  H   UNL     1       7.407   1.563  -0.627  0.00  0.00    +0.145 HD
ENDBRANCH  11  26
TORSDOF 2
