REMARK  Name = ZINC56709581
REMARK  13 active torsions:
REMARK  status: ('A' for Active; 'I' for Inactive)
REMARK    1  A    between atoms: C_1  and  C_2
REMARK    2  A    between atoms: C_4  and  O_25
REMARK    3  A    between atoms: C_7  and  N_8
REMARK    4  A    between atoms: N_11  and  C_12
REMARK    5  A    between atoms: C_12  and  C_13
REMARK    6  A    between atoms: C_18  and  C_19
REMARK    7  A    between atoms: C_19  and  N_20
REMARK    8  A    between atoms: N_20  and  C_21
REMARK    9  A    between atoms: N_20  and  C_22
REMARK   10  A    between atoms: C_22  and  C_23
REMARK   11  A    between atoms: C_22  and  C_24
REMARK   12  A    between atoms: O_25  and  C_26
REMARK   13  A    between atoms: C_26  and  C_27
REMARK                            x       y       z     vdW  Elec       q    Type
REMARK                         _______ _______ _______ _____ _____    ______ ____
ROOT
ATOM      1  N   UNL     1       0.126  -1.086   2.509  0.00  0.00    -0.269 N 
ATOM      2  C   UNL     1      -0.199  -1.569   3.725  0.00  0.00    +0.304 C 
ATOM      3  O   UNL     1      -0.524  -2.734   3.850  0.00  0.00    -0.252 OA
ATOM      4  N   UNL     1      -0.162  -0.760   4.802  0.00  0.00    -0.295 N 
ATOM      5  H   UNL     1       0.455  -0.179   2.419  0.00  0.00    +0.156 HD
ATOM      6  H   UNL     1       0.097   0.169   4.702  0.00  0.00    +0.151 HD
ENDROOT
BRANCH   1  13
ATOM      7  C   UNL     1      -0.492   0.168   0.032  0.00  0.00    +0.046 C 
ATOM      8  C   UNL     1      -0.315  -1.325   0.145  0.00  0.00    -0.026 A 
ATOM      9  C   UNL     1      -0.446  -2.123  -0.974  0.00  0.00    +0.050 A 
ATOM     10  C   UNL     1      -0.283  -3.496  -0.870  0.00  0.00    +0.122 A 
ATOM     11  C   UNL     1       0.012  -4.069   0.359  0.00  0.00    +0.047 A 
ATOM     12  C   UNL     1       0.143  -3.272   1.479  0.00  0.00    +0.027 A 
ATOM     13  C   UNL     1      -0.014  -1.897   1.374  0.00  0.00    +0.038 A 
BRANCH  10  14
ATOM     14  O   UNL     1      -0.413  -4.282  -1.972  0.00  0.00    -0.483 OA
BRANCH  14  15
ATOM     15  C   UNL     1      -0.232  -5.688  -1.792  0.00  0.00    +0.324 C 
BRANCH  15  16
ATOM     16  C   UNL     1      -0.412  -6.391  -3.113  0.00  0.00    +0.248 C 
ATOM     17  O   UNL     1      -0.670  -5.751  -4.111  0.00  0.00    -0.272 OA
ATOM     18  N   UNL     1      -0.286  -7.731  -3.186  0.00  0.00    -0.327 N 
ATOM     19  H   UNL     1      -0.080  -8.242  -2.388  0.00  0.00    +0.145 HD
ATOM     20  H   UNL     1      -0.402  -8.183  -4.036  0.00  0.00    +0.145 HD
ENDBRANCH  15  16
ENDBRANCH  14  15
ENDBRANCH  10  14
ENDBRANCH   1  13
BRANCH   4  21
ATOM     21  C   UNL     1      -0.515  -1.284   6.124  0.00  0.00    +0.141 C 
BRANCH  21  22
ATOM     22  C   UNL     1      -0.501  -0.162   7.130  0.00  0.00    -0.029 A 
ATOM     23  C   UNL     1       0.613   0.042   7.923  0.00  0.00    +0.005 A 
ATOM     24  C   UNL     1       0.625   1.071   8.845  0.00  0.00    +0.000 A 
ATOM     25  C   UNL     1      -0.476   1.897   8.974  0.00  0.00    +0.000 A 
ATOM     26  C   UNL     1      -1.589   1.694   8.180  0.00  0.00    +0.002 A 
ATOM     27  C   UNL     1      -1.600   0.667   7.255  0.00  0.00    -0.059 A 
BRANCH  27  28
ATOM     28  C   UNL     1      -2.812   0.449   6.386  0.00  0.00    -0.043 C 
BRANCH  28  29
ATOM     29  N   UNL     1      -2.578   1.042   5.062  0.00  0.00    +0.382 N 
ATOM     30  C   UNL     1      -2.470   2.501   5.191  0.00  0.00    -0.095 C 
ATOM     31  H   UNL     1      -1.722   0.674   4.675  0.00  0.00    -0.081 HD
BRANCH  29  32
ATOM     32  C   UNL     1      -3.699   0.711   4.173  0.00  0.00    -0.075 C 
ATOM     33  C   UNL     1      -3.456   1.328   2.794  0.00  0.00    -0.014 C 
ATOM     34  C   UNL     1      -3.812  -0.809   4.038  0.00  0.00    -0.014 C 
ENDBRANCH  29  32
ENDBRANCH  28  29
ENDBRANCH  27  28
ENDBRANCH  21  22
ENDBRANCH   4  21
TORSDOF 9
