REMARK  Name = ZINC63937626
REMARK  9 active torsions:
REMARK  status: ('A' for Active; 'I' for Inactive)
REMARK    1  A    between atoms: C_1  and  C_2
REMARK    2  A    between atoms: C_5  and  O_32
REMARK    3  A    between atoms: C_6  and  N_8
REMARK    4  A    between atoms: C_9  and  C_11
REMARK    5  A    between atoms: N_13  and  C_14
REMARK    6  A    between atoms: C_14  and  C_15
REMARK    7  A    between atoms: C_15  and  C_17
REMARK    8  A    between atoms: C_15  and  C_23
REMARK    9  A    between atoms: O_32  and  C_33
REMARK                            x       y       z     vdW  Elec       q    Type
REMARK                         _______ _______ _______ _____ _____    ______ ____
ROOT
ATOM      1  C   UNL     1       0.503  -2.965   7.271  0.00  0.00    +0.117 C 
ENDROOT
BRANCH   1   4
ATOM      2  C   UNL     1       0.279  -2.886   4.846  0.00  0.00    +0.299 C 
ATOM      3  O   UNL     1       0.295  -4.100   4.835  0.00  0.00    -0.265 OA
ATOM      4  N   UNL     1       0.377  -2.222   6.015  0.00  0.00    -0.307 N 
ATOM      5  H   UNL     1       0.364  -1.252   6.024  0.00  0.00    +0.149 HD
BRANCH   2   7
ATOM      6  N   UNL     1       0.051  -2.794   2.397  0.00  0.00    -0.275 N 
ATOM      7  C   UNL     1       0.150  -2.130   3.565  0.00  0.00    +0.303 C 
ATOM      8  O   UNL     1       0.133  -0.916   3.577  0.00  0.00    -0.265 OA
ATOM      9  H   UNL     1      -0.001  -3.763   2.393  0.00  0.00    +0.155 HD
BRANCH   6  15
ATOM     10  C   UNL     1      -1.308   1.189  -0.144  0.00  0.00    +0.044 C 
ATOM     11  C   UNL     1      -0.627  -0.154  -0.071  0.00  0.00    -0.048 A 
ATOM     12  C   UNL     1      -0.028  -0.685  -1.199  0.00  0.00    +0.007 A 
ATOM     13  C   UNL     1       0.598  -1.916  -1.139  0.00  0.00    +0.048 A 
ATOM     14  C   UNL     1       0.628  -2.622   0.053  0.00  0.00    +0.141 A 
ATOM     15  C   UNL     1       0.025  -2.087   1.190  0.00  0.00    +0.076 A 
ATOM     16  C   UNL     1      -0.597  -0.848   1.123  0.00  0.00    +0.030 A 
BRANCH  14  17
ATOM     17  O   UNL     1       1.243  -3.833   0.114  0.00  0.00    -0.493 OA
ATOM     18  C   UNL     1       1.839  -4.318  -1.091  0.00  0.00    +0.277 C 
ENDBRANCH  14  17
ENDBRANCH   6  15
ENDBRANCH   2   7
ENDBRANCH   1   4
BRANCH   1  19
ATOM     19  C   UNL     1       0.597  -1.980   8.438  0.00  0.00    +0.064 C 
BRANCH  19  20
ATOM     20  C   UNL     1       0.603  -2.742   9.739  0.00  0.00    -0.033 C 
ATOM     21  C   UNL     1      -0.296  -2.642  10.744  0.00  0.00    -0.000 A 
ATOM     22  C   UNL     1      -1.503  -1.825  10.921  0.00  0.00    +0.010 A 
ATOM     23  C   UNL     1      -2.216  -1.947  12.064  0.00  0.00    +0.001 A 
ATOM     24  C   UNL     1      -1.831  -2.831  13.082  0.00  0.00    +0.002 A 
ATOM     25  C   UNL     1      -0.736  -3.615  12.992  0.00  0.00    +0.026 A 
ATOM     26  C   UNL     1       0.088  -3.568  11.833  0.00  0.00    +0.043 A 
ATOM     27  N   UNL     1       1.182  -4.216  11.513  0.00  0.00    -0.380 N 
ATOM     28  C   UNL     1       1.613  -3.777  10.181  0.00  0.00    +0.145 C 
ATOM     29  H   UNL     1       1.629  -4.877  12.064  0.00  0.00    +0.160 HD
ENDBRANCH  19  20
BRANCH  19  30
ATOM     30  C   UNL     1       1.867  -1.179   8.319  0.00  0.00    -0.039 A 
ATOM     31  C   UNL     1       3.092  -1.821   8.319  0.00  0.00    +0.004 A 
ATOM     32  C   UNL     1       4.258  -1.086   8.209  0.00  0.00    +0.000 A 
ATOM     33  C   UNL     1       4.199   0.291   8.100  0.00  0.00    +0.000 A 
ATOM     34  C   UNL     1       2.975   0.933   8.099  0.00  0.00    +0.000 A 
ATOM     35  C   UNL     1       1.809   0.197   8.204  0.00  0.00    +0.004 A 
ENDBRANCH  19  30
ENDBRANCH   1  19
TORSDOF 7
