REMARK  Name = ZINC06790327
REMARK  8 active torsions:
REMARK  status: ('A' for Active; 'I' for Inactive)
REMARK    1  A    between atoms: C_1  and  C_2
REMARK    2  A    between atoms: C_7  and  C_8
REMARK    3  A    between atoms: C_11  and  S_14
REMARK    4  A    between atoms: N_12  and  N_13
REMARK    5  A    between atoms: S_14  and  C_15
REMARK    6  A    between atoms: C_15  and  C_16
REMARK    7  A    between atoms: C_16  and  O_17
REMARK    8  A    between atoms: O_17  and  C_18
REMARK                            x       y       z     vdW  Elec       q    Type
REMARK                         _______ _______ _______ _____ _____    ______ ____
ROOT
ATOM      1  C   UNL     1      -0.559  -2.103  -0.202  0.00  0.00    +0.182 A 
ATOM      2  N   UNL     1       0.732  -2.003   0.016  0.00  0.00    -0.127 NA
ATOM      3  N   UNL     1       1.052  -0.771   0.194  0.00  0.00    -0.121 NA
ATOM      4  C   UNL     1      -0.016  -0.010   0.111  0.00  0.00    +0.209 A 
ATOM      5  N   UNL     1      -1.077  -0.830  -0.148  0.00  0.00    -0.224 N 
ENDROOT
BRANCH   1  12
ATOM      6  C   UNL     1       0.422  -3.993  -2.161  0.00  0.00    +0.044 C 
ATOM      7  C   UNL     1      -0.850  -4.268  -1.400  0.00  0.00    -0.040 A 
ATOM      8  C   UNL     1      -1.555  -5.431  -1.630  0.00  0.00    +0.004 A 
ATOM      9  C   UNL     1      -2.726  -5.682  -0.936  0.00  0.00    +0.000 A 
ATOM     10  C   UNL     1      -3.193  -4.773  -0.003  0.00  0.00    +0.001 A 
ATOM     11  C   UNL     1      -2.494  -3.609   0.240  0.00  0.00    +0.012 A 
ATOM     12  C   UNL     1      -1.313  -3.349  -0.457  0.00  0.00    +0.024 A 
ENDBRANCH   1  12
BRANCH   5  13
ATOM     13  N   UNL     1      -2.382  -0.462  -0.317  0.00  0.00    -0.295 N 
ATOM     14  H   UNL     1      -2.602  -0.350  -1.295  0.00  0.00    +0.163 HD
ATOM     15  H   UNL     1      -3.004  -1.126   0.120  0.00  0.00    +0.163 HD
ENDBRANCH   5  13
BRANCH   4  16
ATOM     16  S   UNL     1      -0.068   1.742   0.290  0.00  0.00    -0.081 S 
BRANCH  16  17
ATOM     17  C   UNL     1       1.682   2.077   0.607  0.00  0.00    +0.118 C 
BRANCH  17  18
ATOM     18  C   UNL     1       1.886   3.581   0.801  0.00  0.00    +0.240 C 
BRANCH  18  19
ATOM     19  O   UNL     1       3.268   3.846   1.051  0.00  0.00    -0.491 OA
BRANCH  19  20
ATOM     20  C   UNL     1       3.622   5.143   1.247  0.00  0.00    +0.121 A 
ATOM     21  C   UNL     1       2.660   6.141   1.194  0.00  0.00    +0.047 A 
ATOM     22  C   UNL     1       3.021   7.459   1.400  0.00  0.00    +0.019 A 
ATOM     23  C   UNL     1       4.343   7.785   1.647  0.00  0.00    +0.018 A 
ATOM     24  C   UNL     1       5.304   6.792   1.694  0.00  0.00    +0.019 A 
ATOM     25  C   UNL     1       4.947   5.472   1.495  0.00  0.00    +0.047 A 
ATOM     26 BR   UNL     1       4.835   9.590   1.921  0.00  0.00    -0.050 Br
ENDBRANCH  19  20
ENDBRANCH  18  19
ENDBRANCH  17  18
ENDBRANCH  16  17
ENDBRANCH   4  16
TORSDOF 7
