REMARK  Name = ZINC12368972
REMARK  12 active torsions:
REMARK  status: ('A' for Active; 'I' for Inactive)
REMARK    1  A    between atoms: C_1  and  C_2
REMARK    2  A    between atoms: C_3  and  C_15
REMARK    3  A    between atoms: C_15  and  O_17
REMARK    4  A    between atoms: O_17  and  N_18
REMARK    5  A    between atoms: N_18  and  C_19
REMARK    6  A    between atoms: C_19  and  C_21
REMARK    7  A    between atoms: C_19  and  N_50
REMARK    8  A    between atoms: C_24  and  O_27
REMARK    9  A    between atoms: O_27  and  S_28
REMARK   10  A    between atoms: S_28  and  N_31
REMARK   11  A    between atoms: N_31  and  C_32
REMARK   12  A    between atoms: N_31  and  C_33
REMARK                            x       y       z     vdW  Elec       q    Type
REMARK                         _______ _______ _______ _____ _____    ______ ____
ROOT
ATOM      1  N   UNL     1      -2.700  -2.131   1.116  0.00  0.00    -0.162 NA
ATOM      2  H   UNL     1      -2.461  -2.950   0.577  0.00  0.00    +0.166 HD
ENDROOT
BRANCH   1   3
ATOM      3  O   UNL     1      -1.692  -1.305   1.182  0.00  0.00    -0.367 OA
BRANCH   3   4
ATOM      4  C   UNL     1      -1.169  -0.885   0.013  0.00  0.00    +0.362 C 
ATOM      5  O   UNL     1      -1.637  -1.276  -1.039  0.00  0.00    -0.243 OA
BRANCH   4   8
ATOM      6  C   UNL     1       1.845  -1.673   0.023  0.00  0.00    +0.087 C 
ATOM      7  C   UNL     1       1.291  -0.272   0.014  0.00  0.00    +0.117 A 
ATOM      8  C   UNL     1      -0.032   0.046   0.010  0.00  0.00    +0.112 A 
ATOM      9  C   UNL     1      -0.088   1.523   0.002  0.00  0.00    +0.076 A 
ATOM     10  C   UNL     1       1.247   1.948   0.002  0.00  0.00    +0.177 A 
ATOM     11  O   UNL     1       2.027   0.846   0.009  0.00  0.00    -0.456 OA
ATOM     12  C   UNL     1       1.529   3.310  -0.005  0.00  0.00    +0.204 A 
ATOM     13  C   UNL     1       0.496   4.229  -0.012  0.00  0.00    +0.200 A 
ATOM     14  C   UNL     1      -0.827   3.805  -0.011  0.00  0.00    +0.197 A 
ATOM     15  C   UNL     1      -1.123   2.455  -0.011  0.00  0.00    +0.173 A 
ATOM     16  F   UNL     1      -2.409   2.041  -0.017  0.00  0.00    -0.202 F 
ATOM     17  F   UNL     1      -1.827   4.714  -0.018  0.00  0.00    -0.199 F 
ATOM     18  F   UNL     1       0.776   5.550  -0.018  0.00  0.00    -0.199 F 
ATOM     19  F   UNL     1       2.811   3.735  -0.006  0.00  0.00    -0.198 F 
ENDBRANCH   4   8
ENDBRANCH   3   4
ENDBRANCH   1   3
BRANCH   1  20
ATOM     20  C   UNL     1      -3.165  -2.502   2.459  0.00  0.00    +0.063 C 
BRANCH  20  21
ATOM     21  C   UNL     1      -3.885  -3.824   2.394  0.00  0.00    -0.045 A 
ATOM     22  C   UNL     1      -3.476  -4.873   3.196  0.00  0.00    +0.007 A 
ATOM     23  C   UNL     1      -4.139  -6.084   3.142  0.00  0.00    +0.049 A 
ATOM     24  C   UNL     1      -5.208  -6.251   2.273  0.00  0.00    +0.158 A 
ATOM     25  C   UNL     1      -5.613  -5.198   1.466  0.00  0.00    +0.049 A 
ATOM     26  C   UNL     1      -4.951  -3.987   1.528  0.00  0.00    +0.007 A 
BRANCH  24  27
ATOM     27  O   UNL     1      -5.857  -7.443   2.214  0.00  0.00    -0.334 OA
BRANCH  27  28
ATOM     28  S   UNL     1      -5.279  -8.412   1.193  0.00  0.00    +0.194 S 
ATOM     29  O   UNL     1      -6.185  -9.504   1.111  0.00  0.00    -0.119 OA
ATOM     30  O   UNL     1      -4.915  -7.638   0.059  0.00  0.00    -0.119 OA
BRANCH  28  31
ATOM     31  N   UNL     1      -3.872  -9.011   1.829  0.00  0.00    -0.153 NA
ATOM     32  C   UNL     1      -3.896 -10.227   2.646  0.00  0.00    +0.134 C 
ATOM     33  C   UNL     1      -2.603  -8.325   1.573  0.00  0.00    +0.134 C 
ENDBRANCH  28  31
ENDBRANCH  27  28
ENDBRANCH  24  27
ENDBRANCH  20  21
BRANCH  20  36
ATOM     34  H   UNL     1      -4.882  -1.371   2.359  0.00  0.00    -0.087 HD
ATOM     35  H   UNL     1      -4.364  -1.669   3.911  0.00  0.00    -0.087 HD
ATOM     36  N   UNL     1      -4.065  -1.449   2.962  0.00  0.00    +0.393 N 
ATOM     37  H   UNL     1      -3.566  -0.552   2.967  0.00  0.00    -0.087 HD
ENDBRANCH  20  36
ENDBRANCH   1  20
TORSDOF 9
