REMARK  Name = ZINC29056289
REMARK  3 active torsions:
REMARK  status: ('A' for Active; 'I' for Inactive)
REMARK    1  A    between atoms: C_1  and  C_2
REMARK    2  A    between atoms: C_4  and  C_14
REMARK    3  A    between atoms: C_19  and  C_22
REMARK                            x       y       z     vdW  Elec       q    Type
REMARK                         _______ _______ _______ _____ _____    ______ ____
ROOT
ATOM      1  C   UNL     1       1.954   9.560   0.004  0.00  0.00    +0.263 C 
ATOM      2  O   UNL     1       0.825   9.998  -0.049  0.00  0.00    -0.271 OA
ATOM      3  N   UNL     1       2.165   8.230  -0.057  0.00  0.00    -0.262 N 
ATOM      4  C   UNL     1       1.085   7.356  -0.068  0.00  0.00    +0.165 A 
ATOM      5  N   UNL     1       1.079   6.037  -0.117  0.00  0.00    -0.225 NA
ATOM      6  C   UNL     1      -0.055   5.354  -0.122  0.00  0.00    +0.080 A 
ATOM      7  C   UNL     1      -1.244   6.027  -0.065  0.00  0.00    +0.076 A 
ATOM      8  S   UNL     1      -0.664   7.718  -0.009  0.00  0.00    -0.060 S 
ATOM      9  H   UNL     1       3.192   7.838  -0.099  0.00  0.00    +0.157 HD
ENDROOT
BRANCH   1  12
ATOM     10  C   UNL     1       1.804  11.968   1.685  0.00  0.00    +0.056 C 
ATOM     11  C   UNL     1       3.097  11.166   1.521  0.00  0.00    +0.220 C 
ATOM     12  C   UNL     1       3.122  10.503   0.137  0.00  0.00    +0.299 C 
ATOM     13  O   UNL     1       4.348   9.774   0.011  0.00  0.00    -0.472 OA
ATOM     14  C   UNL     1       5.484  10.416   0.399  0.00  0.00    +0.163 A 
ATOM     15  C   UNL     1       6.715   9.931  -0.016  0.00  0.00    +0.049 A 
ATOM     16  C   UNL     1       7.878  10.569   0.373  0.00  0.00    +0.004 A 
ATOM     17  C   UNL     1       7.817  11.693   1.176  0.00  0.00    +0.004 A 
ATOM     18  C   UNL     1       6.593  12.181   1.593  0.00  0.00    +0.049 A 
ATOM     19  C   UNL     1       5.423  11.547   1.205  0.00  0.00    +0.163 A 
ATOM     20  O   UNL     1       4.225  12.042   1.619  0.00  0.00    -0.481 OA
ENDBRANCH   1  12
BRANCH   6  21
ATOM     21  C   UNL     1      -0.037   3.872  -0.184  0.00  0.00    +0.004 A 
ATOM     22  C   UNL     1       1.177   3.189  -0.243  0.00  0.00    +0.010 A 
ATOM     23  C   UNL     1       1.190   1.811  -0.300  0.00  0.00    +0.003 A 
ATOM     24  C   UNL     1       0.001   1.104  -0.298  0.00  0.00    +0.038 A 
ATOM     25  C   UNL     1      -1.209   1.776  -0.246  0.00  0.00    +0.124 A 
ATOM     26  C   UNL     1      -1.233   3.157  -0.183  0.00  0.00    +0.048 A 
ATOM     27  F   UNL     1      -2.368   1.081  -0.251  0.00  0.00    -0.205 F 
ENDBRANCH   6  21
TORSDOF 2
