REMARK  Name = ZINC46791352
REMARK  8 active torsions:
REMARK  status: ('A' for Active; 'I' for Inactive)
REMARK    1  A    between atoms: C_1  and  C_2
REMARK    2  A    between atoms: C_7  and  C_10
REMARK    3  A    between atoms: C_14  and  C_17
REMARK    4  A    between atoms: C_17  and  N_18
REMARK    5  A    between atoms: C_19  and  C_21
REMARK    6  A    between atoms: C_21  and  C_23
REMARK    7  A    between atoms: C_21  and  O_24
REMARK    8  A    between atoms: O_24  and  C_25
REMARK                            x       y       z     vdW  Elec       q    Type
REMARK                         _______ _______ _______ _____ _____    ______ ____
ROOT
ATOM      1  C   UNL     1      -4.208  -5.499  -3.192  0.00  0.00    +0.141 C 
ENDROOT
BRANCH   1  13
ATOM      2  C   UNL     1      -0.095  -2.111   3.713  0.00  0.00    +0.039 C 
ATOM      3  C   UNL     1      -1.044  -1.727   2.576  0.00  0.00    +0.133 C 
ATOM      4  C   UNL     1      -0.646  -2.479   1.301  0.00  0.00    +0.137 C 
ATOM      5  N   UNL     1      -1.448  -1.956   0.184  0.00  0.00    -0.312 N 
ATOM      6  C   UNL     1      -1.495  -0.498  -0.011  0.00  0.00    +0.137 C 
ATOM      7  C   UNL     1      -1.852   0.157   1.328  0.00  0.00    +0.133 C 
ATOM      8  O   UNL     1      -0.961  -0.320   2.339  0.00  0.00    -0.371 OA
ATOM      9  C   UNL     1      -3.291  -0.201   1.705  0.00  0.00    +0.039 C 
ATOM     10  C   UNL     1      -2.141  -2.814  -0.663  0.00  0.00    +0.099 A 
ATOM     11  C   UNL     1      -2.983  -2.288  -1.638  0.00  0.00    +0.042 A 
ATOM     12  C   UNL     1      -3.666  -3.153  -2.473  0.00  0.00    +0.010 A 
ATOM     13  C   UNL     1      -3.483  -4.520  -2.305  0.00  0.00    -0.014 A 
ATOM     14  C   UNL     1      -2.632  -4.972  -1.317  0.00  0.00    +0.089 A 
ATOM     15  N   UNL     1      -1.989  -4.123  -0.537  0.00  0.00    -0.349 N 
ATOM     16  H   UNL     1      -1.393  -4.467   0.147  0.00  0.00    +0.167 HD
ENDBRANCH   1  13
BRANCH   1  17
ATOM     17  N   UNL     1      -3.389  -5.786  -4.373  0.00  0.00    -0.308 N 
ATOM     18  C   UNL     1      -3.839  -6.642  -5.313  0.00  0.00    +0.254 C 
ATOM     19  O   UNL     1      -4.920  -7.175  -5.180  0.00  0.00    -0.272 OA
ATOM     20  H   UNL     1      -2.525  -5.360  -4.479  0.00  0.00    +0.149 HD
BRANCH  18  21
ATOM     21  C   UNL     1      -2.997  -6.936  -6.527  0.00  0.00    +0.256 C 
ATOM     22  C   UNL     1      -1.714  -7.651  -6.098  0.00  0.00    +0.062 C 
BRANCH  21  23
ATOM     23  O   UNL     1      -3.731  -7.773  -7.424  0.00  0.00    -0.479 OA
BRANCH  23  24
ATOM     24  C   UNL     1      -3.387  -7.721  -8.738  0.00  0.00    +0.136 A 
ATOM     25  C   UNL     1      -2.291  -6.971  -9.140  0.00  0.00    +0.049 A 
ATOM     26  C   UNL     1      -1.942  -6.920 -10.476  0.00  0.00    +0.042 A 
ATOM     27  C   UNL     1      -2.686  -7.615 -11.414  0.00  0.00    +0.125 A 
ATOM     28  C   UNL     1      -3.781  -8.363 -11.015  0.00  0.00    +0.057 A 
ATOM     29  C   UNL     1      -4.129  -8.421  -9.679  0.00  0.00    +0.062 A 
ATOM     30 BR   UNL     1      -5.619  -9.450  -9.133  0.00  0.00    -0.046 Br
ATOM     31  F   UNL     1      -2.344  -7.562 -12.720  0.00  0.00    -0.205 F 
ENDBRANCH  23  24
ENDBRANCH  21  23
ENDBRANCH  18  21
ENDBRANCH   1  17
TORSDOF 5
