REMARK  Name = ZINC34676900
REMARK  6 active torsions:
REMARK  status: ('A' for Active; 'I' for Inactive)
REMARK    1  A    between atoms: C_1  and  C_2
REMARK    2  A    between atoms: C_2  and  C_3
REMARK    3  A    between atoms: C_2  and  N_4
REMARK    4  A    between atoms: N_4  and  C_5
REMARK    5  A    between atoms: N_15  and  C_18
REMARK    6  A    between atoms: N_30  and  C_31
REMARK                            x       y       z     vdW  Elec       q    Type
REMARK                         _______ _______ _______ _____ _____    ______ ____
ROOT
ATOM      1  N   UNL     1      -1.621  -1.233   1.168  0.00  0.00    -0.315 N 
ATOM      2  C   UNL     1      -1.608   0.180   1.553  0.00  0.00    +0.131 C 
ATOM      3  C   UNL     1      -1.734  -1.586  -0.167  0.00  0.00    +0.131 A 
ATOM      4  C   UNL     1      -2.994  -1.677  -0.771  0.00  0.00    +0.029 A 
ATOM      5  C   UNL     1      -3.066  -2.024  -2.098  0.00  0.00    +0.028 A 
ATOM      6  N   UNL     1      -1.937  -2.275  -2.758  0.00  0.00    -0.331 N 
ATOM      7  C   UNL     1      -0.759  -2.184  -2.164  0.00  0.00    +0.198 A 
ATOM      8  N   UNL     1      -0.649  -1.837  -0.890  0.00  0.00    -0.201 NA
ATOM      9  N   UNL     1       0.387  -2.452  -2.892  0.00  0.00    -0.298 N 
ATOM     10  C   UNL     1       0.312  -2.701  -4.339  0.00  0.00    +0.127 C 
ATOM     11  C   UNL     1       1.250  -1.720  -5.054  0.00  0.00    +0.124 C 
ATOM     12  N   UNL     1       2.563  -1.760  -4.394  0.00  0.00    -0.327 N 
ATOM     13  C   UNL     1       2.637  -1.511  -2.948  0.00  0.00    +0.124 C 
ATOM     14  C   UNL     1       1.700  -2.487  -2.234  0.00  0.00    +0.127 C 
ATOM     15  C   UNL     1      -4.367  -2.120  -2.848  0.00  0.00    +0.072 C 
ATOM     16  C   UNL     1      -5.540  -2.281  -1.882  0.00  0.00    +0.116 C 
ATOM     17  N   UNL     1      -5.390  -1.281  -0.812  0.00  0.00    -0.281 N 
ATOM     18  C   UNL     1      -4.216  -1.398   0.062  0.00  0.00    +0.149 C 
ATOM     19  C   UNL     1      -6.295  -0.297  -0.642  0.00  0.00    +0.307 C 
ATOM     20  O   UNL     1      -7.302  -0.272  -1.323  0.00  0.00    -0.252 OA
ATOM     21  N   UNL     1      -6.083   0.660   0.283  0.00  0.00    -0.269 N 
ATOM     22  H   UNL     1      -5.236   0.701   0.754  0.00  0.00    +0.156 HD
ATOM     23  H   UNL     1      -1.980  -2.529  -3.694  0.00  0.00    +0.168 HD
ENDROOT
BRANCH  21  24
ATOM     24  C   UNL     1      -7.086   1.595   0.564  0.00  0.00    +0.036 A 
ATOM     25  C   UNL     1      -8.422   1.224   0.496  0.00  0.00    +0.023 A 
ATOM     26  C   UNL     1      -9.410   2.148   0.775  0.00  0.00    +0.003 A 
ATOM     27  C   UNL     1      -9.070   3.443   1.120  0.00  0.00    +0.020 A 
ATOM     28  C   UNL     1      -7.739   3.817   1.188  0.00  0.00    +0.043 A 
ATOM     29  C   UNL     1      -6.746   2.895   0.916  0.00  0.00    +0.043 A 
ATOM     30 CL   UNL     1      -7.316   5.444   1.621  0.00  0.00    -0.083 Cl
ENDBRANCH  21  24
BRANCH  12  31
ATOM     31  C   UNL     1       3.719  -2.031  -5.129  0.00  0.00    +0.030 A 
ATOM     32  C   UNL     1       3.626  -2.378  -6.471  0.00  0.00    +0.023 A 
ATOM     33  C   UNL     1       4.772  -2.644  -7.195  0.00  0.00    +0.002 A 
ATOM     34  C   UNL     1       6.011  -2.567  -6.585  0.00  0.00    +0.000 A 
ATOM     35  C   UNL     1       6.107  -2.221  -5.250  0.00  0.00    +0.002 A 
ATOM     36  C   UNL     1       4.966  -1.948  -4.522  0.00  0.00    +0.023 A 
ENDBRANCH  12  31
BRANCH   1  38
ATOM     37  C   UNL     1      -0.194  -2.109   2.951  0.00  0.00    +0.028 C 
ATOM     38  C   UNL     1      -1.513  -2.273   2.194  0.00  0.00    +0.068 C 
ATOM     39  C   UNL     1      -2.682  -2.147   3.173  0.00  0.00    +0.028 C 
ENDBRANCH   1  38
TORSDOF 3
