REMARK  Name = ZINC12405075
REMARK  0 active torsions:
REMARK  status: ('A' for Active; 'I' for Inactive)
REMARK                            x       y       z     vdW  Elec       q    Type
REMARK                         _______ _______ _______ _____ _____    ______ ____
ROOT
ATOM      1  C   UNL     1      -1.480   3.620   0.040  0.00  0.00    +0.003 C 
ATOM      2  C   UNL     1      -0.767   3.124  -1.220  0.00  0.00    +0.003 C 
ATOM      3  C   UNL     1      -0.753   1.594  -1.231  0.00  0.00    +0.034 C 
ATOM      4  C   UNL     1      -0.013   1.085   0.008  0.00  0.00    +0.147 C 
ATOM      5  C   UNL     1      -0.728   1.580   1.267  0.00  0.00    +0.147 C 
ATOM      6  C   UNL     1      -0.740   3.110   1.278  0.00  0.00    +0.034 C 
ATOM      7  O   UNL     1      -2.072   1.095   1.271  0.00  0.00    -0.372 OA
ATOM      8  C   UNL     1      -2.526   0.649   2.550  0.00  0.00    +0.188 C 
ATOM      9  C   UNL     1      -2.227  -0.844   2.704  0.00  0.00    +0.188 C 
ATOM     10  O   UNL     1      -2.329  -1.210   4.081  0.00  0.00    -0.375 OA
ATOM     11  C   UNL     1      -2.489  -2.614   4.298  0.00  0.00    +0.188 C 
ATOM     12  C   UNL     1      -2.131  -2.949   5.747  0.00  0.00    +0.188 C 
ATOM     13  O   UNL     1      -1.707  -4.310   5.831  0.00  0.00    -0.375 OA
ATOM     14  C   UNL     1      -0.287  -4.477   5.842  0.00  0.00    +0.188 C 
ATOM     15  C   UNL     1       0.052  -5.942   6.122  0.00  0.00    +0.188 C 
ATOM     16  O   UNL     1       1.228  -6.306   5.398  0.00  0.00    -0.372 OA
ATOM     17  C   UNL     1       2.274  -6.836   6.215  0.00  0.00    +0.147 C 
ATOM     18  C   UNL     1       1.935  -8.276   6.607  0.00  0.00    +0.034 C 
ATOM     19  C   UNL     1       3.054  -8.844   7.482  0.00  0.00    +0.003 C 
ATOM     20  C   UNL     1       4.370  -8.824   6.702  0.00  0.00    +0.003 C 
ATOM     21  C   UNL     1       4.710  -7.385   6.311  0.00  0.00    +0.034 C 
ATOM     22  C   UNL     1       3.591  -6.816   5.436  0.00  0.00    +0.147 C 
ATOM     23  O   UNL     1       3.908  -5.471   5.072  0.00  0.00    -0.372 OA
ATOM     24  C   UNL     1       4.928  -5.363   4.076  0.00  0.00    +0.188 C 
ATOM     25  C   UNL     1       4.385  -4.593   2.871  0.00  0.00    +0.188 C 
ATOM     26  O   UNL     1       5.408  -3.743   2.349  0.00  0.00    -0.375 OA
ATOM     27  C   UNL     1       5.036  -3.052   1.155  0.00  0.00    +0.188 C 
ATOM     28  C   UNL     1       4.545  -1.647   1.510  0.00  0.00    +0.188 C 
ATOM     29  O   UNL     1       3.523  -1.255   0.590  0.00  0.00    -0.375 OA
ATOM     30  C   UNL     1       2.904  -0.007   0.909  0.00  0.00    +0.188 C 
ATOM     31  C   UNL     1       2.307   0.605  -0.360  0.00  0.00    +0.188 C 
ATOM     32  O   UNL     1       1.327   1.582  -0.002  0.00  0.00    -0.372 OA
ENDROOT
TORSDOF 0
