REMARK  Name = ZINC65375799
REMARK  6 active torsions:
REMARK  status: ('A' for Active; 'I' for Inactive)
REMARK    1  A    between atoms: C_1  and  C_2
REMARK    2  A    between atoms: C_4  and  N_27
REMARK    3  A    between atoms: C_7  and  C_8
REMARK    4  A    between atoms: C_10  and  C_21
REMARK    5  A    between atoms: N_14  and  C_15
REMARK    6  A    between atoms: C_15  and  C_16
REMARK                            x       y       z     vdW  Elec       q    Type
REMARK                         _______ _______ _______ _____ _____    ______ ____
ROOT
ATOM      1  C   UNL     1       0.213   0.136   2.782  0.00  0.00    +0.110 C 
ATOM      2  C   UNL     1       1.663   0.647   2.638  0.00  0.00    +0.107 C 
ATOM      3  N   UNL     1       2.236   0.447   3.996  0.00  0.00    -0.295 NA
ATOM      4  C   UNL     1       1.618  -0.830   4.436  0.00  0.00    +0.170 C 
ATOM      5  N   UNL     1       0.224  -0.782   3.940  0.00  0.00    -0.274 NA
ATOM      6  H   UNL     1       3.241   0.368   3.956  0.00  0.00    +0.124 HD
ENDROOT
BRANCH   1  13
ATOM      7  C   UNL     1      -1.092   1.557   0.634  0.00  0.00    +0.044 C 
ATOM      8  C   UNL     1      -0.830   0.079   0.507  0.00  0.00    -0.044 A 
ATOM      9  C   UNL     1      -1.209  -0.594  -0.638  0.00  0.00    +0.031 A 
ATOM     10  C   UNL     1      -0.966  -1.956  -0.753  0.00  0.00    +0.066 A 
ATOM     11  C   UNL     1      -0.344  -2.638   0.284  0.00  0.00    +0.028 A 
ATOM     12  C   UNL     1       0.033  -1.960   1.426  0.00  0.00    +0.007 A 
ATOM     13  C   UNL     1      -0.205  -0.602   1.536  0.00  0.00    -0.025 A 
BRANCH  10  14
ATOM     14  N   UNL     1      -1.350  -2.642  -1.914  0.00  0.00    -0.240 N 
ATOM     15  C   UNL     1      -1.179  -3.962  -2.152  0.00  0.00    +0.114 A 
ATOM     16  C   UNL     1      -1.683  -4.228  -3.380  0.00  0.00    +0.041 A 
ATOM     17  C   UNL     1      -2.178  -3.032  -3.910  0.00  0.00    +0.135 A 
ATOM     18  N   UNL     1      -1.984  -2.082  -3.031  0.00  0.00    -0.175 NA
ENDBRANCH  10  14
ENDBRANCH   1  13
BRANCH   2  19
ATOM     19  C   UNL     1       1.677   2.106   2.261  0.00  0.00    -0.029 A 
ATOM     20  C   UNL     1       1.345   3.065   3.199  0.00  0.00    +0.005 A 
ATOM     21  C   UNL     1       1.358   4.404   2.853  0.00  0.00    +0.000 A 
ATOM     22  C   UNL     1       1.703   4.783   1.570  0.00  0.00    +0.000 A 
ATOM     23  C   UNL     1       2.035   3.823   0.632  0.00  0.00    +0.000 A 
ATOM     24  C   UNL     1       2.027   2.485   0.978  0.00  0.00    +0.005 A 
ENDBRANCH   2  19
BRANCH   5  25
ATOM     25  C   UNL     1      -0.694  -0.318   4.989  0.00  0.00    +0.158 C 
BRANCH  25  26
ATOM     26  C   UNL     1      -0.845  -1.390   6.036  0.00  0.00    +0.099 A 
ATOM     27  N   UNL     1      -0.565  -2.673   5.870  0.00  0.00    -0.349 N 
ATOM     28  C   UNL     1      -0.826  -3.315   7.028  0.00  0.00    +0.101 A 
ATOM     29  C   UNL     1      -1.271  -2.395   7.907  0.00  0.00    +0.101 A 
ATOM     30  N   UNL     1      -1.272  -1.203   7.275  0.00  0.00    -0.349 N 
ATOM     31  H   UNL     1      -1.541  -0.355   7.661  0.00  0.00    +0.166 HD
ATOM     32  H   UNL     1      -0.231  -3.082   5.057  0.00  0.00    +0.166 HD
ENDBRANCH  25  26
ENDBRANCH   5  25
TORSDOF 5
