REMARK  Name = ZINC35532241
REMARK  9 active torsions:
REMARK  status: ('A' for Active; 'I' for Inactive)
REMARK    1  A    between atoms: C_1  and  C_2
REMARK    2  A    between atoms: C_2  and  O_3
REMARK    3  A    between atoms: O_3  and  C_4
REMARK    4  A    between atoms: C_6  and  C_11
REMARK    5  A    between atoms: C_9  and  O_10
REMARK    6  A    between atoms: C_17  and  S_28
REMARK    7  A    between atoms: S_28  and  C_29
REMARK    8  A    between atoms: C_29  and  C_30
REMARK    9  A    between atoms: C_33  and  N_36
REMARK                            x       y       z     vdW  Elec       q    Type
REMARK                         _______ _______ _______ _____ _____    ______ ____
ROOT
ATOM      1  C   UNL     1      -0.217  -4.963  -0.535  0.00  0.00    +0.093 C 
ATOM      2  C   UNL     1      -1.297  -5.788   0.124  0.00  0.00    +0.075 A 
ATOM      3  C   UNL     1      -2.388  -5.209   0.740  0.00  0.00    +0.280 A 
ATOM      4  O   UNL     1      -2.528  -3.861   0.774  0.00  0.00    -0.265 OA
ATOM      5  N   UNL     1      -3.301  -6.003   1.299  0.00  0.00    -0.183 NA
ATOM      6  C   UNL     1      -3.163  -7.321   1.264  0.00  0.00    +0.194 A 
ATOM      7  N   UNL     1      -2.130  -7.911   0.683  0.00  0.00    -0.202 NA
ATOM      8  C   UNL     1      -1.172  -7.181   0.099  0.00  0.00    +0.165 A 
ATOM      9  N   UNL     1      -0.115  -7.778  -0.497  0.00  0.00    -0.232 NA
ATOM     10  C   UNL     1       0.868  -7.157  -1.094  0.00  0.00    +0.051 C 
ATOM     11  C   UNL     1       0.915  -5.753  -1.168  0.00  0.00    +0.028 C 
ATOM     12  C   UNL     1       1.919  -5.107  -1.776  0.00  0.00    +0.162 C 
ATOM     13  O   UNL     1       1.909  -3.759  -1.816  0.00  0.00    -0.292 OA
ATOM     14  C   UNL     1       3.059  -5.854  -2.416  0.00  0.00    +0.080 C 
ATOM     15  C   UNL     1       3.275  -7.176  -1.673  0.00  0.00    +0.014 C 
ATOM     16  C   UNL     1       1.977  -7.975  -1.716  0.00  0.00    +0.056 C 
ENDROOT
BRANCH   1  19
ATOM     17  C   UNL     1       0.802  -1.825   1.306  0.00  0.00    +0.162 A 
ATOM     18  C   UNL     1       0.261  -2.673   0.353  0.00  0.00    +0.054 A 
ATOM     19  C   UNL     1       0.372  -4.043   0.502  0.00  0.00    -0.031 A 
ATOM     20  C   UNL     1       1.024  -4.570   1.602  0.00  0.00    +0.008 A 
ATOM     21  C   UNL     1       1.566  -3.730   2.557  0.00  0.00    +0.049 A 
ATOM     22  C   UNL     1       1.462  -2.356   2.410  0.00  0.00    +0.158 A 
BRANCH  22  23
ATOM     23  O   UNL     1       2.000  -1.528   3.345  0.00  0.00    -0.503 OA
ATOM     24  H   UNL     1       1.395  -1.301   4.064  0.00  0.00    +0.292 HD
ENDBRANCH  22  23
BRANCH  17  25
ATOM     25  O   UNL     1       0.693  -0.477   1.160  0.00  0.00    -0.489 OA
BRANCH  25  27
ATOM     26  C   UNL     1      -0.019   1.526   0.010  0.00  0.00    +0.048 C 
ATOM     27  C   UNL     1       0.002  -0.004   0.002  0.00  0.00    +0.226 C 
ENDBRANCH  25  27
ENDBRANCH  17  25
ENDBRANCH   1  19
BRANCH   6  28
ATOM     28  S   UNL     1      -4.399  -8.324   2.019  0.00  0.00    -0.081 S 
BRANCH  28  29
ATOM     29  C   UNL     1      -5.596  -7.128   2.674  0.00  0.00    +0.112 C 
BRANCH  29  30
ATOM     30  C   UNL     1      -6.721  -7.864   3.355  0.00  0.00    -0.037 A 
ATOM     31  C   UNL     1      -7.836  -8.243   2.632  0.00  0.00    +0.007 A 
ATOM     32  C   UNL     1      -8.868  -8.918   3.257  0.00  0.00    +0.033 A 
ATOM     33  C   UNL     1      -8.784  -9.215   4.604  0.00  0.00    +0.126 A 
ATOM     34  C   UNL     1      -7.668  -8.838   5.327  0.00  0.00    +0.033 A 
ATOM     35  C   UNL     1      -6.634  -8.166   4.701  0.00  0.00    +0.007 A 
BRANCH  33  36
ATOM     36  N   UNL     1      -9.890  -9.937   5.273  0.00  0.00    +0.056 N 
ATOM     37  O   UNL     1     -10.866 -10.267   4.641  0.00  0.00    -0.126 OA
ATOM     38  O   UNL     1      -9.816 -10.197   6.451  0.00  0.00    -0.126 OA
ENDBRANCH  33  36
ENDBRANCH  29  30
ENDBRANCH  28  29
ENDBRANCH   6  28
TORSDOF 8
