REMARK  Name = ZINC13069285
REMARK  8 active torsions:
REMARK  status: ('A' for Active; 'I' for Inactive)
REMARK    1  A    between atoms: C_1  and  N_54
REMARK    2  A    between atoms: C_2  and  C_3
REMARK    3  A    between atoms: C_2  and  N_54
REMARK    4  A    between atoms: N_5  and  C_6
REMARK    5  A    between atoms: C_13  and  N_14
REMARK    6  A    between atoms: C_13  and  N_54
REMARK    7  A    between atoms: N_17  and  C_26
REMARK    8  A    between atoms: C_18  and  C_20
REMARK                            x       y       z     vdW  Elec       q    Type
REMARK                         _______ _______ _______ _____ _____    ______ ____
ROOT
ATOM      1  N   UNL     1       6.243   1.726   0.342  0.00  0.00    -0.257 N 
ATOM      2  C   UNL     1       6.909   2.271  -0.696  0.00  0.00    +0.181 A 
ATOM      3  S   UNL     1       6.665   1.915  -2.353  0.00  0.00    -0.011 S 
ATOM      4  N   UNL     1       7.801   3.148  -0.194  0.00  0.00    -0.271 N 
ATOM      5  C   UNL     1       7.689   3.138   1.184  0.00  0.00    +0.167 A 
ATOM      6  N   UNL     1       6.758   2.289   1.517  0.00  0.00    -0.152 NA
ENDROOT
BRANCH   4   7
ATOM      7  C   UNL     1       8.693   3.931  -0.940  0.00  0.00    +0.051 A 
ATOM      8  C   UNL     1       8.508   5.305  -1.025  0.00  0.00    +0.029 A 
ATOM      9  C   UNL     1       9.391   6.075  -1.756  0.00  0.00    +0.040 A 
ATOM     10  C   UNL     1      10.453   5.478  -2.413  0.00  0.00    +0.124 A 
ATOM     11  C   UNL     1      10.635   4.107  -2.335  0.00  0.00    +0.040 A 
ATOM     12  C   UNL     1       9.758   3.334  -1.600  0.00  0.00    +0.029 A 
ATOM     13  F   UNL     1      11.312   6.232  -3.132  0.00  0.00    -0.205 F 
ENDBRANCH   4   7
BRANCH   5  14
ATOM     14  C   UNL     1       8.491   3.955   2.122  0.00  0.00    +0.020 A 
ATOM     15  C   UNL     1       9.693   4.525   1.703  0.00  0.00    +0.011 A 
ATOM     16  C   UNL     1      10.433   5.290   2.581  0.00  0.00    +0.001 A 
ATOM     17  C   UNL     1       9.991   5.482   3.878  0.00  0.00    +0.000 A 
ATOM     18  C   UNL     1       8.802   4.915   4.301  0.00  0.00    +0.001 A 
ATOM     19  C   UNL     1       8.050   4.153   3.431  0.00  0.00    +0.011 A 
ENDBRANCH   5  14
BRANCH   1  20
ATOM     20  C   UNL     1       5.179   0.722   0.257  0.00  0.00    +0.072 C 
BRANCH  20  22
ATOM     21  C   UNL     1       3.762   2.135  -1.106  0.00  0.00    -0.093 C 
ATOM     22  N   UNL     1       3.876   1.414   0.180  0.00  0.00    +0.397 N 
ATOM     23  H   UNL     1       3.812   2.092   0.949  0.00  0.00    -0.079 HD
BRANCH  22  24
ATOM     24  C   UNL     1       2.775   0.436   0.309  0.00  0.00    +0.021 C 
BRANCH  24  25
ATOM     25  C   UNL     1       1.474   1.183   0.449  0.00  0.00    +0.201 C 
ATOM     26  O   UNL     1       1.466   2.396   0.425  0.00  0.00    -0.278 OA
ATOM     27  N   UNL     1       0.320   0.504   0.600  0.00  0.00    -0.287 N 
ATOM     28  H   UNL     1       0.316  -0.464   0.543  0.00  0.00    +0.155 HD
BRANCH  27  29
ATOM     29  C   UNL     1      -0.874   1.197   0.834  0.00  0.00    +0.033 A 
ATOM     30  C   UNL     1      -0.848   2.437   1.458  0.00  0.00    +0.025 A 
ATOM     31  C   UNL     1      -2.026   3.121   1.681  0.00  0.00    +0.022 A 
ATOM     32  C   UNL     1      -3.234   2.566   1.297  0.00  0.00    +0.041 A 
ATOM     33  C   UNL     1      -3.264   1.327   0.681  0.00  0.00    +0.022 A 
ATOM     34  C   UNL     1      -2.087   0.641   0.449  0.00  0.00    +0.025 A 
ATOM     35 CL   UNL     1      -4.715   3.425   1.587  0.00  0.00    -0.084 Cl
ENDBRANCH  27  29
ENDBRANCH  24  25
ENDBRANCH  22  24
ENDBRANCH  20  22
ENDBRANCH   1  20
TORSDOF 7
