REMARK  Name = ZINC42210760
REMARK  5 active torsions:
REMARK  status: ('A' for Active; 'I' for Inactive)
REMARK    1  A    between atoms: C_1  and  N_2
REMARK    2  A    between atoms: C_4  and  C_7
REMARK    3  A    between atoms: C_7  and  O_8
REMARK    4  A    between atoms: O_8  and  C_9
REMARK    5  A    between atoms: C_12  and  C_16
REMARK                            x       y       z     vdW  Elec       q    Type
REMARK                         _______ _______ _______ _____ _____    ______ ____
ROOT
ATOM      1  C   UNL     1       1.578  -4.753  -2.640  0.00  0.00    +0.139 A 
ATOM      2  C   UNL     1       0.482  -5.447  -3.135  0.00  0.00    +0.048 A 
ATOM      3  C   UNL     1       0.668  -6.550  -3.939  0.00  0.00    +0.022 A 
ATOM      4  C   UNL     1       1.963  -6.971  -4.257  0.00  0.00    +0.053 A 
ATOM      5  C   UNL     1       3.063  -6.269  -3.757  0.00  0.00    +0.042 A 
ATOM      6  C   UNL     1       2.868  -5.164  -2.958  0.00  0.00    +0.084 A 
ATOM      7 CL   UNL     1       4.234  -4.287  -2.341  0.00  0.00    -0.080 Cl
ENDROOT
BRANCH   4   8
ATOM      8  C   UNL     1       2.160  -8.117  -5.091  0.00  0.00    +0.099 C 
ATOM      9  N   UNL     1       2.317  -9.027  -5.754  0.00  0.00    -0.191 NA
ENDBRANCH   4   8
BRANCH   1  10
ATOM     10  O   UNL     1       1.390  -3.666  -1.848  0.00  0.00    -0.486 OA
BRANCH  10  11
ATOM     11  C   UNL     1       0.039  -3.298  -1.561  0.00  0.00    +0.267 C 
BRANCH  11  15
ATOM     12  C   UNL     1      -0.018   1.461   0.010  0.00  0.00    +0.172 C 
ATOM     13  N   UNL     1       0.002  -0.004   0.002  0.00  0.00    -0.274 N 
ATOM     14  C   UNL     1       0.008  -0.792  -1.094  0.00  0.00    +0.115 A 
ATOM     15  C   UNL     1       0.027  -2.079  -0.676  0.00  0.00    +0.027 A 
ATOM     16  C   UNL     1       0.034  -2.078   0.723  0.00  0.00    +0.141 A 
ATOM     17  N   UNL     1       0.025  -0.834   1.130  0.00  0.00    -0.180 NA
ENDBRANCH  11  15
ENDBRANCH  10  11
ENDBRANCH   1  10
TORSDOF 4
