REMARK  Name = ZINC13218936
REMARK  8 active torsions:
REMARK  status: ('A' for Active; 'I' for Inactive)
REMARK    1  A    between atoms: C_6  and  N_7
REMARK    2  A    between atoms: C_8  and  C_27
REMARK    3  A    between atoms: C_11  and  S_12
REMARK    4  A    between atoms: S_12  and  C_13
REMARK    5  A    between atoms: C_13  and  C_14
REMARK    6  A    between atoms: N_16  and  C_17
REMARK    7  A    between atoms: C_19  and  C_25
REMARK    8  A    between atoms: C_21  and  C_23
REMARK                            x       y       z     vdW  Elec       q    Type
REMARK                         _______ _______ _______ _____ _____    ______ ____
ROOT
ATOM      1  N   UNL     1      -6.545   0.967   0.309  0.00  0.00    -0.270 N 
ATOM      2  C   UNL     1      -7.167  -0.258   0.421  0.00  0.00    +0.169 A 
ATOM      3  N   UNL     1      -6.222  -1.169   0.444  0.00  0.00    -0.128 NA
ATOM      4  N   UNL     1      -5.069  -0.609   0.350  0.00  0.00    -0.122 NA
ATOM      5  C   UNL     1      -5.206   0.696   0.263  0.00  0.00    +0.197 A 
ENDROOT
BRANCH   1  11
ATOM      6  C   UNL     1      -7.869   2.703   1.346  0.00  0.00    +0.029 A 
ATOM      7  C   UNL     1      -8.468   3.946   1.291  0.00  0.00    +0.040 A 
ATOM      8  C   UNL     1      -8.368   4.713   0.143  0.00  0.00    +0.124 A 
ATOM      9  C   UNL     1      -7.664   4.238  -0.951  0.00  0.00    +0.040 A 
ATOM     10  C   UNL     1      -7.059   2.998  -0.897  0.00  0.00    +0.029 A 
ATOM     11  C   UNL     1      -7.158   2.227   0.253  0.00  0.00    +0.051 A 
ATOM     12  F   UNL     1      -8.959   5.928   0.089  0.00  0.00    -0.205 F 
ENDBRANCH   1  11
BRANCH   2  13
ATOM     13  C   UNL     1      -8.622  -0.499   0.505  0.00  0.00    +0.022 A 
ATOM     14  C   UNL     1      -9.539   0.504   0.169  0.00  0.00    +0.031 A 
ATOM     15  C   UNL     1     -10.888   0.234   0.257  0.00  0.00    +0.111 A 
ATOM     16  N   UNL     1     -11.318  -0.947   0.661  0.00  0.00    -0.263 NA
ATOM     17  C   UNL     1     -10.489  -1.919   0.993  0.00  0.00    +0.111 A 
ATOM     18  C   UNL     1      -9.123  -1.737   0.929  0.00  0.00    +0.031 A 
ENDBRANCH   2  13
BRANCH   5  19
ATOM     19  S   UNL     1      -3.906   1.877   0.119  0.00  0.00    -0.076 S 
BRANCH  19  20
ATOM     20  C   UNL     1      -2.474   0.770   0.133  0.00  0.00    +0.173 C 
BRANCH  20  21
ATOM     21  C   UNL     1      -1.210   1.582   0.018  0.00  0.00    +0.227 C 
ATOM     22  O   UNL     1      -1.271   2.791  -0.067  0.00  0.00    -0.275 OA
ATOM     23  N   UNL     1      -0.011   0.966   0.007  0.00  0.00    -0.285 N 
ATOM     24  H   UNL     1       0.036  -0.003   0.007  0.00  0.00    +0.155 HD
BRANCH  23  25
ATOM     25  C   UNL     1       1.166   1.724  -0.008  0.00  0.00    +0.035 A 
ATOM     26  C   UNL     1       1.209   2.920  -0.710  0.00  0.00    +0.038 A 
ATOM     27  C   UNL     1       2.379   3.681  -0.724  0.00  0.00    +0.066 A 
ATOM     28  C   UNL     1       3.508   3.233  -0.040  0.00  0.00    +0.030 A 
ATOM     29  C   UNL     1       3.463   2.028   0.659  0.00  0.00    +0.066 A 
ATOM     30  C   UNL     1       2.287   1.275   0.673  0.00  0.00    +0.038 A 
BRANCH  29  31
ATOM     31  C   UNL     1       4.657   1.549   1.386  0.00  0.00    +0.387 C 
ATOM     32  O   UNL     1       4.616   0.499   1.995  0.00  0.00    -0.241 OA
ATOM     33  O   UNL     1       5.790   2.277   1.372  0.00  0.00    -0.241 OA
ENDBRANCH  29  31
BRANCH  27  34
ATOM     34  C   UNL     1       2.423   4.958  -1.466  0.00  0.00    +0.387 C 
ATOM     35  O   UNL     1       1.438   5.348  -2.062  0.00  0.00    -0.241 OA
ATOM     36  O   UNL     1       3.554   5.689  -1.483  0.00  0.00    -0.241 OA
ENDBRANCH  27  34
ENDBRANCH  23  25
ENDBRANCH  20  21
ENDBRANCH  19  20
ENDBRANCH   5  19
TORSDOF 8
