REMARK  Name = ZINC63374624
REMARK  6 active torsions:
REMARK  status: ('A' for Active; 'I' for Inactive)
REMARK    1  A    between atoms: C_1  and  C_2
REMARK    2  A    between atoms: C_5  and  N_8
REMARK    3  A    between atoms: C_11  and  C_36
REMARK    4  A    between atoms: C_22  and  C_28
REMARK    5  A    between atoms: C_33  and  O_34
REMARK    6  A    between atoms: O_34  and  C_35
REMARK                            x       y       z     vdW  Elec       q    Type
REMARK                         _______ _______ _______ _____ _____    ______ ____
ROOT
ATOM      1  N   UNL     1       0.057  -4.172  -0.021  0.00  0.00    -0.192 N 
ATOM      2  C   UNL     1       0.165  -4.935   1.087  0.00  0.00    +0.253 C 
ATOM      3  O   UNL     1       0.288  -4.551   2.230  0.00  0.00    -0.272 OA
ATOM      4  C   UNL     1       0.098  -6.368   0.607  0.00  0.00    +0.137 C 
ATOM      5  C   UNL     1       1.402  -7.099   0.948  0.00  0.00    +0.139 C 
ATOM      6  C   UNL     1       1.492  -8.287  -0.002  0.00  0.00    -0.027 C 
ATOM      7  C   UNL     1       1.587  -9.370   0.763  0.00  0.00    -0.000 A 
ATOM      8  C   UNL     1       1.761 -10.792   0.426  0.00  0.00    +0.010 A 
ATOM      9  C   UNL     1       1.810 -11.655   1.475  0.00  0.00    +0.001 A 
ATOM     10  C   UNL     1       1.706 -11.250   2.810  0.00  0.00    +0.002 A 
ATOM     11  C   UNL     1       1.549  -9.963   3.211  0.00  0.00    +0.026 A 
ATOM     12  C   UNL     1       1.488  -8.963   2.197  0.00  0.00    +0.043 A 
ATOM     13  N   UNL     1       1.361  -7.661   2.300  0.00  0.00    -0.375 N 
ATOM     14  C   UNL     1       1.409  -8.156  -1.503  0.00  0.00    +0.069 C 
ATOM     15  C   UNL     1       0.138  -7.342  -1.818  0.00  0.00    +0.123 C 
ATOM     16  N   UNL     1       0.057  -6.230  -0.867  0.00  0.00    -0.268 N 
ATOM     17  C   UNL     1      -0.036  -4.920  -1.129  0.00  0.00    +0.317 C 
ATOM     18  O   UNL     1      -0.185  -4.461  -2.244  0.00  0.00    -0.252 OA
ATOM     19  C   UNL     1      -1.133  -7.096   1.150  0.00  0.00    +0.044 C 
ATOM     20  H   UNL     1       1.256  -7.155   3.122  0.00  0.00    +0.160 HD
ENDROOT
BRANCH   1  25
ATOM     21  C   UNL     1      -0.018   1.503   0.010  0.00  0.00    +0.044 C 
ATOM     22  C   UNL     1       0.002  -0.004   0.002  0.00  0.00    -0.050 A 
ATOM     23  C   UNL     1       0.029  -0.687  -1.200  0.00  0.00    +0.005 A 
ATOM     24  C   UNL     1       0.047  -2.068  -1.211  0.00  0.00    +0.024 A 
ATOM     25  C   UNL     1       0.039  -2.771  -0.013  0.00  0.00    +0.045 A 
ATOM     26  C   UNL     1       0.013  -2.082   1.192  0.00  0.00    +0.024 A 
ATOM     27  C   UNL     1      -0.001  -0.701   1.196  0.00  0.00    +0.005 A 
ENDBRANCH   1  25
BRANCH  14  28
ATOM     28  C   UNL     1       2.625  -7.434  -2.023  0.00  0.00    +0.003 A 
ATOM     29  C   UNL     1       2.904  -6.151  -1.593  0.00  0.00    +0.008 A 
ATOM     30  C   UNL     1       4.020  -5.488  -2.071  0.00  0.00    +0.001 A 
ATOM     31  C   UNL     1       4.859  -6.107  -2.979  0.00  0.00    +0.004 A 
ATOM     32  C   UNL     1       4.584  -7.389  -3.412  0.00  0.00    +0.046 A 
ATOM     33  C   UNL     1       3.468  -8.059  -2.930  0.00  0.00    +0.124 A 
BRANCH  33  34
ATOM     34  O   UNL     1       3.199  -9.323  -3.350  0.00  0.00    -0.495 OA
ATOM     35  C   UNL     1       4.111  -9.904  -4.284  0.00  0.00    +0.277 C 
ENDBRANCH  33  34
ENDBRANCH  14  28
TORSDOF 3
