REMARK  Name = ZINC64622780
REMARK  8 active torsions:
REMARK  status: ('A' for Active; 'I' for Inactive)
REMARK    1  A    between atoms: C_1  and  O_2
REMARK    2  A    between atoms: O_2  and  C_3
REMARK    3  A    between atoms: C_9  and  C_12
REMARK    4  A    between atoms: C_12  and  C_13
REMARK    5  A    between atoms: C_13  and  N_14
REMARK    6  A    between atoms: C_15  and  C_17
REMARK    7  A    between atoms: C_17  and  N_18
REMARK    8  A    between atoms: C_26  and  C_28
REMARK                            x       y       z     vdW  Elec       q    Type
REMARK                         _______ _______ _______ _____ _____    ______ ____
ROOT
ATOM      1  N   UNL     1      -1.095  -6.050  -1.435  0.00  0.00    -0.314 N 
ATOM      2  C   UNL     1      -2.123  -6.864  -1.744  0.00  0.00    +0.230 C 
ATOM      3  O   UNL     1      -2.844  -6.601  -2.683  0.00  0.00    -0.274 OA
ATOM      4  H   UNL     1      -0.518  -6.260  -0.684  0.00  0.00    +0.149 HD
ENDROOT
BRANCH   1   5
ATOM      5  C   UNL     1      -0.848  -4.847  -2.234  0.00  0.00    +0.108 C 
BRANCH   5   6
ATOM      6  C   UNL     1       0.368  -4.105  -1.677  0.00  0.00    +0.052 C 
BRANCH   6  13
ATOM      7  C   UNL     1      -0.897   0.278  -1.147  0.00  0.00    +0.121 A 
ATOM      8  C   UNL     1      -0.443   1.143  -2.158  0.00  0.00    +0.047 A 
ATOM      9  C   UNL     1       0.303   0.715  -3.199  0.00  0.00    +0.029 A 
ATOM     10  C   UNL     1       0.667  -0.702  -3.300  0.00  0.00    +0.043 A 
ATOM     11  N   UNL     1       1.366  -1.366  -4.187  0.00  0.00    -0.380 N 
ATOM     12  C   UNL     1       1.412  -2.776  -3.785  0.00  0.00    +0.144 C 
ATOM     13  C   UNL     1       0.622  -2.867  -2.498  0.00  0.00    -0.040 C 
ATOM     14  C   UNL     1       0.190  -1.614  -2.234  0.00  0.00    +0.002 A 
ATOM     15  C   UNL     1      -0.611  -1.046  -1.144  0.00  0.00    +0.055 A 
ATOM     16  H   UNL     1       1.782  -0.989  -4.977  0.00  0.00    +0.160 HD
BRANCH   7  18
ATOM     17  C   UNL     1      -1.921   2.191  -0.175  0.00  0.00    +0.277 C 
ATOM     18  O   UNL     1      -1.644   0.790  -0.133  0.00  0.00    -0.495 OA
ENDBRANCH   7  18
ENDBRANCH   6  13
ENDBRANCH   5   6
ENDBRANCH   1   5
BRANCH   2  19
ATOM     19  C   UNL     1      -2.377  -8.102  -0.922  0.00  0.00    +0.201 C 
BRANCH  19  20
ATOM     20  N   UNL     1      -3.612  -8.745  -1.377  0.00  0.00    -0.313 N 
ATOM     21  C   UNL     1      -3.679  -9.777  -2.315  0.00  0.00    +0.034 A 
ATOM     22  C   UNL     1      -2.645 -10.410  -3.009  0.00  0.00    +0.025 A 
ATOM     23  C   UNL     1      -2.925 -11.420  -3.905  0.00  0.00    +0.022 A 
ATOM     24  C   UNL     1      -4.234 -11.814  -4.123  0.00  0.00    +0.041 A 
ATOM     25  C   UNL     1      -5.263 -11.191  -3.440  0.00  0.00    +0.025 A 
ATOM     26  C   UNL     1      -4.986 -10.179  -2.541  0.00  0.00    -0.023 A 
ATOM     27  C   UNL     1      -5.902  -9.344  -1.675  0.00  0.00    +0.064 C 
ATOM     28  C   UNL     1      -4.958  -8.403  -0.908  0.00  0.00    +0.115 C 
ATOM     29 CL   UNL     1      -4.583 -13.085  -5.253  0.00  0.00    -0.084 Cl
BRANCH  28  30
ATOM     30  C   UNL     1      -5.071  -8.641   0.576  0.00  0.00    +0.010 A 
ATOM     31  C   UNL     1      -5.613  -7.844   1.529  0.00  0.00    +0.013 A 
ATOM     32  C   UNL     1      -5.606  -8.272   2.843  0.00  0.00    +0.008 A 
ATOM     33  C   UNL     1      -5.058  -9.476   3.140  0.00  0.00    +0.045 A 
ATOM     34  S   UNL     1      -4.533 -10.049   1.533  0.00  0.00    -0.100 S 
ENDBRANCH  28  30
ENDBRANCH  19  20
ENDBRANCH   2  19
TORSDOF 7
