REMARK  Name = ZINC36818906
REMARK  5 active torsions:
REMARK  status: ('A' for Active; 'I' for Inactive)
REMARK    1  A    between atoms: C_3  and  N_11
REMARK    2  A    between atoms: C_6  and  N_7
REMARK    3  A    between atoms: C_12  and  C_14
REMARK    4  A    between atoms: C_14  and  S_15
REMARK    5  A    between atoms: S_15  and  C_16
REMARK                            x       y       z     vdW  Elec       q    Type
REMARK                         _______ _______ _______ _____ _____    ______ ____
ROOT
ATOM      1  S   UNL     1       4.509   6.006  -0.381  0.00  0.00    -0.077 S 
ENDROOT
BRANCH   1   2
ATOM      2  C   UNL     1       6.102   6.750  -0.498  0.00  0.00    +0.191 A 
ATOM      3  N   UNL     1       7.182   5.978  -0.505  0.00  0.00    -0.207 NA
ATOM      4  C   UNL     1       8.403   6.478  -0.590  0.00  0.00    +0.129 A 
ATOM      5  C   UNL     1       8.572   7.889  -0.677  0.00  0.00    +0.051 A 
ATOM      6  C   UNL     1       9.815   8.657  -0.777  0.00  0.00    -0.025 A 
ATOM      7  C   UNL     1       9.701   9.998  -0.848  0.00  0.00    -0.004 A 
ATOM      8  S   UNL     1       7.958  10.318  -0.788  0.00  0.00    -0.073 S 
ATOM      9  C   UNL     1       7.383   8.645  -0.666  0.00  0.00    +0.115 A 
ATOM     10  N   UNL     1       6.199   8.069  -0.583  0.00  0.00    -0.214 NA
ATOM     11  C   UNL     1      10.811  10.999  -0.954  0.00  0.00    +0.043 C 
ATOM     12  C   UNL     1      12.130  10.300  -0.596  0.00  0.00    +0.005 C 
ATOM     13  C   UNL     1      12.209   8.978  -1.364  0.00  0.00    +0.005 C 
ATOM     14  C   UNL     1      11.187   7.989  -0.801  0.00  0.00    +0.037 C 
ATOM     15  N   UNL     1       9.504   5.640  -0.594  0.00  0.00    -0.343 N 
ATOM     16  H   UNL     1       9.448   4.769  -1.016  0.00  0.00    +0.144 HD
ATOM     17  H   UNL     1      10.331   5.925  -0.174  0.00  0.00    +0.144 HD
ENDBRANCH   1   2
BRANCH   1  18
ATOM     18  C   UNL     1       4.860   4.229  -0.289  0.00  0.00    +0.173 C 
BRANCH  18  20
ATOM     19  N   UNL     1       3.580   2.120  -0.103  0.00  0.00    -0.284 N 
ATOM     20  C   UNL     1       3.565   3.465  -0.184  0.00  0.00    +0.228 C 
ATOM     21  O   UNL     1       2.509   4.062  -0.173  0.00  0.00    -0.275 OA
ATOM     22  H   UNL     1       4.424   1.648  -0.027  0.00  0.00    +0.155 HD
BRANCH  19  25
ATOM     23  C   UNL     1       0.068   1.243  -0.752  0.00  0.00    +0.034 A 
ATOM     24  C   UNL     1       1.253   1.953  -0.729  0.00  0.00    +0.026 A 
ATOM     25  C   UNL     1       2.377   1.404  -0.128  0.00  0.00    +0.048 A 
ATOM     26  C   UNL     1       2.307   0.141   0.449  0.00  0.00    +0.041 A 
ATOM     27  C   UNL     1       1.119  -0.563   0.422  0.00  0.00    +0.049 A 
ATOM     28  C   UNL     1       0.001  -0.013  -0.178  0.00  0.00    +0.127 A 
ATOM     29 BR   UNL     1       3.836  -0.612   1.268  0.00  0.00    -0.048 Br
BRANCH  28  30
ATOM     30  N   UNL     1      -1.271  -0.769  -0.205  0.00  0.00    +0.056 N 
ATOM     31  O   UNL     1      -2.250  -0.289  -0.728  0.00  0.00    -0.126 OA
ATOM     32  O   UNL     1      -1.332  -1.868   0.297  0.00  0.00    -0.126 OA
ENDBRANCH  28  30
ENDBRANCH  19  25
ENDBRANCH  18  20
ENDBRANCH   1  18
TORSDOF 5
