REMARK  Name = ZINC33757998
REMARK  9 active torsions:
REMARK  status: ('A' for Active; 'I' for Inactive)
REMARK    1  A    between atoms: C_1  and  C_2
REMARK    2  A    between atoms: C_2  and  N_3
REMARK    3  A    between atoms: C_9  and  C_11
REMARK    4  A    between atoms: C_14  and  C_16
REMARK    5  A    between atoms: C_16  and  N_17
REMARK    6  A    between atoms: N_17  and  C_18
REMARK    7  A    between atoms: C_18  and  C_19
REMARK    8  A    between atoms: C_18  and  C_20
REMARK    9  A    between atoms: N_23  and  C_24
REMARK                            x       y       z     vdW  Elec       q    Type
REMARK                         _______ _______ _______ _____ _____    ______ ____
ROOT
ATOM      1  C   UNL     1      -0.608   0.783   1.396  0.00  0.00    +0.172 C 
ENDROOT
BRANCH   1   5
ATOM      2  C   UNL     1       0.341   2.412  -1.827  0.00  0.00    +0.133 A 
ATOM      3  C   UNL     1      -0.396   1.583  -2.634  0.00  0.00    +0.080 A 
ATOM      4  S   UNL     1      -1.116   0.516  -1.469  0.00  0.00    -0.078 S 
ATOM      5  C   UNL     1      -0.422   1.207  -0.038  0.00  0.00    +0.096 A 
ATOM      6  N   UNL     1       0.297   2.191  -0.512  0.00  0.00    -0.238 NA
BRANCH   2  13
ATOM      7  N   UNL     1       4.353   5.032  -0.392  0.00  0.00    +0.382 N 
ATOM      8  C   UNL     1       4.132   5.332  -1.813  0.00  0.00    -0.060 C 
ATOM      9  C   UNL     1       2.627   5.439  -2.081  0.00  0.00    +0.089 C 
ATOM     10  N   UNL     1       1.978   4.211  -1.596  0.00  0.00    -0.300 N 
ATOM     11  C   UNL     1       2.256   3.773  -0.220  0.00  0.00    +0.089 C 
ATOM     12  C   UNL     1       3.781   3.729  -0.027  0.00  0.00    -0.060 C 
ATOM     13  C   UNL     1       1.146   3.508  -2.391  0.00  0.00    +0.265 C 
ATOM     14  O   UNL     1       1.061   3.780  -3.573  0.00  0.00    -0.268 OA
ATOM     15  H   UNL     1       3.834   5.803   0.197  0.00  0.00    -0.082 HD
BRANCH   7  17
ATOM     16  C   UNL     1       5.954   5.023   1.461  0.00  0.00    -0.017 C 
ATOM     17  C   UNL     1       5.782   5.092  -0.058  0.00  0.00    -0.082 C 
ENDBRANCH   7  17
ENDBRANCH   2  13
ENDBRANCH   1   5
BRANCH   1  18
ATOM     18  N   UNL     1      -1.749   1.498   1.973  0.00  0.00    -0.277 N 
ATOM     19  C   UNL     1      -1.562   2.685   2.583  0.00  0.00    +0.307 C 
ATOM     20  O   UNL     1      -2.519   3.323   2.978  0.00  0.00    -0.252 OA
ATOM     21  N   UNL     1      -0.315   3.165   2.757  0.00  0.00    -0.269 N 
ATOM     22  H   UNL     1       0.542   2.646   2.302  0.00  0.00    +0.156 HD
BRANCH  21  23
ATOM     23  C   UNL     1      -0.110   4.324   3.515  0.00  0.00    +0.036 A 
ATOM     24  C   UNL     1      -0.971   4.633   4.559  0.00  0.00    +0.025 A 
ATOM     25  C   UNL     1      -0.764   5.774   5.309  0.00  0.00    +0.023 A 
ATOM     26  C   UNL     1       0.295   6.614   5.015  0.00  0.00    +0.059 A 
ATOM     27  C   UNL     1       1.153   6.311   3.971  0.00  0.00    +0.061 A 
ATOM     28  C   UNL     1       0.953   5.168   3.221  0.00  0.00    +0.044 A 
ATOM     29 CL   UNL     1       2.481   7.368   3.604  0.00  0.00    -0.082 Cl
ATOM     30 CL   UNL     1       0.549   8.051   5.956  0.00  0.00    -0.082 Cl
ENDBRANCH  21  23
BRANCH  18  31
ATOM     31  C   UNL     1      -3.094   0.923   1.885  0.00  0.00    +0.072 C 
ATOM     32  C   UNL     1      -3.418   0.603   0.424  0.00  0.00    +0.028 C 
ATOM     33  C   UNL     1      -3.154  -0.361   2.714  0.00  0.00    +0.028 C 
ENDBRANCH  18  31
ENDBRANCH   1  18
TORSDOF 6
