REMARK  Name = ZINC50360663
REMARK  6 active torsions:
REMARK  status: ('A' for Active; 'I' for Inactive)
REMARK    1  A    between atoms: C_1  and  C_2
REMARK    2  A    between atoms: C_2  and  C_4
REMARK    3  A    between atoms: C_2  and  N_14
REMARK    4  A    between atoms: C_7  and  N_10
REMARK    5  A    between atoms: N_14  and  C_15
REMARK    6  A    between atoms: C_15  and  C_16
REMARK                            x       y       z     vdW  Elec       q    Type
REMARK                         _______ _______ _______ _____ _____    ______ ____
ROOT
ATOM      1  C   UNL     1      -0.191   1.534  -0.099  0.00  0.00    -0.009 C 
ATOM      2  C   UNL     1       0.012   0.021  -0.002  0.00  0.00    -0.043 C 
ENDROOT
BRANCH   2   3
ATOM      3  C   UNL     1       0.715  -0.472  -1.241  0.00  0.00    -0.062 A 
ATOM      4  C   UNL     1       2.086  -0.335  -1.357  0.00  0.00    +0.004 A 
ATOM      5  C   UNL     1       2.733  -0.785  -2.491  0.00  0.00    +0.023 A 
ATOM      6  C   UNL     1       2.005  -1.376  -3.515  0.00  0.00    +0.035 A 
ATOM      7  C   UNL     1       0.628  -1.513  -3.396  0.00  0.00    +0.023 A 
ATOM      8  C   UNL     1      -0.012  -1.065  -2.257  0.00  0.00    +0.004 A 
BRANCH   6   9
ATOM      9  N   UNL     1       2.658  -1.833  -4.666  0.00  0.00    -0.270 N 
ATOM     10  C   UNL     1       3.907  -2.331  -4.579  0.00  0.00    +0.301 C 
ATOM     11  O   UNL     1       4.431  -2.473  -3.491  0.00  0.00    -0.253 OA
ATOM     12  N   UNL     1       4.576  -2.671  -5.699  0.00  0.00    -0.313 N 
ATOM     13  H   UNL     1       2.211  -1.792  -5.526  0.00  0.00    +0.156 HD
ATOM     14  H   UNL     1       4.158  -2.558  -6.567  0.00  0.00    +0.146 HD
ATOM     15  H   UNL     1       5.475  -3.030  -5.636  0.00  0.00    +0.146 HD
ENDBRANCH   6   9
ENDBRANCH   2   3
BRANCH   2  16
ATOM     16  N   UNL     1       0.828  -0.289   1.180  0.00  0.00    +0.388 N 
ATOM     17  H   UNL     1       1.031  -1.277   1.198  0.00  0.00    -0.084 HD
ATOM     18  H   UNL     1       1.691   0.231   1.138  0.00  0.00    -0.084 HD
BRANCH  16  19
ATOM     19  C   UNL     1       0.091   0.082   2.395  0.00  0.00    -0.006 C 
BRANCH  19  20
ATOM     20  C   UNL     1       0.927  -0.236   3.607  0.00  0.00    +0.091 A 
ATOM     21  C   UNL     1       1.798   0.599   4.203  0.00  0.00    +0.059 A 
ATOM     22  C   UNL     1       2.358  -0.103   5.295  0.00  0.00    +0.070 A 
ATOM     23  C   UNL     1       1.796  -1.327   5.301  0.00  0.00    +0.184 A 
ATOM     24  O   UNL     1       0.926  -1.399   4.279  0.00  0.00    -0.454 OA
ATOM     25 BR   UNL     1       2.162  -2.707   6.541  0.00  0.00    -0.007 Br
ATOM     26 BR   UNL     1       3.649   0.550   6.513  0.00  0.00    -0.046 Br
ENDBRANCH  19  20
ENDBRANCH  16  19
ENDBRANCH   2  16
TORSDOF 5
