REMARK  Name = ZINC63137399
REMARK  5 active torsions:
REMARK  status: ('A' for Active; 'I' for Inactive)
REMARK    1  A    between atoms: C_1  and  C_2
REMARK    2  A    between atoms: C_2  and  C_3
REMARK    3  A    between atoms: C_3  and  C_5
REMARK    4  A    between atoms: C_3  and  N_6
REMARK    5  A    between atoms: C_26  and  C_28
REMARK                            x       y       z     vdW  Elec       q    Type
REMARK                         _______ _______ _______ _____ _____    ______ ____
ROOT
ATOM      1  N   UNL     1      -0.055  -0.114  -2.441  0.00  0.00    -0.288 N 
ATOM      2  C   UNL     1      -1.443  -0.570  -2.640  0.00  0.00    +0.204 C 
ATOM      3  C   UNL     1      -2.280   0.614  -3.075  0.00  0.00    +0.234 C 
ATOM      4  O   UNL     1      -3.379   0.821  -2.606  0.00  0.00    -0.274 OA
ATOM      5  N   UNL     1      -1.737   1.443  -4.026  0.00  0.00    -0.279 N 
ATOM      6  C   UNL     1      -0.454   1.028  -4.553  0.00  0.00    +0.167 C 
ATOM      7  C   UNL     1       0.472   0.689  -3.412  0.00  0.00    +0.237 C 
ATOM      8  O   UNL     1       1.612   1.099  -3.362  0.00  0.00    -0.274 OA
ATOM      9  C   UNL     1       0.209   1.898  -5.589  0.00  0.00    +0.065 C 
ATOM     10  C   UNL     1      -0.533   3.200  -5.715  0.00  0.00    -0.034 C 
ATOM     11  C   UNL     1      -0.117   4.451  -5.855  0.00  0.00    -0.001 A 
ATOM     12  C   UNL     1       1.232   5.027  -5.985  0.00  0.00    +0.010 A 
ATOM     13  C   UNL     1       1.298   6.379  -6.105  0.00  0.00    +0.001 A 
ATOM     14  C   UNL     1       0.171   7.207  -6.109  0.00  0.00    +0.002 A 
ATOM     15  C   UNL     1      -1.106   6.763  -5.999  0.00  0.00    +0.026 A 
ATOM     16  C   UNL     1      -1.305   5.358  -5.870  0.00  0.00    +0.043 A 
ATOM     17  N   UNL     1      -2.401   4.671  -5.761  0.00  0.00    -0.375 N 
ATOM     18  C   UNL     1      -2.059   3.245  -5.688  0.00  0.00    +0.131 C 
ATOM     19  C   UNL     1      -2.481   2.651  -4.353  0.00  0.00    +0.133 C 
ATOM     20  H   UNL     1      -3.298   5.039  -5.731  0.00  0.00    +0.160 HD
ENDROOT
BRANCH  19  21
ATOM     21  C   UNL     1      -2.219   3.690  -3.293  0.00  0.00    -0.025 A 
ATOM     22  C   UNL     1      -0.946   3.844  -2.776  0.00  0.00    +0.006 A 
ATOM     23  C   UNL     1      -0.706   4.797  -1.805  0.00  0.00    +0.015 A 
ATOM     24  C   UNL     1      -1.738   5.597  -1.350  0.00  0.00    +0.018 A 
ATOM     25  C   UNL     1      -3.012   5.443  -1.868  0.00  0.00    +0.015 A 
ATOM     26  C   UNL     1      -3.250   4.493  -2.843  0.00  0.00    +0.006 A 
ATOM     27 BR   UNL     1      -1.410   6.901  -0.021  0.00  0.00    -0.050 Br
ENDBRANCH  19  21
BRANCH   1  28
ATOM     28  C   UNL     1       0.718  -0.497  -1.257  0.00  0.00    +0.073 C 
ATOM     29  C   UNL     1       0.849  -2.021  -1.205  0.00  0.00    +0.028 C 
BRANCH  28  31
ATOM     30  C   UNL     1      -0.019   1.526   0.010  0.00  0.00    +0.005 C 
ATOM     31  C   UNL     1       0.002  -0.004   0.002  0.00  0.00    +0.019 C 
ENDBRANCH  28  31
ENDBRANCH   1  28
TORSDOF 3
