REMARK  Name = ZINC44324315
REMARK  8 active torsions:
REMARK  status: ('A' for Active; 'I' for Inactive)
REMARK    1  A    between atoms: C_1  and  C_2
REMARK    2  A    between atoms: C_3  and  C_8
REMARK    3  A    between atoms: C_8  and  CA_9
REMARK    4  A    between atoms: CA_9  and  C_11
REMARK    5  A    between atoms: CA_9  and  N_14
REMARK    6  A    between atoms: C_15  and  O_17
REMARK    7  A    between atoms: O_17  and  C_18
REMARK    8  A    between atoms: C_18  and  C_19
REMARK                            x       y       z     vdW  Elec       q    Type
REMARK                         _______ _______ _______ _____ _____    ______ ____
ROOT
ATOM      1  N   UNL     1       1.956   1.081  -2.241  0.00  0.00    -0.267 N 
ATOM      2  C   UNL     1       3.286   1.216  -2.076  0.00  0.00    +0.401 C 
ATOM      3  O   UNL     1       4.045   0.407  -2.570  0.00  0.00    -0.226 OA
ATOM      4  H   UNL     1       1.350   1.727  -1.846  0.00  0.00    +0.153 HD
ENDROOT
BRANCH   1   5
ATOM      5  CA  UNL     1       1.424  -0.042  -3.017  0.00  0.00    +0.193 C 
BRANCH   5   6
ATOM      6  C   UNL     1       1.424   0.314  -4.481  0.00  0.00    +0.376 C 
ATOM      7  O   UNL     1       1.289   1.476  -4.826  0.00  0.00    -0.244 OA
ATOM      8  OXT UNL     1       1.560  -0.559  -5.322  0.00  0.00    -0.244 OA
ENDBRANCH   5   6
BRANCH   5   9
ATOM      9  C   UNL     1      -0.006  -0.343  -2.566  0.00  0.00    +0.072 C 
BRANCH   9  12
ATOM     10  C   UNL     1      -0.018   1.503   0.010  0.00  0.00    +0.068 C 
ATOM     11  C   UNL     1       0.002  -0.004   0.002  0.00  0.00    +0.063 A 
ATOM     12  C   UNL     1       0.008  -0.818  -1.135  0.00  0.00    -0.005 A 
ATOM     13  C   UNL     1       0.028  -2.107  -0.725  0.00  0.00    +0.108 A 
ATOM     14  N   UNL     1       0.034  -2.109   0.625  0.00  0.00    -0.284 N 
ATOM     15  H   UNL     1       0.048  -2.894   1.194  0.00  0.00    +0.188 HD
ATOM     16  N   UNL     1       0.023  -0.777   1.058  0.00  0.00    -0.179 NA
ENDBRANCH   9  12
ENDBRANCH   5   9
ENDBRANCH   1   5
BRANCH   2  17
ATOM     17  O   UNL     1       3.775   2.248  -1.362  0.00  0.00    -0.449 OA
BRANCH  17  18
ATOM     18  C   UNL     1       5.195   2.330  -1.228  0.00  0.00    +0.246 C 
BRANCH  18  19
ATOM     19  C   UNL     1       5.558   3.558  -0.391  0.00  0.00    +0.088 C 
ATOM     20  C   UNL     1       5.238   4.820  -1.154  0.00  0.00    -0.029 A 
ATOM     21  C   UNL     1       4.056   5.325  -1.654  0.00  0.00    +0.005 A 
ATOM     22  C   UNL     1       4.049   6.532  -2.329  0.00  0.00    +0.000 A 
ATOM     23  C   UNL     1       5.227   7.236  -2.505  0.00  0.00    +0.001 A 
ATOM     24  C   UNL     1       6.414   6.738  -2.008  0.00  0.00    +0.009 A 
ATOM     25  C   UNL     1       6.429   5.520  -1.326  0.00  0.00    -0.014 A 
ATOM     26  C   UNL     1       7.541   4.764  -0.699  0.00  0.00    -0.014 A 
ATOM     27  C   UNL     1       7.045   3.592  -0.136  0.00  0.00    -0.029 A 
ATOM     28  C   UNL     1       7.894   2.717   0.508  0.00  0.00    +0.005 A 
ATOM     29  C   UNL     1       9.245   3.002   0.598  0.00  0.00    +0.000 A 
ATOM     30  C   UNL     1       9.747   4.164   0.042  0.00  0.00    +0.001 A 
ATOM     31  C   UNL     1       8.905   5.045  -0.605  0.00  0.00    +0.009 A 
ENDBRANCH  18  19
ENDBRANCH  17  18
ENDBRANCH   2  17
TORSDOF 7
