REMARK  Name = ZINC41584738
REMARK  6 active torsions:
REMARK  status: ('A' for Active; 'I' for Inactive)
REMARK    1  A    between atoms: C_1  and  C_2
REMARK    2  A    between atoms: C_7  and  C_8
REMARK    3  A    between atoms: C_13  and  C_37
REMARK    4  A    between atoms: C_15  and  O_36
REMARK    5  A    between atoms: C_16  and  C_19
REMARK    6  A    between atoms: C_19  and  N_20
REMARK                            x       y       z     vdW  Elec       q    Type
REMARK                         _______ _______ _______ _____ _____    ______ ____
ROOT
ATOM      1  C   UNL     1       0.026   0.010   2.489  0.00  0.00    +0.058 C 
ATOM      2  C   UNL     1      -0.056  -0.677   3.655  0.00  0.00    +0.176 C 
ATOM      3  C   UNL     1      -0.174  -0.095   5.002  0.00  0.00    +0.232 C 
ATOM      4  O   UNL     1      -0.218   1.085   5.303  0.00  0.00    -0.283 OA
ATOM      5  C   UNL     1      -0.227  -1.259   5.904  0.00  0.00    +0.071 A 
ATOM      6  C   UNL     1      -0.335  -1.389   7.290  0.00  0.00    -0.033 A 
ATOM      7  C   UNL     1      -0.359  -2.631   7.857  0.00  0.00    +0.050 A 
ATOM      8  C   UNL     1      -0.276  -3.768   7.057  0.00  0.00    +0.122 A 
ATOM      9  C   UNL     1      -0.168  -3.654   5.681  0.00  0.00    +0.020 A 
ATOM     10  C   UNL     1      -0.142  -2.398   5.087  0.00  0.00    +0.145 A 
ATOM     11  O   UNL     1      -0.050  -2.024   3.792  0.00  0.00    -0.451 OA
ATOM     12  C   UNL     1      -0.425  -0.160   8.158  0.00  0.00    +0.045 C 
ENDROOT
BRANCH   1  19
ATOM     13  C   UNL     1      -0.557   1.467   0.057  0.00  0.00    +0.044 C 
ATOM     14  C   UNL     1      -0.300  -0.018   0.024  0.00  0.00    -0.043 A 
ATOM     15  C   UNL     1      -0.335  -0.699  -1.175  0.00  0.00    +0.004 A 
ATOM     16  C   UNL     1      -0.100  -2.062  -1.208  0.00  0.00    +0.000 A 
ATOM     17  C   UNL     1       0.172  -2.754  -0.040  0.00  0.00    +0.001 A 
ATOM     18  C   UNL     1       0.211  -2.089   1.166  0.00  0.00    +0.008 A 
ATOM     19  C   UNL     1      -0.020  -0.709   1.208  0.00  0.00    -0.019 A 
ENDBRANCH   1  19
BRANCH   8  20
ATOM     20  O   UNL     1      -0.301  -4.997   7.631  0.00  0.00    -0.506 OA
ATOM     21  H   UNL     1      -1.189  -5.369   7.727  0.00  0.00    +0.292 HD
ENDBRANCH   8  20
BRANCH   9  22
ATOM     22  C   UNL     1      -0.077  -4.893   4.827  0.00  0.00    -0.036 C 
BRANCH  22  23
ATOM     23  N   UNL     1      -1.428  -5.319   4.439  0.00  0.00    +0.383 N 
ATOM     24  C   UNL     1      -1.334  -6.446   3.506  0.00  0.00    -0.073 C 
ATOM     25  C   UNL     1      -2.714  -6.923   3.079  0.00  0.00    -0.007 C 
ATOM     26  C   UNL     1      -3.561  -7.294   4.300  0.00  0.00    +0.011 C 
ATOM     27  C   UNL     1      -3.614  -6.063   5.213  0.00  0.00    +0.020 C 
ATOM     28  C   UNL     1      -2.176  -5.726   5.638  0.00  0.00    -0.069 C 
ATOM     29  C   UNL     1      -4.156  -4.889   4.428  0.00  0.00    +0.023 A 
ATOM     30  C   UNL     1      -4.827  -3.929   5.117  0.00  0.00    +0.022 A 
ATOM     31  C   UNL     1      -5.299  -2.785   4.465  0.00  0.00    +0.007 A 
ATOM     32  C   UNL     1      -5.053  -2.638   3.131  0.00  0.00    +0.070 A 
ATOM     33  C   UNL     1      -4.354  -3.645   2.451  0.00  0.00    +0.251 A 
ATOM     34  O   UNL     1      -4.074  -3.496   1.273  0.00  0.00    -0.268 OA
ATOM     35  N   UNL     1      -3.987  -4.783   3.090  0.00  0.00    -0.312 N 
ATOM     36  C   UNL     1      -3.451  -5.867   2.271  0.00  0.00    +0.126 C 
ATOM     37  H   UNL     1      -1.906  -4.552   3.990  0.00  0.00    -0.081 HD
ENDBRANCH  22  23
ENDBRANCH   9  22
TORSDOF 4
