REMARK  Name = ZINC41991123
REMARK  3 active torsions:
REMARK  status: ('A' for Active; 'I' for Inactive)
REMARK    1  A    between atoms: C_10  and  C_11
REMARK    2  A    between atoms: C_10  and  S_14
REMARK    3  A    between atoms: S_14  and  C_15
REMARK                            x       y       z     vdW  Elec       q    Type
REMARK                         _______ _______ _______ _____ _____    ______ ____
ROOT
ATOM      1  C   UNL     1      -0.149   1.092  -0.354  0.00  0.00    +0.000 A 
ATOM      2  C   UNL     1       0.987   1.879  -0.349  0.00  0.00    +0.000 A 
ATOM      3  C   UNL     1       2.229   1.288  -0.243  0.00  0.00    +0.006 A 
ATOM      4  C   UNL     1       2.348  -0.092  -0.143  0.00  0.00    -0.017 A 
ATOM      5  C   UNL     1       1.216  -0.876  -0.152  0.00  0.00    -0.042 A 
ATOM      6  C   UNL     1      -0.034  -0.279  -0.254  0.00  0.00    +0.004 A 
ATOM      7  C   UNL     1       1.270  -2.379  -0.063  0.00  0.00    +0.035 C 
ATOM      8  C   UNL     1       2.627  -2.837   0.468  0.00  0.00    +0.007 C 
ATOM      9  C   UNL     1       3.725  -2.160  -0.360  0.00  0.00    +0.034 C 
ATOM     10  C   UNL     1       3.733  -0.670  -0.023  0.00  0.00    +0.149 C 
ENDROOT
BRANCH  10  11
ATOM     11  C   UNL     1       4.230  -0.483   1.388  0.00  0.00    +0.376 C 
ATOM     12  O   UNL     1       3.619  -0.978   2.320  0.00  0.00    -0.244 OA
ATOM     13  O   UNL     1       5.242   0.164   1.597  0.00  0.00    -0.244 OA
ENDBRANCH  10  11
BRANCH  10  14
ATOM     14  S   UNL     1       4.844   0.196  -1.166  0.00  0.00    -0.074 S 
BRANCH  14  15
ATOM     15  C   UNL     1       4.105  -0.050  -2.747  0.00  0.00    +0.161 A 
ATOM     16  N   UNL     1       2.958  -0.626  -3.053  0.00  0.00    -0.133 NA
ATOM     17  N   UNL     1       2.566  -0.713  -4.368  0.00  0.00    -0.125 NA
ATOM     18  C   UNL     1       3.337  -0.220  -5.317  0.00  0.00    +0.180 A 
ATOM     19  S   UNL     1       4.704   0.421  -4.362  0.00  0.00    -0.025 S 
ATOM     20  N   UNL     1       3.138  -0.200  -6.693  0.00  0.00    -0.336 N 
ATOM     21  H   UNL     1       2.334  -0.588  -7.072  0.00  0.00    +0.144 HD
ATOM     22  H   UNL     1       3.803   0.202  -7.273  0.00  0.00    +0.144 HD
ENDBRANCH  14  15
ENDBRANCH  10  14
TORSDOF 3
