REMARK  Name = ZINC64774484
REMARK  11 active torsions:
REMARK  status: ('A' for Active; 'I' for Inactive)
REMARK    1  A    between atoms: C_1  and  C_2
REMARK    2  A    between atoms: C_5  and  C_32
REMARK    3  A    between atoms: C_6  and  N_8
REMARK    4  A    between atoms: C_9  and  C_11
REMARK    5  A    between atoms: C_11  and  S_12
REMARK    6  A    between atoms: S_12  and  C_13
REMARK    7  A    between atoms: C_17  and  C_20
REMARK    8  A    between atoms: C_22  and  C_31
REMARK    9  A    between atoms: C_24  and  C_30
REMARK   10  A    between atoms: C_25  and  N_26
REMARK   11  A    between atoms: C_27  and  C_29
REMARK                            x       y       z     vdW  Elec       q    Type
REMARK                         _______ _______ _______ _____ _____    ______ ____
ROOT
ATOM      1  C   UNL     1      -0.610  -4.183   7.145  0.00  0.00    +0.213 A 
ATOM      2  N   UNL     1      -0.724  -3.383   8.199  0.00  0.00    -0.180 NA
ATOM      3  C   UNL     1      -0.336  -3.816   9.392  0.00  0.00    +0.300 A 
ATOM      4  O   UNL     1      -0.441  -3.021  10.484  0.00  0.00    -0.263 OA
ATOM      5  C   UNL     1       0.186  -5.117   9.498  0.00  0.00    +0.161 A 
ATOM      6  N   UNL     1       0.273  -5.867   8.406  0.00  0.00    -0.141 NA
ATOM      7  N   UNL     1      -0.119  -5.410   7.269  0.00  0.00    -0.122 NA
ENDROOT
BRANCH   5   8
ATOM      8  C   UNL     1       0.633  -5.644  10.809  0.00  0.00    +0.029 A 
ATOM      9  C   UNL     1      -0.158  -5.463  11.943  0.00  0.00    +0.015 A 
ATOM     10  C   UNL     1       0.262  -5.955  13.161  0.00  0.00    -0.049 A 
ATOM     11  C   UNL     1       1.468  -6.628  13.264  0.00  0.00    +0.008 A 
ATOM     12  C   UNL     1       2.261  -6.813  12.148  0.00  0.00    -0.028 A 
ATOM     13  C   UNL     1       1.848  -6.330  10.915  0.00  0.00    +0.046 A 
ATOM     14  C   UNL     1       3.571  -7.547  12.269  0.00  0.00    +0.046 C 
ATOM     15  C   UNL     1      -0.594  -5.758  14.386  0.00  0.00    +0.044 C 
BRANCH  13  16
ATOM     16  N   UNL     1       2.646  -6.522   9.784  0.00  0.00    -0.285 N 
ATOM     17  C   UNL     1       2.839  -5.509   8.916  0.00  0.00    +0.214 C 
ATOM     18  O   UNL     1       2.366  -4.416   9.144  0.00  0.00    -0.276 OA
ATOM     19  C   UNL     1       3.643  -5.735   7.661  0.00  0.00    +0.109 C 
ATOM     20  H   UNL     1       3.061  -7.384   9.623  0.00  0.00    +0.155 HD
ENDBRANCH  13  16
ENDBRANCH   5   8
BRANCH   1  21
ATOM     21  S   UNL     1      -1.125  -3.610   5.561  0.00  0.00    -0.075 S 
BRANCH  21  22
ATOM     22  C   UNL     1      -0.789  -5.010   4.457  0.00  0.00    +0.173 C 
BRANCH  22  24
ATOM     23  N   UNL     1      -1.030  -5.540   2.053  0.00  0.00    -0.285 N 
ATOM     24  C   UNL     1      -1.189  -4.647   3.050  0.00  0.00    +0.227 C 
ATOM     25  O   UNL     1      -1.656  -3.553   2.815  0.00  0.00    -0.275 OA
ATOM     26  H   UNL     1      -0.732  -6.441   2.252  0.00  0.00    +0.155 HD
BRANCH  23  32
ATOM     27  C   UNL     1      -1.471  -2.008  -1.338  0.00  0.00    +0.044 C 
ATOM     28  C   UNL     1      -1.514  -3.461  -0.941  0.00  0.00    -0.049 A 
ATOM     29  C   UNL     1      -1.813  -4.426  -1.885  0.00  0.00    +0.004 A 
ATOM     30  C   UNL     1      -1.852  -5.761  -1.524  0.00  0.00    +0.005 A 
ATOM     31  C   UNL     1      -1.593  -6.133  -0.220  0.00  0.00    -0.029 A 
ATOM     32  C   UNL     1      -1.292  -5.166   0.730  0.00  0.00    +0.037 A 
ATOM     33  C   UNL     1      -1.248  -3.827   0.364  0.00  0.00    +0.027 A 
ATOM     34  C   UNL     1      -1.637  -7.588   0.172  0.00  0.00    +0.045 C 
ENDBRANCH  23  32
ENDBRANCH  22  24
ENDBRANCH  21  22
ENDBRANCH   1  21
TORSDOF 6
