REMARK  Name = ZINC64716595
REMARK  6 active torsions:
REMARK  status: ('A' for Active; 'I' for Inactive)
REMARK    1  A    between atoms: C_1  and  C_2
REMARK    2  A    between atoms: C_4  and  C_25
REMARK    3  A    between atoms: N_10  and  C_11
REMARK    4  A    between atoms: C_14  and  N_17
REMARK    5  A    between atoms: C_19  and  C_24
REMARK    6  A    between atoms: C_21  and  C_23
REMARK                            x       y       z     vdW  Elec       q    Type
REMARK                         _______ _______ _______ _____ _____    ______ ____
ROOT
ATOM      1  C   UNL     1       4.118  -2.966   1.359  0.00  0.00    +0.035 A 
ATOM      2  C   UNL     1       4.004  -4.347   1.274  0.00  0.00    +0.025 A 
ATOM      3  C   UNL     1       5.138  -5.135   1.276  0.00  0.00    +0.025 A 
ATOM      4  C   UNL     1       6.393  -4.546   1.364  0.00  0.00    +0.030 A 
ATOM      5  C   UNL     1       6.507  -3.165   1.449  0.00  0.00    +0.025 A 
ATOM      6  C   UNL     1       5.373  -2.377   1.441  0.00  0.00    +0.025 A 
ENDROOT
BRANCH   1  16
ATOM      7  C   UNL     1      -0.462   0.870  -0.479  0.00  0.00    +0.009 C 
ATOM      8  C   UNL     1      -0.361  -0.542   0.100  0.00  0.00    +0.004 C 
ATOM      9  C   UNL     1      -1.712  -0.949   0.693  0.00  0.00    +0.009 C 
ATOM     10  C   UNL     1      -1.620  -2.374   1.243  0.00  0.00    +0.004 C 
ATOM     11  C   UNL     1      -0.569  -2.421   2.357  0.00  0.00    +0.112 C 
ATOM     12  N   UNL     1       0.698  -1.894   1.833  0.00  0.00    -0.285 N 
ATOM     13  C   UNL     1       0.705  -0.568   1.200  0.00  0.00    +0.112 C 
ATOM     14  C   UNL     1       1.834  -2.614   1.931  0.00  0.00    +0.306 C 
ATOM     15  O   UNL     1       1.836  -3.666   2.540  0.00  0.00    -0.252 OA
ATOM     16  N   UNL     1       2.967  -2.166   1.355  0.00  0.00    -0.269 N 
ATOM     17  C   UNL     1      -1.216  -3.331   0.119  0.00  0.00    +0.009 C 
ATOM     18  H   UNL     1       2.986  -1.290   0.938  0.00  0.00    +0.156 HD
ENDBRANCH   1  16
BRANCH   4  19
ATOM     19  N   UNL     1       7.542  -5.345   1.367  0.00  0.00    -0.325 N 
ATOM     20  C   UNL     1       8.883  -4.741   1.339  0.00  0.00    +0.136 C 
ATOM     21  C   UNL     1       9.717  -5.362   2.466  0.00  0.00    +0.133 C 
ATOM     22  O   UNL     1       9.659  -6.787   2.364  0.00  0.00    -0.371 OA
ATOM     23  C   UNL     1       8.347  -7.333   2.523  0.00  0.00    +0.133 C 
ATOM     24  C   UNL     1       7.444  -6.812   1.405  0.00  0.00    +0.136 C 
ATOM     25  C   UNL     1       7.777  -6.904   3.877  0.00  0.00    +0.039 C 
ATOM     26  C   UNL     1      11.170  -4.899   2.342  0.00  0.00    +0.039 C 
ENDBRANCH   4  19
TORSDOF 2
