REMARK  Name = ZINC63494044
REMARK  5 active torsions:
REMARK  status: ('A' for Active; 'I' for Inactive)
REMARK    1  A    between atoms: N_10  and  C_11
REMARK    2  A    between atoms: C_15  and  C_21
REMARK    3  A    between atoms: N_23  and  C_24
REMARK    4  A    between atoms: C_24  and  C_25
REMARK    5  A    between atoms: C_25  and  C_26
REMARK                            x       y       z     vdW  Elec       q    Type
REMARK                         _______ _______ _______ _____ _____    ______ ____
ROOT
ATOM      1  C   UNL     1       4.861   0.093  -0.355  0.00  0.00    +0.224 C 
ATOM      2  N   UNL     1       4.565   1.387  -0.986  0.00  0.00    -0.316 N 
ATOM      3  C   UNL     1       4.965   2.534  -0.321  0.00  0.00    +0.055 A 
ATOM      4  C   UNL     1       4.766   3.865  -0.776  0.00  0.00    +0.059 A 
ATOM      5  C   UNL     1       5.211   4.949  -0.024  0.00  0.00    +0.015 A 
ATOM      6  C   UNL     1       5.855   4.760   1.178  0.00  0.00    +0.002 A 
ATOM      7  C   UNL     1       6.061   3.468   1.641  0.00  0.00    +0.017 A 
ATOM      8  C   UNL     1       5.624   2.391   0.905  0.00  0.00    +0.033 A 
ATOM      9  S   UNL     1       5.712   0.635   1.181  0.00  0.00    -0.082 S 
ATOM     10  H   UNL     1       4.105   1.435  -1.839  0.00  0.00    +0.149 HD
ENDROOT
BRANCH   1  20
ATOM     11  C   UNL     1       3.015  -4.437  -1.636  0.00  0.00    +0.000 A 
ATOM     12  C   UNL     1       4.020  -3.629  -2.136  0.00  0.00    +0.002 A 
ATOM     13  C   UNL     1       4.218  -2.370  -1.606  0.00  0.00    +0.023 A 
ATOM     14  C   UNL     1       3.408  -1.914  -0.572  0.00  0.00    +0.035 A 
ATOM     15  C   UNL     1       2.398  -2.723  -0.074  0.00  0.00    -0.026 A 
ATOM     16  C   UNL     1       2.208  -3.986  -0.610  0.00  0.00    +0.005 A 
ATOM     17  C   UNL     1       1.495  -2.259   1.038  0.00  0.00    +0.038 C 
ATOM     18  C   UNL     1       2.146  -1.116   1.815  0.00  0.00    +0.024 C 
ATOM     19  C   UNL     1       2.605  -0.040   0.823  0.00  0.00    +0.108 C 
ATOM     20  N   UNL     1       3.629  -0.637  -0.046  0.00  0.00    -0.303 N 
ENDBRANCH   1  20
BRANCH   4  21
ATOM     21  C   UNL     1       4.080   4.102  -2.059  0.00  0.00    +0.246 C 
ATOM     22  O   UNL     1       3.689   3.161  -2.722  0.00  0.00    -0.270 OA
ATOM     23  N   UNL     1       3.887   5.362  -2.498  0.00  0.00    -0.311 N 
ATOM     24  H   UNL     1       4.199   6.113  -1.969  0.00  0.00    +0.149 HD
BRANCH  23  25
ATOM     25  C   UNL     1       3.205   5.597  -3.773  0.00  0.00    +0.109 C 
BRANCH  25  26
ATOM     26  C   UNL     1       3.116   7.102  -4.034  0.00  0.00    +0.052 C 
BRANCH  26  27
ATOM     27  C   UNL     1       2.415   7.344  -5.346  0.00  0.00    -0.040 C 
ATOM     28  C   UNL     1       1.101   7.606  -5.529  0.00  0.00    -0.001 A 
ATOM     29  C   UNL     1      -0.026   7.737  -4.598  0.00  0.00    +0.010 A 
ATOM     30  C   UNL     1      -1.256   8.009  -5.091  0.00  0.00    +0.001 A 
ATOM     31  C   UNL     1      -1.481   8.167  -6.465  0.00  0.00    +0.002 A 
ATOM     32  C   UNL     1      -0.496   8.060  -7.382  0.00  0.00    +0.026 A 
ATOM     33  C   UNL     1       0.837   7.777  -6.976  0.00  0.00    +0.043 A 
ATOM     34  N   UNL     1       1.945   7.628  -7.660  0.00  0.00    -0.380 N 
ATOM     35  C   UNL     1       3.040   7.349  -6.723  0.00  0.00    +0.144 C 
ATOM     36  H   UNL     1       2.029   7.693  -8.624  0.00  0.00    +0.160 HD
ENDBRANCH  26  27
ENDBRANCH  25  26
ENDBRANCH  23  25
ENDBRANCH   4  21
TORSDOF 5
