REMARK  Name = ZINC36613013
REMARK  7 active torsions:
REMARK  status: ('A' for Active; 'I' for Inactive)
REMARK    1  A    between atoms: C_1  and  C_2
REMARK    2  A    between atoms: C_2  and  N_3
REMARK    3  A    between atoms: C_5  and  C_9
REMARK    4  A    between atoms: C_6  and  C_8
REMARK    5  A    between atoms: C_20  and  O_33
REMARK    6  A    between atoms: C_28  and  C_32
REMARK    7  A    between atoms: C_29  and  O_31
REMARK                            x       y       z     vdW  Elec       q    Type
REMARK                         _______ _______ _______ _____ _____    ______ ____
ROOT
ATOM      1  C   UNL     1      -4.168  -2.469  -1.213  0.00  0.00    +0.013 C 
ATOM      2  C   UNL     1      -3.797  -3.135  -2.297  0.00  0.00    -0.040 C 
ATOM      3  C   UNL     1      -2.417  -3.110  -2.948  0.00  0.00    +0.037 C 
ATOM      4  C   UNL     1      -2.540  -3.971  -4.199  0.00  0.00    +0.005 C 
ATOM      5  C   UNL     1      -1.315  -4.764  -4.607  0.00  0.00    +0.001 C 
ATOM      6  C   UNL     1      -0.167  -3.810  -4.955  0.00  0.00    +0.009 C 
ATOM      7  C   UNL     1      -0.704  -2.726  -5.887  0.00  0.00    +0.036 C 
ATOM      8  C   UNL     1      -1.431  -3.343  -7.053  0.00  0.00    -0.040 A 
ATOM      9  C   UNL     1      -1.643  -2.552  -8.174  0.00  0.00    +0.049 A 
ATOM     10  C   UNL     1      -2.310  -3.059  -9.276  0.00  0.00    +0.117 A 
ATOM     11  C   UNL     1      -2.769  -4.369  -9.257  0.00  0.00    +0.046 A 
ATOM     12  C   UNL     1      -2.556  -5.152  -8.144  0.00  0.00    +0.008 A 
ATOM     13  C   UNL     1      -1.884  -4.644  -7.038  0.00  0.00    -0.041 A 
ATOM     14  C   UNL     1      -1.680  -5.577  -5.853  0.00  0.00    +0.023 C 
ATOM     15  C   UNL     1      -2.900  -6.462  -5.631  0.00  0.00    +0.009 C 
ATOM     16  C   UNL     1      -4.097  -5.661  -5.093  0.00  0.00    +0.010 C 
ATOM     17  C   UNL     1      -3.647  -4.990  -3.809  0.00  0.00    +0.001 C 
ATOM     18  C   UNL     1      -4.668  -4.078  -3.128  0.00  0.00    +0.147 C 
ATOM     19  C   UNL     1      -3.099  -6.030  -2.830  0.00  0.00    +0.014 C 
ENDROOT
BRANCH   1  22
ATOM     20  N   UNL     1      -1.372  -0.511   0.012  0.00  0.00    -0.271 N 
ATOM     21  C   UNL     1      -1.903  -1.372  -0.879  0.00  0.00    +0.116 A 
ATOM     22  C   UNL     1      -3.203  -1.591  -0.517  0.00  0.00    +0.015 A 
ATOM     23  C   UNL     1      -3.455  -0.826   0.640  0.00  0.00    +0.067 A 
ATOM     24  N   UNL     1      -2.358  -0.190   0.953  0.00  0.00    -0.176 NA
ATOM     25  C   UNL     1      -4.761  -0.759   1.389  0.00  0.00    +0.068 C 
BRANCH  20  27
ATOM     26  C   UNL     1      -0.019   1.526   0.010  0.00  0.00    +0.029 C 
ATOM     27  C   UNL     1       0.002  -0.004   0.002  0.00  0.00    +0.140 C 
ENDBRANCH  20  27
ENDBRANCH   1  22
BRANCH  18  28
ATOM     28  O   UNL     1      -5.416  -3.348  -4.102  0.00  0.00    -0.387 OA
ATOM     29  H   UNL     1      -6.028  -2.701  -3.724  0.00  0.00    +0.210 HD
ENDBRANCH  18  28
BRANCH  10  30
ATOM     30  O   UNL     1      -2.514  -2.279 -10.370  0.00  0.00    -0.507 OA
ATOM     31  H   UNL     1      -1.804  -2.328 -11.025  0.00  0.00    +0.292 HD
ENDBRANCH  10  30
TORSDOF 4
