REMARK  Name = ZINC32093969
REMARK  3 active torsions:
REMARK  status: ('A' for Active; 'I' for Inactive)
REMARK    1  A    between atoms: C_3  and  N_11
REMARK    2  A    between atoms: C_6  and  C_7
REMARK    3  A    between atoms: C_18  and  O_20
REMARK                            x       y       z     vdW  Elec       q    Type
REMARK                         _______ _______ _______ _____ _____    ______ ____
ROOT
ATOM      1  N   UNL     1       3.585   2.124  -0.021  0.00  0.00    -0.214 N 
ATOM      2  C   UNL     1       4.735   1.757   0.588  0.00  0.00    +0.164 A 
ATOM      3  C   UNL     1       5.675   2.746   0.317  0.00  0.00    +0.036 A 
ATOM      4  C   UNL     1       5.061   3.712  -0.457  0.00  0.00    +0.142 A 
ATOM      5  N   UNL     1       3.817   3.349  -0.668  0.00  0.00    -0.173 NA
ATOM      6  C   UNL     1       7.082   2.647   0.836  0.00  0.00    +0.112 C 
ATOM      7  C   UNL     1       7.070   1.839   2.133  0.00  0.00    +0.121 C 
ATOM      8  C   UNL     1       6.146   0.658   2.034  0.00  0.00    +0.191 C 
ATOM      9  N   UNL     1       5.056   0.657   1.327  0.00  0.00    -0.197 NA
ATOM     10  C   UNL     1       7.995   2.034  -0.176  0.00  0.00    -0.006 A 
ATOM     11  C   UNL     1       7.988   0.797  -0.785  0.00  0.00    +0.009 A 
ATOM     12  C   UNL     1       9.003   0.538  -1.700  0.00  0.00    +0.039 A 
ATOM     13  C   UNL     1       9.973   1.481  -1.984  0.00  0.00    +0.125 A 
ATOM     14  C   UNL     1       9.986   2.728  -1.374  0.00  0.00    +0.062 A 
ATOM     15  C   UNL     1       8.972   2.999  -0.454  0.00  0.00    +0.041 A 
ATOM     16  N   UNL     1       8.745   4.142   0.292  0.00  0.00    -0.284 N 
ATOM     17  C   UNL     1       7.655   4.024   1.079  0.00  0.00    +0.233 C 
ATOM     18  O   UNL     1       7.218   4.865   1.837  0.00  0.00    -0.274 OA
ATOM     19  F   UNL     1      10.937   1.180  -2.881  0.00  0.00    -0.205 F 
ATOM     20  H   UNL     1       9.304   4.934   0.254  0.00  0.00    +0.155 HD
ENDROOT
BRANCH   1  23
ATOM     21  C   UNL     1      -0.017   1.379   0.010  0.00  0.00    +0.014 A 
ATOM     22  C   UNL     1       1.169   2.087   0.002  0.00  0.00    +0.028 A 
ATOM     23  C   UNL     1       2.381   1.409  -0.013  0.00  0.00    +0.068 A 
ATOM     24  C   UNL     1       2.396   0.020  -0.021  0.00  0.00    +0.028 A 
ATOM     25  C   UNL     1       1.207  -0.682  -0.013  0.00  0.00    +0.014 A 
ATOM     26  C   UNL     1       0.002  -0.004   0.002  0.00  0.00    +0.055 A 
BRANCH  26  27
ATOM     27  C   UNL     1      -1.294  -0.774   0.011  0.00  0.00    +0.417 C 
ATOM     28  F   UNL     1      -1.708  -1.005  -1.306  0.00  0.00    -0.166 F 
ATOM     29  F   UNL     1      -1.105  -1.997   0.662  0.00  0.00    -0.166 F 
ATOM     30  F   UNL     1      -2.271  -0.033   0.684  0.00  0.00    -0.166 F 
ENDBRANCH  26  27
ENDBRANCH   1  23
BRANCH   8  31
ATOM     31  O   UNL     1       6.465  -0.461   2.717  0.00  0.00    -0.495 OA
ATOM     32  H   UNL     1       5.830  -1.182   2.610  0.00  0.00    +0.293 HD
ENDBRANCH   8  31
TORSDOF 3
