REMARK  Name = ZINC06074702
REMARK  12 active torsions:
REMARK  status: ('A' for Active; 'I' for Inactive)
REMARK    1  A    between atoms: C_1  and  C_2
REMARK    2  A    between atoms: C_2  and  C_3
REMARK    3  A    between atoms: C_2  and  C_4
REMARK    4  A    between atoms: C_2  and  N_5
REMARK    5  A    between atoms: C_6  and  C_8
REMARK    6  A    between atoms: C_8  and  C_10
REMARK    7  A    between atoms: C_8  and  N_15
REMARK    8  A    between atoms: N_15  and  C_16
REMARK    9  A    between atoms: C_16  and  C_17
REMARK   10  A    between atoms: C_24  and  C_26
REMARK   11  A    between atoms: C_27  and  N_34
REMARK   12  A    between atoms: C_28  and  C_31
REMARK                            x       y       z     vdW  Elec       q    Type
REMARK                         _______ _______ _______ _____ _____    ______ ____
ROOT
ATOM      1  N   UNL     1       1.604   4.208  -1.325  0.00  0.00    -0.277 N 
ATOM      2  C   UNL     1       1.667   4.996  -2.417  0.00  0.00    +0.258 C 
ATOM      3  O   UNL     1       2.748   5.348  -2.851  0.00  0.00    -0.269 OA
ENDROOT
BRANCH   2   4
ATOM      4  C   UNL     1       0.436   5.428  -3.081  0.00  0.00    +0.115 A 
ATOM      5  C   UNL     1       0.275   6.143  -4.269  0.00  0.00    +0.076 A 
ATOM      6  C   UNL     1      -1.067   6.364  -4.582  0.00  0.00    +0.155 A 
ATOM      7  N   UNL     1      -1.999   5.913  -3.772  0.00  0.00    -0.203 NA
ATOM      8  S   UNL     1      -1.258   5.188  -2.585  0.00  0.00    +0.019 S 
BRANCH   6   9
ATOM      9  C   UNL     1      -1.435   7.100  -5.806  0.00  0.00    +0.262 C 
ATOM     10  O   UNL     1      -0.567   7.514  -6.550  0.00  0.00    -0.269 OA
ATOM     11  N   UNL     1      -2.733   7.314  -6.098  0.00  0.00    -0.324 N 
ATOM     12  H   UNL     1      -3.425   6.983  -5.504  0.00  0.00    +0.145 HD
ATOM     13  H   UNL     1      -2.975   7.798  -6.903  0.00  0.00    +0.145 HD
ENDBRANCH   6   9
BRANCH   5  14
ATOM     14  N   UNL     1       1.332   6.583  -5.053  0.00  0.00    -0.355 N 
ATOM     15  H   UNL     1       2.246   6.398  -4.785  0.00  0.00    +0.142 HD
ATOM     16  H   UNL     1       1.158   7.077  -5.870  0.00  0.00    +0.142 HD
ENDBRANCH   5  14
ENDBRANCH   2   4
BRANCH   1  17
ATOM     17  C   UNL     1       2.832   3.652  -0.751  0.00  0.00    +0.199 C 
BRANCH  17  18
ATOM     18  C   UNL     1       2.705   2.154  -0.650  0.00  0.00    +0.019 A 
ATOM     19  C   UNL     1       3.536   1.193  -1.122  0.00  0.00    +0.013 A 
ATOM     20  C   UNL     1       3.215  -0.135  -0.910  0.00  0.00    +0.008 A 
ATOM     21  C   UNL     1       2.078  -0.437  -0.235  0.00  0.00    +0.045 A 
ATOM     22  S   UNL     1       1.421   1.184   0.123  0.00  0.00    -0.099 S 
ENDBRANCH  17  18
BRANCH  17  24
ATOM     23  N   UNL     1       4.075   3.796   1.382  0.00  0.00    -0.309 N 
ATOM     24  C   UNL     1       3.051   4.231   0.623  0.00  0.00    +0.239 C 
ATOM     25  O   UNL     1       2.306   5.090   1.044  0.00  0.00    -0.273 OA
ATOM     26  H   UNL     1       4.696   3.140   1.029  0.00  0.00    +0.149 HD
BRANCH  23  28
ATOM     27  C   UNL     1       3.016   3.976   3.579  0.00  0.00    +0.031 C 
ATOM     28  C   UNL     1       4.251   4.313   2.741  0.00  0.00    +0.026 C 
ATOM     29  C   UNL     1       5.488   3.672   3.375  0.00  0.00    +0.031 C 
ATOM     30  C   UNL     1       4.434   5.831   2.690  0.00  0.00    +0.031 C 
ENDBRANCH  23  28
ENDBRANCH  17  24
ENDBRANCH   1  17
BRANCH   1  31
ATOM     31  C   UNL     1       0.307   3.908  -0.713  0.00  0.00    +0.145 C 
BRANCH  31  32
ATOM     32  C   UNL     1       0.128   4.752   0.522  0.00  0.00    -0.012 A 
ATOM     33  C   UNL     1       0.021   4.150   1.762  0.00  0.00    +0.006 A 
ATOM     34  C   UNL     1      -0.140   4.924   2.895  0.00  0.00    +0.000 A 
ATOM     35  C   UNL     1      -0.203   6.301   2.789  0.00  0.00    +0.001 A 
ATOM     36  C   UNL     1      -0.101   6.904   1.550  0.00  0.00    +0.020 A 
ATOM     37  C   UNL     1       0.064   6.130   0.415  0.00  0.00    +0.046 A 
ATOM     38 CL   UNL     1       0.192   6.887  -1.142  0.00  0.00    -0.083 Cl
ENDBRANCH  31  32
ENDBRANCH   1  31
TORSDOF 9
