REMARK  Name = ZINC12063996
REMARK  8 active torsions:
REMARK  status: ('A' for Active; 'I' for Inactive)
REMARK    1  A    between atoms: C_1  and  C_2
REMARK    2  A    between atoms: C_2  and  N_3
REMARK    3  A    between atoms: N_12  and  C_13
REMARK    4  A    between atoms: C_13  and  C_15
REMARK    5  A    between atoms: C_20  and  N_21
REMARK    6  A    between atoms: N_21  and  S_22
REMARK    7  A    between atoms: S_22  and  C_25
REMARK    8  A    between atoms: C_28  and  C_31
REMARK                            x       y       z     vdW  Elec       q    Type
REMARK                         _______ _______ _______ _____ _____    ______ ____
ROOT
ATOM      1  C   UNL     1      -1.989   0.647   0.518  0.00  0.00    +0.271 C 
ATOM      2  O   UNL     1      -2.109   1.844   0.719  0.00  0.00    -0.268 OA
ENDROOT
BRANCH   1  12
ATOM      3  N   UNL     1       1.616   0.484   0.562  0.00  0.00    -0.321 N 
ATOM      4  C   UNL     1       2.613   1.428   0.742  0.00  0.00    +0.061 A 
ATOM      5  C   UNL     1       4.003   1.234   0.737  0.00  0.00    +0.076 A 
ATOM      6  C   UNL     1       4.869   2.291   0.935  0.00  0.00    +0.164 A 
ATOM      7  C   UNL     1       4.382   3.579   1.141  0.00  0.00    +0.163 A 
ATOM      8  C   UNL     1       3.012   3.794   1.150  0.00  0.00    +0.066 A 
ATOM      9  C   UNL     1       2.156   2.736   0.954  0.00  0.00    +0.043 A 
ATOM     10  S   UNL     1       0.390   2.567   0.890  0.00  0.00    -0.052 S 
ATOM     11  C   UNL     1       0.309   0.859   0.600  0.00  0.00    +0.167 A 
ATOM     12  N   UNL     1      -0.771   0.099   0.449  0.00  0.00    -0.152 NA
ATOM     13  O   UNL     1       5.226   4.628   1.333  0.00  0.00    -0.485 OA
ATOM     14  C   UNL     1       6.577   4.310   1.683  0.00  0.00    +0.270 C 
ATOM     15  C   UNL     1       7.064   3.194   0.750  0.00  0.00    +0.270 C 
ATOM     16  O   UNL     1       6.213   2.057   0.927  0.00  0.00    -0.485 OA
BRANCH   3  18
ATOM     17  C   UNL     1       0.952  -1.822   1.031  0.00  0.00    +0.027 C 
ATOM     18  C   UNL     1       1.969  -0.919   0.331  0.00  0.00    +0.121 C 
ENDBRANCH   3  18
ENDBRANCH   1  12
BRANCH   1  19
ATOM     19  C   UNL     1      -3.190  -0.198   0.351  0.00  0.00    +0.061 A 
ATOM     20  C   UNL     1      -3.057  -1.568   0.121  0.00  0.00    +0.015 A 
ATOM     21  C   UNL     1      -4.181  -2.352  -0.035  0.00  0.00    +0.001 A 
ATOM     22  C   UNL     1      -5.443  -1.786   0.036  0.00  0.00    +0.002 A 
ATOM     23  C   UNL     1      -5.590  -0.432   0.263  0.00  0.00    +0.025 A 
ATOM     24  C   UNL     1      -4.469   0.371   0.428  0.00  0.00    +0.060 A 
BRANCH  24  25
ATOM     25  N   UNL     1      -4.614   1.734   0.662  0.00  0.00    -0.216 N 
ATOM     26  H   UNL     1      -3.965   2.359   0.304  0.00  0.00    +0.174 HD
BRANCH  25  27
ATOM     27  S   UNL     1      -5.896   2.289   1.552  0.00  0.00    +0.072 S 
ATOM     28  O   UNL     1      -5.713   3.690   1.698  0.00  0.00    -0.150 OA
ATOM     29  O   UNL     1      -7.066   1.730   0.971  0.00  0.00    -0.150 OA
BRANCH  27  30
ATOM     30  C   UNL     1      -5.752   1.592   3.164  0.00  0.00    +0.109 A 
ATOM     31  C   UNL     1      -6.351   0.379   3.448  0.00  0.00    +0.029 A 
ATOM     32  C   UNL     1      -6.234  -0.171   4.711  0.00  0.00    +0.005 A 
ATOM     33  C   UNL     1      -5.527   0.498   5.693  0.00  0.00    -0.050 A 
ATOM     34  C   UNL     1      -4.932   1.714   5.410  0.00  0.00    +0.005 A 
ATOM     35  C   UNL     1      -5.045   2.260   4.145  0.00  0.00    +0.029 A 
ATOM     36  C   UNL     1      -5.404  -0.098   7.072  0.00  0.00    +0.044 C 
ENDBRANCH  27  30
ENDBRANCH  25  27
ENDBRANCH  24  25
ENDBRANCH   1  19
TORSDOF 6
