REMARK  Name = ZINC66239575
REMARK  6 active torsions:
REMARK  status: ('A' for Active; 'I' for Inactive)
REMARK    1  A    between atoms: C_1  and  C_2
REMARK    2  A    between atoms: C_5  and  C_26
REMARK    3  A    between atoms: C_10  and  C_12
REMARK    4  A    between atoms: C_15  and  N_18
REMARK    5  A    between atoms: C_19  and  N_25
REMARK    6  A    between atoms: C_20  and  C_23
REMARK                            x       y       z     vdW  Elec       q    Type
REMARK                         _______ _______ _______ _____ _____    ______ ____
ROOT
ATOM      1  C   UNL     1       3.081  -2.111   1.357  0.00  0.00    +0.037 A 
ATOM      2  C   UNL     1       3.279  -0.852   1.928  0.00  0.00    +0.015 A 
ATOM      3  C   UNL     1       4.526  -0.269   1.891  0.00  0.00    +0.028 A 
ATOM      4  C   UNL     1       5.588  -0.933   1.286  0.00  0.00    +0.067 A 
ATOM      5  C   UNL     1       5.395  -2.187   0.717  0.00  0.00    +0.028 A 
ATOM      6  C   UNL     1       4.152  -2.778   0.755  0.00  0.00    +0.015 A 
ENDROOT
BRANCH   1  14
ATOM      7  C   UNL     1       0.180   0.989  -1.227  0.00  0.00    +0.009 C 
ATOM      8  C   UNL     1       0.185  -0.490  -0.834  0.00  0.00    +0.004 C 
ATOM      9  C   UNL     1      -1.249  -1.023  -0.831  0.00  0.00    +0.009 C 
ATOM     10  C   UNL     1      -1.243  -2.510  -0.471  0.00  0.00    +0.004 C 
ATOM     11  C   UNL     1      -0.658  -2.688   0.934  0.00  0.00    +0.111 C 
ATOM     12  N   UNL     1       0.664  -2.050   0.980  0.00  0.00    -0.297 N 
ATOM     13  C   UNL     1       0.787  -0.645   0.566  0.00  0.00    +0.111 C 
ATOM     14  C   UNL     1       1.746  -2.740   1.395  0.00  0.00    +0.247 C 
ATOM     15  O   UNL     1       1.621  -3.879   1.800  0.00  0.00    -0.270 OA
ATOM     16  C   UNL     1      -2.674  -3.049  -0.501  0.00  0.00    +0.009 C 
ENDBRANCH   1  14
BRANCH   4  17
ATOM     17  N   UNL     1       6.852  -0.338   1.250  0.00  0.00    -0.218 N 
ATOM     18  C   UNL     1       8.041  -0.991   1.336  0.00  0.00    +0.137 A 
ATOM     19  C   UNL     1       9.041  -0.026   1.258  0.00  0.00    +0.111 A 
ATOM     20  C   UNL     1       8.399   1.227   1.122  0.00  0.00    +0.155 A 
ATOM     21  N   UNL     1       7.110   1.030   1.113  0.00  0.00    -0.172 NA
BRANCH  18  22
ATOM     22  N   UNL     1       8.222  -2.353   1.476  0.00  0.00    -0.342 N 
ATOM     23  H   UNL     1       7.454  -2.942   1.521  0.00  0.00    +0.144 HD
ATOM     24  H   UNL     1       9.119  -2.720   1.528  0.00  0.00    +0.144 HD
ENDBRANCH  18  22
BRANCH  19  25
ATOM     25  C   UNL     1      10.453  -0.258   1.306  0.00  0.00    +0.104 C 
ATOM     26  N   UNL     1      11.574  -0.441   1.345  0.00  0.00    -0.191 NA
ENDBRANCH  19  25
ENDBRANCH   4  17
TORSDOF 4
