REMARK  Name = ZINC39941893
REMARK  4 active torsions:
REMARK  status: ('A' for Active; 'I' for Inactive)
REMARK    1  A    between atoms: C_1  and  C_2
REMARK    2  A    between atoms: C_17  and  C_27
REMARK    3  A    between atoms: C_21  and  O_26
REMARK    4  A    between atoms: C_23  and  O_25
REMARK                            x       y       z     vdW  Elec       q    Type
REMARK                         _______ _______ _______ _____ _____    ______ ____
ROOT
ATOM      1  C   UNL     1      -0.202   1.491  -0.084  0.00  0.00    +0.012 C 
ATOM      2  C   UNL     1      -0.156  -0.032  -0.087  0.00  0.00    -0.026 C 
ATOM      3  C   UNL     1      -1.583  -0.589  -0.143  0.00  0.00    +0.007 C 
ATOM      4  C   UNL     1      -2.358  -0.209   1.116  0.00  0.00    +0.001 C 
ATOM      5  C   UNL     1      -1.642  -0.734   2.361  0.00  0.00    +0.000 C 
ATOM      6  C   UNL     1      -0.226  -0.154   2.422  0.00  0.00    +0.004 C 
ATOM      7  C   UNL     1       0.535  -0.574   1.167  0.00  0.00    -0.005 C 
ATOM      8  C   UNL     1       1.993  -0.135   1.240  0.00  0.00    +0.004 C 
ATOM      9  C   UNL     1       2.751  -0.618  -0.005  0.00  0.00    +0.004 C 
ATOM     10  C   UNL     1       2.064  -0.040  -1.241  0.00  0.00    -0.004 C 
ATOM     11  C   UNL     1       0.627  -0.550  -1.301  0.00  0.00    -0.001 C 
ATOM     12  C   UNL     1      -0.050  -0.226  -2.616  0.00  0.00    +0.005 C 
ATOM     13  C   UNL     1       0.715  -0.770  -3.830  0.00  0.00    +0.010 C 
ATOM     14  C   UNL     1       2.071  -1.297  -3.444  0.00  0.00    -0.001 C 
ATOM     15  C   UNL     1       2.797  -0.301  -2.518  0.00  0.00    +0.003 C 
ATOM     16  C   UNL     1       4.201  -0.914  -2.431  0.00  0.00    +0.038 C 
ATOM     17  C   UNL     1       4.459  -1.397  -3.886  0.00  0.00    +0.144 C 
ATOM     18  C   UNL     1       3.088  -1.365  -4.608  0.00  0.00    +0.149 C 
ATOM     19  C   UNL     1       1.987  -2.707  -2.864  0.00  0.00    +0.014 C 
ENDROOT
BRANCH  18  20
ATOM     20  O   UNL     1       2.882  -2.561  -5.354  0.00  0.00    -0.389 OA
ATOM     21  H   UNL     1       3.487  -2.668  -6.101  0.00  0.00    +0.210 HD
ENDBRANCH  18  20
BRANCH  17  22
ATOM     22  O   UNL     1       5.377  -0.519  -4.538  0.00  0.00    -0.389 OA
ATOM     23  H   UNL     1       6.247  -0.477  -4.118  0.00  0.00    +0.210 HD
ENDBRANCH  17  22
TORSDOF 2
