REMARK  Name = ZINC08672790
REMARK  9 active torsions:
REMARK  status: ('A' for Active; 'I' for Inactive)
REMARK    1  A    between atoms: C_1  and  C_2
REMARK    2  A    between atoms: C_2  and  C_3
REMARK    3  A    between atoms: C_2  and  C_4
REMARK    4  A    between atoms: C_2  and  N_5
REMARK    5  A    between atoms: C_6  and  C_8
REMARK    6  A    between atoms: C_8  and  C_10
REMARK    7  A    between atoms: C_8  and  N_16
REMARK    8  A    between atoms: N_16  and  C_17
REMARK    9  A    between atoms: C_24  and  C_26
REMARK                            x       y       z     vdW  Elec       q    Type
REMARK                         _______ _______ _______ _____ _____    ______ ____
ROOT
ATOM      1  N   UNL     1       4.256  -0.148  -3.070  0.00  0.00    -0.254 N 
ATOM      2  C   UNL     1       5.143  -1.004  -2.526  0.00  0.00    +0.225 C 
ATOM      3  O   UNL     1       6.166  -0.582  -2.030  0.00  0.00    -0.275 OA
ENDROOT
BRANCH   1   4
ATOM      4  C   UNL     1       4.571   1.212  -3.179  0.00  0.00    +0.038 A 
ATOM      5  C   UNL     1       3.601   2.121  -3.581  0.00  0.00    +0.026 A 
ATOM      6  C   UNL     1       3.914   3.462  -3.687  0.00  0.00    +0.040 A 
ATOM      7  C   UNL     1       5.195   3.900  -3.394  0.00  0.00    +0.124 A 
ATOM      8  C   UNL     1       6.163   2.996  -2.993  0.00  0.00    +0.040 A 
ATOM      9  C   UNL     1       5.853   1.655  -2.880  0.00  0.00    +0.026 A 
ATOM     10  F   UNL     1       5.499   5.212  -3.500  0.00  0.00    -0.205 F 
ENDBRANCH   1   4
BRANCH   2  11
ATOM     11  C   UNL     1       4.863  -2.485  -2.534  0.00  0.00    +0.094 C 
ATOM     12  C   UNL     1       6.180  -3.261  -2.474  0.00  0.00    +0.100 C 
ATOM     13  C   UNL     1       5.995  -4.649  -1.909  0.00  0.00    +0.190 C 
ATOM     14  O   UNL     1       6.707  -5.614  -2.092  0.00  0.00    -0.285 OA
ATOM     15  S   UNL     1       4.603  -4.584  -0.974  0.00  0.00    -0.087 S 
ATOM     16  C   UNL     1       4.033  -2.868  -1.286  0.00  0.00    +0.090 C 
ENDBRANCH   2  11
BRANCH   1  17
ATOM     17  C   UNL     1       2.961  -0.640  -3.547  0.00  0.00    +0.215 C 
BRANCH  17  18
ATOM     18  C   UNL     1       2.824  -0.347  -5.019  0.00  0.00    +0.071 A 
ATOM     19  C   UNL     1       1.983  -1.122  -5.795  0.00  0.00    +0.026 A 
ATOM     20  C   UNL     1       1.864  -0.845  -7.147  0.00  0.00    +0.003 A 
ATOM     21  C   UNL     1       2.599   0.207  -7.672  0.00  0.00    +0.020 A 
ATOM     22  C   UNL     1       3.420   0.939  -6.835  0.00  0.00    +0.111 A 
ATOM     23  N   UNL     1       3.504   0.649  -5.551  0.00  0.00    -0.257 NA
ENDBRANCH  17  18
BRANCH  17  25
ATOM     24  N   UNL     1       0.567  -0.248  -3.066  0.00  0.00    -0.309 N 
ATOM     25  C   UNL     1       1.853   0.049  -2.793  0.00  0.00    +0.240 C 
ATOM     26  O   UNL     1       2.118   0.870  -1.940  0.00  0.00    -0.273 OA
ATOM     27  H   UNL     1       0.354  -0.904  -3.747  0.00  0.00    +0.149 HD
BRANCH  24  29
ATOM     28  C   UNL     1      -0.423   1.931  -2.562  0.00  0.00    +0.031 C 
ATOM     29  C   UNL     1      -0.511   0.421  -2.332  0.00  0.00    +0.026 C 
ATOM     30  C   UNL     1      -0.372   0.124  -0.838  0.00  0.00    +0.031 C 
ATOM     31  C   UNL     1      -1.863  -0.093  -2.831  0.00  0.00    +0.031 C 
ENDBRANCH  24  29
ENDBRANCH  17  25
ENDBRANCH   1  17
TORSDOF 6
