REMARK  Name = ZINC00755081
REMARK  14 active torsions:
REMARK  status: ('A' for Active; 'I' for Inactive)
REMARK    1  A    between atoms: C_1  and  C_2
REMARK    2  A    between atoms: C_2  and  C_3
REMARK    3  A    between atoms: C_2  and  C_4
REMARK    4  A    between atoms: C_6  and  C_27
REMARK    5  A    between atoms: C_7  and  S_13
REMARK    6  A    between atoms: C_8  and  C_10
REMARK    7  A    between atoms: C_10  and  C_11
REMARK    8  A    between atoms: C_10  and  C_12
REMARK    9  A    between atoms: S_13  and  N_16
REMARK   10  A    between atoms: N_16  and  C_17
REMARK   11  A    between atoms: C_20  and  S_23
REMARK   12  A    between atoms: S_23  and  N_26
REMARK   13  A    between atoms: C_27  and  C_28
REMARK   14  A    between atoms: C_27  and  C_29
REMARK                            x       y       z     vdW  Elec       q    Type
REMARK                         _______ _______ _______ _____ _____    ______ ____
ROOT
ATOM      1  S   UNL     1       2.854  -3.521  -2.218  0.00  0.00    +0.073 S 
ATOM      2  O   UNL     1       3.281  -4.823  -2.596  0.00  0.00    -0.150 OA
ATOM      3  O   UNL     1       2.511  -2.525  -3.172  0.00  0.00    -0.150 OA
ENDROOT
BRANCH   1   7
ATOM      4  C   UNL     1       6.148  -1.775   0.350  0.00  0.00    -0.044 A 
ATOM      5  C   UNL     1       5.867  -3.127   0.411  0.00  0.00    +0.009 A 
ATOM      6  C   UNL     1       4.862  -3.661  -0.374  0.00  0.00    -0.018 A 
ATOM      7  C   UNL     1       4.136  -2.841  -1.218  0.00  0.00    +0.115 A 
ATOM      8  C   UNL     1       4.420  -1.490  -1.283  0.00  0.00    -0.018 A 
ATOM      9  C   UNL     1       5.423  -0.956  -0.496  0.00  0.00    +0.009 A 
BRANCH   4  11
ATOM     10  C   UNL     1       8.307  -0.556   0.307  0.00  0.00    +0.012 C 
ATOM     11  C   UNL     1       7.245  -1.194   1.204  0.00  0.00    +0.013 C 
ATOM     12  C   UNL     1       6.657  -0.131   2.135  0.00  0.00    +0.012 C 
ENDBRANCH   4  11
BRANCH   8  13
ATOM     13  C   UNL     1       3.634  -0.598  -2.209  0.00  0.00    +0.015 C 
ATOM     14  C   UNL     1       3.617   0.827  -1.652  0.00  0.00    +0.012 C 
ATOM     15  C   UNL     1       4.286  -0.598  -3.593  0.00  0.00    +0.012 C 
ENDBRANCH   8  13
BRANCH   6  16
ATOM     16  C   UNL     1       4.556  -5.135  -0.307  0.00  0.00    +0.015 C 
ATOM     17  C   UNL     1       5.730  -5.926  -0.887  0.00  0.00    +0.012 C 
ATOM     18  C   UNL     1       4.334  -5.545   1.150  0.00  0.00    +0.012 C 
ENDBRANCH   6  16
ENDBRANCH   1   7
BRANCH   1  19
ATOM     19  N   UNL     1       1.529  -3.721  -1.246  0.00  0.00    -0.216 N 
ATOM     20  H   UNL     1       1.197  -4.613  -1.056  0.00  0.00    +0.174 HD
BRANCH  19  21
ATOM     21  C   UNL     1       0.889  -2.607  -0.699  0.00  0.00    +0.048 A 
ATOM     22  C   UNL     1      -0.496  -2.505  -0.748  0.00  0.00    +0.026 A 
ATOM     23  C   UNL     1      -1.125  -1.402  -0.206  0.00  0.00    +0.030 A 
ATOM     24  C   UNL     1      -0.379  -0.399   0.384  0.00  0.00    +0.105 A 
ATOM     25  C   UNL     1       1.000  -0.496   0.434  0.00  0.00    +0.030 A 
ATOM     26  C   UNL     1       1.635  -1.597  -0.105  0.00  0.00    +0.026 A 
BRANCH  24  27
ATOM     27  S   UNL     1      -1.186   1.008   1.074  0.00  0.00    +0.056 S 
ATOM     28  O   UNL     1      -0.232   2.061   1.081  0.00  0.00    -0.153 OA
ATOM     29  O   UNL     1      -2.440   1.120   0.415  0.00  0.00    -0.153 OA
BRANCH  27  30
ATOM     30  N   UNL     1      -1.514   0.656   2.659  0.00  0.00    -0.204 NA
ATOM     31  H   UNL     1      -1.259  -0.204   3.027  0.00  0.00    +0.144 HD
ATOM     32  H   UNL     1      -1.962   1.310   3.218  0.00  0.00    +0.144 HD
ENDBRANCH  27  30
ENDBRANCH  24  27
ENDBRANCH  19  21
ENDBRANCH   1  19
TORSDOF 8
