REMARK  Name = ZINC32931691
REMARK  8 active torsions:
REMARK  status: ('A' for Active; 'I' for Inactive)
REMARK    1  A    between atoms: C_1  and  C_2
REMARK    2  A    between atoms: C_6  and  C_8
REMARK    3  A    between atoms: C_9  and  C_10
REMARK    4  A    between atoms: N_12  and  C_13
REMARK    5  A    between atoms: C_15  and  N_20
REMARK    6  A    between atoms: C_21  and  C_23
REMARK    7  A    between atoms: C_23  and  N_24
REMARK    8  A    between atoms: C_29  and  C_31
REMARK                            x       y       z     vdW  Elec       q    Type
REMARK                         _______ _______ _______ _____ _____    ______ ____
ROOT
ATOM      1  C   UNL     1      -2.183  -4.215  -0.278  0.00  0.00    +0.071 A 
ATOM      2  C   UNL     1      -2.259  -2.834  -0.170  0.00  0.00    +0.049 A 
ATOM      3  C   UNL     1      -1.096  -2.083  -0.077  0.00  0.00    +0.035 A 
ATOM      4  C   UNL     1       0.140  -2.715  -0.080  0.00  0.00    +0.026 A 
ATOM      5  C   UNL     1       0.214  -4.091  -0.181  0.00  0.00    +0.042 A 
ATOM      6  C   UNL     1      -0.942  -4.843  -0.280  0.00  0.00    +0.145 A 
ATOM      7  F   UNL     1      -0.867  -6.189  -0.379  0.00  0.00    -0.204 F 
ENDROOT
BRANCH   1  10
ATOM      8  C   UNL     1      -4.419  -4.487  -1.044  0.00  0.00    +0.241 C 
ATOM      9  O   UNL     1      -4.394  -3.353  -1.484  0.00  0.00    -0.270 OA
ATOM     10  N   UNL     1      -3.354  -4.975  -0.378  0.00  0.00    -0.280 N 
ATOM     11  H   UNL     1      -3.404  -5.971   0.086  0.00  0.00    +0.155 HD
BRANCH   8  13
ATOM     12  C   UNL     1      -6.673  -4.833  -1.901  0.00  0.00    +0.013 C 
ATOM     13  C   UNL     1      -5.607  -5.321  -1.236  0.00  0.00    +0.068 C 
BRANCH  12  19
ATOM     14  C   UNL     1     -11.284  -5.421  -3.705  0.00  0.00    +0.044 C 
ATOM     15  C   UNL     1     -10.090  -5.960  -2.962  0.00  0.00    -0.050 A 
ATOM     16  C   UNL     1     -10.114  -7.250  -2.460  0.00  0.00    +0.003 A 
ATOM     17  C   UNL     1      -9.022  -7.755  -1.777  0.00  0.00    +0.001 A 
ATOM     18  C   UNL     1      -7.897  -6.977  -1.596  0.00  0.00    +0.008 A 
ATOM     19  C   UNL     1      -7.867  -5.672  -2.095  0.00  0.00    -0.025 A 
ATOM     20  C   UNL     1      -8.975  -5.169  -2.785  0.00  0.00    +0.011 A 
ENDBRANCH  12  19
ENDBRANCH   8  13
ENDBRANCH   1  10
BRANCH   3  21
ATOM     21  N   UNL     1      -1.170  -0.688   0.026  0.00  0.00    -0.287 N 
ATOM     22  C   UNL     1      -0.176  -0.004   0.628  0.00  0.00    +0.201 C 
ATOM     23  O   UNL     1       0.728  -0.601   1.173  0.00  0.00    -0.278 OA
ATOM     24  H   UNL     1      -2.038  -0.151  -0.384  0.00  0.00    +0.155 HD
BRANCH  22  25
ATOM     25  C   UNL     1      -0.190   1.503   0.623  0.00  0.00    +0.019 C 
BRANCH  25  26
ATOM     26  N   UNL     1       0.991   2.005   1.338  0.00  0.00    +0.387 N 
ATOM     27  C   UNL     1       2.226   1.665   0.619  0.00  0.00    -0.078 C 
ATOM     28  C   UNL     1       3.420   2.325   1.312  0.00  0.00    -0.019 C 
ATOM     29  C   UNL     1       3.499   1.835   2.760  0.00  0.00    -0.003 C 
ATOM     30  C   UNL     1       2.183   2.159   3.473  0.00  0.00    -0.016 C 
ATOM     31  C   UNL     1       1.025   1.503   2.718  0.00  0.00    -0.071 C 
ATOM     32  C   UNL     1      -0.295   1.841   3.415  0.00  0.00    -0.013 C 
ATOM     33  H   UNL     1       0.921   3.102   1.382  0.00  0.00    -0.081 HD
ENDBRANCH  25  26
ENDBRANCH  22  25
ENDBRANCH   3  21
TORSDOF 6
