REMARK  Name = ZINC39978794
REMARK  5 active torsions:
REMARK  status: ('A' for Active; 'I' for Inactive)
REMARK    1  A    between atoms: C_1  and  C_2
REMARK    2  A    between atoms: C_5  and  N_9
REMARK    3  A    between atoms: N_9  and  C_10
REMARK    4  A    between atoms: N_13  and  S_14
REMARK    5  A    between atoms: S_14  and  C_17
REMARK                            x       y       z     vdW  Elec       q    Type
REMARK                         _______ _______ _______ _____ _____    ______ ____
ROOT
ATOM      1  C   UNL     1      -0.048  -4.895  -1.290  0.00  0.00    +0.237 C 
ATOM      2  C   UNL     1      -1.193  -5.874  -1.166  0.00  0.00    +0.192 C 
ATOM      3  N   UNL     1      -2.391  -5.455  -0.882  0.00  0.00    -0.110 NA
ATOM      4  N   UNL     1      -0.955  -7.182  -1.353  0.00  0.00    -0.226 NA
ATOM      5  C   UNL     1       0.249  -7.631  -1.641  0.00  0.00    +0.089 A 
ATOM      6  C   UNL     1       0.464  -9.019  -1.832  0.00  0.00    +0.030 A 
ATOM      7  C   UNL     1       1.697  -9.485  -2.128  0.00  0.00    +0.002 A 
ATOM      8  C   UNL     1       2.814  -8.645  -2.262  0.00  0.00    +0.002 A 
ATOM      9  C   UNL     1       2.721  -7.306  -2.100  0.00  0.00    +0.027 A 
ATOM     10  C   UNL     1       1.412  -6.720  -1.776  0.00  0.00    +0.063 A 
ATOM     11  N   UNL     1       1.283  -5.433  -1.613  0.00  0.00    -0.359 N 
ATOM     12  H   UNL     1       2.048  -4.843  -1.703  0.00  0.00    +0.162 HD
ENDROOT
BRANCH   3  13
ATOM     13  S   UNL     1      -3.637  -6.538  -0.748  0.00  0.00    +0.100 S 
ATOM     14  O   UNL     1      -3.838  -7.088  -2.043  0.00  0.00    -0.146 OA
ATOM     15  O   UNL     1      -3.353  -7.346   0.386  0.00  0.00    -0.146 OA
BRANCH  13  16
ATOM     16  C   UNL     1      -5.088  -5.618  -0.360  0.00  0.00    +0.113 A 
ATOM     17  C   UNL     1      -5.421  -5.376   0.959  0.00  0.00    +0.029 A 
ATOM     18  C   UNL     1      -6.560  -4.654   1.264  0.00  0.00    +0.002 A 
ATOM     19  C   UNL     1      -7.365  -4.173   0.248  0.00  0.00    +0.000 A 
ATOM     20  C   UNL     1      -7.032  -4.414  -1.071  0.00  0.00    +0.002 A 
ATOM     21  C   UNL     1      -5.891  -5.133  -1.376  0.00  0.00    +0.029 A 
ENDBRANCH  13  16
ENDBRANCH   3  13
BRANCH   1  22
ATOM     22  N   UNL     1       0.059  -4.168  -0.023  0.00  0.00    -0.317 N 
ATOM     23  H   UNL     1       0.107  -4.657   0.814  0.00  0.00    +0.148 HD
BRANCH  22  28
ATOM     24  C   UNL     1       0.196   1.502  -0.007  0.00  0.00    +0.044 C 
ATOM     25  C   UNL     1       0.159  -0.005  -0.011  0.00  0.00    -0.049 A 
ATOM     26  C   UNL     1       0.192  -0.693  -1.210  0.00  0.00    +0.005 A 
ATOM     27  C   UNL     1       0.159  -2.073  -1.218  0.00  0.00    +0.024 A 
ATOM     28  C   UNL     1       0.093  -2.772  -0.019  0.00  0.00    +0.043 A 
ATOM     29  C   UNL     1       0.061  -2.078   1.185  0.00  0.00    +0.039 A 
ATOM     30  C   UNL     1       0.099  -0.696   1.185  0.00  0.00    +0.020 A 
ATOM     31 BR   UNL     1      -0.029  -3.022   2.821  0.00  0.00    -0.048 Br
ENDBRANCH  22  28
ENDBRANCH   1  22
TORSDOF 4
