REMARK  Name = ZINC07924919
REMARK  10 active torsions:
REMARK  status: ('A' for Active; 'I' for Inactive)
REMARK    1  A    between atoms: C_1  and  C_2
REMARK    2  A    between atoms: C_2  and  C_4
REMARK    3  A    between atoms: C_2  and  N_13
REMARK    4  A    between atoms: C_7  and  O_11
REMARK    5  A    between atoms: O_11  and  C_12
REMARK    6  A    between atoms: C_14  and  C_16
REMARK    7  A    between atoms: C_18  and  S_23
REMARK    8  A    between atoms: S_23  and  N_26
REMARK    9  A    between atoms: N_26  and  C_27
REMARK   10  A    between atoms: N_26  and  C_28
REMARK                            x       y       z     vdW  Elec       q    Type
REMARK                         _______ _______ _______ _____ _____    ______ ____
ROOT
ATOM      1  N   UNL     1       2.394   5.288   0.007  0.00  0.00    -0.305 N 
ATOM      2  C   UNL     1       2.419   3.941   0.000  0.00  0.00    +0.246 C 
ATOM      3  O   UNL     1       3.483   3.352  -0.012  0.00  0.00    -0.270 OA
ATOM      4  H   UNL     1       1.546   5.757   0.017  0.00  0.00    +0.150 HD
ENDROOT
BRANCH   2   5
ATOM      5  C   UNL     1       1.153   3.178   0.008  0.00  0.00    +0.057 A 
ATOM      6  C   UNL     1      -0.070   3.851   0.022  0.00  0.00    +0.043 A 
ATOM      7  C   UNL     1      -1.248   3.133   0.030  0.00  0.00    +0.106 A 
ATOM      8  C   UNL     1      -1.220   1.749   0.017  0.00  0.00    +0.030 A 
ATOM      9  C   UNL     1      -0.013   1.076   0.008  0.00  0.00    +0.022 A 
ATOM     10  C   UNL     1       1.175   1.781   0.000  0.00  0.00    +0.053 A 
ATOM     11 CL   UNL     1       2.691   0.935  -0.018  0.00  0.00    -0.083 Cl
BRANCH   7  12
ATOM     12  S   UNL     1      -2.793   3.981   0.048  0.00  0.00    +0.060 S 
ATOM     13  O   UNL     1      -3.743   3.082   0.603  0.00  0.00    -0.153 OA
ATOM     14  O   UNL     1      -2.545   5.265   0.603  0.00  0.00    -0.153 OA
BRANCH  12  15
ATOM     15  N   UNL     1      -3.236   4.224  -1.529  0.00  0.00    -0.183 NA
ATOM     16  C   UNL     1      -4.043   3.219  -2.226  0.00  0.00    +0.131 C 
ATOM     17  C   UNL     1      -2.822   5.444  -2.227  0.00  0.00    +0.131 C 
ENDBRANCH  12  15
ENDBRANCH   7  12
ENDBRANCH   2   5
BRANCH   1  19
ATOM     18  C   UNL     1       4.138   6.206  -1.441  0.00  0.00    +0.033 C 
ATOM     19  C   UNL     1       3.649   6.044  -0.000  0.00  0.00    +0.100 C 
BRANCH  19  20
ATOM     20  C   UNL     1       3.421   7.403   0.609  0.00  0.00    -0.025 A 
ATOM     21  C   UNL     1       4.374   7.952   1.447  0.00  0.00    +0.009 A 
ATOM     22  C   UNL     1       4.168   9.199   2.007  0.00  0.00    +0.049 A 
ATOM     23  C   UNL     1       3.004   9.899   1.729  0.00  0.00    +0.155 A 
ATOM     24  C   UNL     1       2.048   9.346   0.887  0.00  0.00    +0.165 A 
ATOM     25  C   UNL     1       2.262   8.101   0.325  0.00  0.00    +0.047 A 
ATOM     26  F   UNL     1       0.913  10.026   0.613  0.00  0.00    -0.202 F 
BRANCH  23  27
ATOM     27  O   UNL     1       2.800  11.126   2.279  0.00  0.00    -0.492 OA
ATOM     28  C   UNL     1       3.826  11.633   3.134  0.00  0.00    +0.277 C 
ENDBRANCH  23  27
ENDBRANCH  19  20
ENDBRANCH   1  19
TORSDOF 6
