REMARK  Name = ZINC40394836
REMARK  7 active torsions:
REMARK  status: ('A' for Active; 'I' for Inactive)
REMARK    1  A    between atoms: C_1  and  N_2
REMARK    2  A    between atoms: N_2  and  C_3
REMARK    3  A    between atoms: N_2  and  N_4
REMARK    4  A    between atoms: C_5  and  C_7
REMARK    5  A    between atoms: C_10  and  C_13
REMARK    6  A    between atoms: N_15  and  C_16
REMARK    7  A    between atoms: C_21  and  C_22
REMARK                            x       y       z     vdW  Elec       q    Type
REMARK                         _______ _______ _______ _____ _____    ______ ____
ROOT
ATOM      1  C   UNL     1      -7.021  -3.437  -0.983  0.00  0.00    +0.248 C 
ATOM      2  O   UNL     1      -7.582  -3.650   0.074  0.00  0.00    -0.270 OA
ATOM      3  N   UNL     1      -7.654  -3.690  -2.145  0.00  0.00    -0.281 N 
ATOM      4  H   UNL     1      -7.239  -3.446  -2.987  0.00  0.00    +0.155 HD
ENDROOT
BRANCH   1   8
ATOM      5  C   UNL     1      -3.058  -1.897  -1.012  0.00  0.00    +0.014 A 
ATOM      6  C   UNL     1      -3.702  -2.140   0.201  0.00  0.00    +0.012 A 
ATOM      7  C   UNL     1      -4.986  -2.639   0.211  0.00  0.00    +0.014 A 
ATOM      8  C   UNL     1      -5.643  -2.901  -0.993  0.00  0.00    +0.037 A 
ATOM      9  C   UNL     1      -4.997  -2.657  -2.207  0.00  0.00    +0.014 A 
ATOM     10  C   UNL     1      -3.715  -2.153  -2.216  0.00  0.00    +0.012 A 
BRANCH   5  12
ATOM     11  N   UNL     1      -1.245  -0.550   0.006  0.00  0.00    -0.264 N 
ATOM     12  C   UNL     1      -1.677  -1.359  -1.023  0.00  0.00    +0.111 C 
ATOM     13  N   UNL     1      -0.872  -1.652  -2.003  0.00  0.00    -0.386 N 
ATOM     14  H   UNL     1      -1.845  -0.332   0.736  0.00  0.00    +0.168 HD
ATOM     15  H   UNL     1      -1.176  -2.221  -2.727  0.00  0.00    +0.157 HD
ATOM     16  H   UNL     1       0.032  -1.300  -2.010  0.00  0.00    +0.157 HD
BRANCH  11  18
ATOM     17  C   UNL     1       0.021   1.414  -0.008  0.00  0.00    +0.127 C 
ATOM     18  N   UNL     1       0.028  -0.055  -0.004  0.00  0.00    -0.234 NA
ATOM     19  C   UNL     1       0.803  -0.574   1.131  0.00  0.00    +0.127 C 
ENDBRANCH  11  18
ENDBRANCH   5  12
ENDBRANCH   1   8
BRANCH   3  20
ATOM     20  C   UNL     1      -8.904  -4.302  -2.138  0.00  0.00    +0.046 A 
ATOM     21  C   UNL     1      -9.281  -5.108  -1.072  0.00  0.00    +0.024 A 
ATOM     22  C   UNL     1     -10.521  -5.713  -1.066  0.00  0.00    +0.002 A 
ATOM     23  C   UNL     1     -11.399  -5.522  -2.121  0.00  0.00    +0.001 A 
ATOM     24  C   UNL     1     -11.043  -4.726  -3.188  0.00  0.00    +0.015 A 
ATOM     25  C   UNL     1      -9.793  -4.102  -3.205  0.00  0.00    +0.058 A 
BRANCH  25  26
ATOM     26  C   UNL     1      -9.408  -3.244  -4.341  0.00  0.00    +0.251 C 
ATOM     27  O   UNL     1      -8.286  -2.779  -4.399  0.00  0.00    -0.270 OA
ATOM     28  N   UNL     1     -10.300  -2.974  -5.314  0.00  0.00    -0.266 N 
ATOM     29  C   UNL     1      -9.972  -2.080  -6.332  0.00  0.00    +0.125 A 
ATOM     30  C   UNL     1     -10.932  -1.726  -7.273  0.00  0.00    +0.045 A 
ATOM     31  C   UNL     1     -10.594  -0.837  -8.278  0.00  0.00    +0.025 A 
ATOM     32  C   UNL     1      -9.300  -0.331  -8.307  0.00  0.00    +0.059 A 
ATOM     33  C   UNL     1      -8.398  -0.727  -7.339  0.00  0.00    +0.132 A 
ATOM     34  N   UNL     1      -8.752  -1.572  -6.389  0.00  0.00    -0.239 NA
ATOM     35 CL   UNL     1      -8.823   0.787  -9.547  0.00  0.00    -0.082 Cl
ATOM     36  H   UNL     1     -11.171  -3.402  -5.307  0.00  0.00    +0.157 HD
ENDBRANCH  25  26
ENDBRANCH   3  20
TORSDOF 5
