REMARK  Name = ZINC00934695
REMARK  6 active torsions:
REMARK  status: ('A' for Active; 'I' for Inactive)
REMARK    1  A    between atoms: C_1  and  C_2
REMARK    2  A    between atoms: C_4  and  C_20
REMARK    3  A    between atoms: C_6  and  S_10
REMARK    4  A    between atoms: C_7  and  C_8
REMARK    5  A    between atoms: S_10  and  C_11
REMARK    6  A    between atoms: C_11  and  C_12
REMARK                            x       y       z     vdW  Elec       q    Type
REMARK                         _______ _______ _______ _____ _____    ______ ____
ROOT
ATOM      1  C   UNL     1       2.502   1.078  -0.017  0.00  0.00    +0.045 C 
ATOM      2  C   UNL     1       1.174   1.789   0.001  0.00  0.00    -0.029 A 
ATOM      3  C   UNL     1      -0.013   1.076   0.008  0.00  0.00    +0.027 A 
ATOM      4  C   UNL     1      -1.217   1.756   0.017  0.00  0.00    +0.040 A 
ATOM      5  N   UNL     1      -1.258   3.074   0.031  0.00  0.00    -0.244 NA
ATOM      6  C   UNL     1      -0.154   3.806   0.024  0.00  0.00    +0.115 A 
ATOM      7  C   UNL     1       1.109   3.187   0.009  0.00  0.00    +0.086 A 
ATOM      8  C   UNL     1      -2.506   0.976   0.019  0.00  0.00    +0.065 C 
ENDROOT
BRANCH   7   9
ATOM      9  C   UNL     1       2.306   3.972   0.001  0.00  0.00    +0.102 C 
ATOM     10  N   UNL     1       3.256   4.595  -0.005  0.00  0.00    -0.191 NA
ENDBRANCH   7   9
BRANCH   6  11
ATOM     11  S   UNL     1      -0.268   5.564   0.035  0.00  0.00    -0.100 S 
BRANCH  11  12
ATOM     12  C   UNL     1      -2.067   5.763   0.053  0.00  0.00    +0.111 C 
BRANCH  12  13
ATOM     13  C   UNL     1      -2.410   7.230   0.064  0.00  0.00    -0.036 A 
ATOM     14  C   UNL     1      -2.562   7.895   1.267  0.00  0.00    +0.006 A 
ATOM     15  C   UNL     1      -2.872   9.242   1.278  0.00  0.00    +0.022 A 
ATOM     16  C   UNL     1      -3.041   9.923   0.086  0.00  0.00    +0.059 A 
ATOM     17  C   UNL     1      -2.895   9.256  -1.118  0.00  0.00    +0.060 A 
ATOM     18  C   UNL     1      -2.579   7.909  -1.128  0.00  0.00    +0.026 A 
ATOM     19 CL   UNL     1      -3.107  10.109  -2.615  0.00  0.00    -0.082 Cl
ATOM     20 CL   UNL     1      -3.436  11.613   0.100  0.00  0.00    -0.082 Cl
ENDBRANCH  12  13
ENDBRANCH  11  12
ENDBRANCH   6  11
TORSDOF 4
