REMARK  Name = ZINC39006940
REMARK  10 active torsions:
REMARK  status: ('A' for Active; 'I' for Inactive)
REMARK    1  A    between atoms: C_1  and  C_2
REMARK    2  A    between atoms: C_4  and  C_35
REMARK    3  A    between atoms: C_5  and  N_9
REMARK    4  A    between atoms: C_6  and  C_8
REMARK    5  A    between atoms: C_10  and  C_12
REMARK    6  A    between atoms: C_12  and  S_13
REMARK    7  A    between atoms: S_13  and  C_14
REMARK    8  A    between atoms: C_18  and  C_22
REMARK    9  A    between atoms: N_20  and  N_21
REMARK   10  A    between atoms: C_25  and  C_28
REMARK                            x       y       z     vdW  Elec       q    Type
REMARK                         _______ _______ _______ _____ _____    ______ ____
ROOT
ATOM      1  C   UNL     1      -0.747  -8.897   2.088  0.00  0.00    +0.214 C 
ATOM      2  N   UNL     1       0.203  -9.450   1.087  0.00  0.00    -0.228 NA
ATOM      3  N   UNL     1      -0.494 -10.608   0.521  0.00  0.00    -0.234 NA
ATOM      4  C   UNL     1      -1.939 -10.383   0.730  0.00  0.00    +0.185 C 
ATOM      5  N   UNL     1      -2.069  -9.084   1.433  0.00  0.00    -0.197 NA
ATOM      6  H   UNL     1       0.412  -8.770   0.372  0.00  0.00    +0.143 HD
ATOM      7  H   UNL     1      -0.283 -10.714  -0.460  0.00  0.00    +0.143 HD
ENDROOT
BRANCH   4   8
ATOM      8  C   UNL     1      -2.661 -10.328  -0.618  0.00  0.00    +0.187 C 
ATOM      9  C   UNL     1      -2.566 -11.664  -1.333  0.00  0.00    +0.034 C 
ATOM     10  C   UNL     1      -1.900 -11.375  -2.468  0.00  0.00    +0.091 C 
ATOM     11  N   UNL     1      -1.594 -10.053  -2.515  0.00  0.00    -0.154 NA
ATOM     12  N   UNL     1      -1.978  -9.402  -1.536  0.00  0.00    -0.176 NA
BRANCH  10  13
ATOM     13  C   UNL     1      -1.551 -12.363  -3.519  0.00  0.00    +0.002 A 
ATOM     14  C   UNL     1      -1.920 -13.699  -3.373  0.00  0.00    +0.011 A 
ATOM     15  C   UNL     1      -1.593 -14.614  -4.353  0.00  0.00    +0.020 A 
ATOM     16  C   UNL     1      -0.899 -14.207  -5.479  0.00  0.00    +0.041 A 
ATOM     17  C   UNL     1      -0.531 -12.880  -5.629  0.00  0.00    +0.020 A 
ATOM     18  C   UNL     1      -0.859 -11.957  -4.658  0.00  0.00    +0.011 A 
ATOM     19 CL   UNL     1      -0.490 -15.362  -6.708  0.00  0.00    -0.084 Cl
ENDBRANCH  10  13
ENDBRANCH   4   8
BRANCH   5  20
ATOM     20  N   UNL     1      -3.137  -9.124   2.418  0.00  0.00    -0.264 NA
ATOM     21  H   UNL     1      -3.171  -8.268   2.951  0.00  0.00    +0.137 HD
ATOM     22  H   UNL     1      -4.026  -9.313   1.980  0.00  0.00    +0.137 HD
ENDBRANCH   5  20
BRANCH   1  23
ATOM     23  S   UNL     1      -0.418  -7.138   2.382  0.00  0.00    -0.115 S 
BRANCH  23  24
ATOM     24  C   UNL     1      -0.526  -6.390   0.733  0.00  0.00    +0.168 C 
BRANCH  24  26
ATOM     25  N   UNL     1      -0.299  -4.141  -0.272  0.00  0.00    -0.284 N 
ATOM     26  C   UNL     1      -0.270  -4.908   0.836  0.00  0.00    +0.227 C 
ATOM     27  O   UNL     1      -0.036  -4.407   1.915  0.00  0.00    -0.275 OA
ATOM     28  H   UNL     1      -0.421  -4.551  -1.143  0.00  0.00    +0.155 HD
BRANCH  25  33
ATOM     29  C   UNL     1       0.286   1.486   0.157  0.00  0.00    +0.044 C 
ATOM     30  C   UNL     1       0.130  -0.009   0.043  0.00  0.00    -0.050 A 
ATOM     31  C   UNL     1       1.121  -0.844   0.526  0.00  0.00    +0.008 A 
ATOM     32  C   UNL     1       0.982  -2.215   0.423  0.00  0.00    -0.029 A 
ATOM     33  C   UNL     1      -0.155  -2.753  -0.166  0.00  0.00    +0.039 A 
ATOM     34  C   UNL     1      -1.148  -1.911  -0.649  0.00  0.00    -0.029 A 
ATOM     35  C   UNL     1      -1.005  -0.542  -0.539  0.00  0.00    +0.008 A 
ATOM     36  C   UNL     1      -2.383  -2.491  -1.289  0.00  0.00    +0.045 C 
ATOM     37  C   UNL     1       2.062  -3.124   0.949  0.00  0.00    +0.045 C 
ENDBRANCH  25  33
ENDBRANCH  24  26
ENDBRANCH  23  24
ENDBRANCH   1  23
TORSDOF 7
