REMARK  Name = ZINC15930424
REMARK  3 active torsions:
REMARK  status: ('A' for Active; 'I' for Inactive)
REMARK    1  A    between atoms: C_6  and  S_7
REMARK    2  A    between atoms: S_7  and  N_10
REMARK    3  A    between atoms: C_16  and  C_18
REMARK                            x       y       z     vdW  Elec       q    Type
REMARK                         _______ _______ _______ _____ _____    ______ ____
ROOT
ATOM      1  N   UNL     1       3.738  -0.868  -1.680  0.00  0.00    -0.174 NA
ATOM      2  C   UNL     1       3.331  -2.082  -2.402  0.00  0.00    +0.128 C 
ATOM      3  C   UNL     1       2.795  -1.669  -3.783  0.00  0.00    +0.125 C 
ATOM      4  N   UNL     1       3.768  -0.765  -4.412  0.00  0.00    -0.295 N 
ATOM      5  C   UNL     1       4.180   0.446  -3.688  0.00  0.00    +0.125 C 
ATOM      6  C   UNL     1       4.711   0.036  -2.309  0.00  0.00    +0.128 C 
ATOM      7  C   UNL     1       4.274  -1.041  -5.630  0.00  0.00    +0.249 C 
ATOM      8  O   UNL     1       5.021  -0.250  -6.172  0.00  0.00    -0.270 OA
ENDROOT
BRANCH   7   9
ATOM      9  C   UNL     1       3.922  -2.307  -6.306  0.00  0.00    +0.073 A 
ATOM     10  C   UNL     1       2.583  -2.647  -6.504  0.00  0.00    +0.031 A 
ATOM     11  C   UNL     1       2.261  -3.828  -7.140  0.00  0.00    +0.019 A 
ATOM     12  C   UNL     1       3.262  -4.681  -7.574  0.00  0.00    +0.018 A 
ATOM     13  C   UNL     1       4.591  -4.355  -7.376  0.00  0.00    +0.040 A 
ATOM     14  C   UNL     1       4.929  -3.172  -6.745  0.00  0.00    +0.136 A 
ATOM     15  F   UNL     1       6.228  -2.854  -6.553  0.00  0.00    -0.205 F 
ATOM     16 BR   UNL     1       0.447  -4.286  -7.416  0.00  0.00    -0.050 Br
ENDBRANCH   7   9
BRANCH   1  17
ATOM     17  S   UNL     1       3.117  -0.528  -0.183  0.00  0.00    +0.061 S 
ATOM     18  O   UNL     1       4.058   0.316   0.465  0.00  0.00    -0.153 OA
ATOM     19  O   UNL     1       2.695  -1.766   0.371  0.00  0.00    -0.153 OA
BRANCH  17  25
ATOM     20  C   UNL     1       0.437  -0.188  -0.570  0.00  0.00    +0.032 A 
ATOM     21  C   UNL     1      -0.706   0.564  -0.765  0.00  0.00    +0.051 A 
ATOM     22  C   UNL     1      -0.626   1.948  -0.819  0.00  0.00    +0.162 A 
ATOM     23  C   UNL     1       0.606   2.575  -0.674  0.00  0.00    +0.164 A 
ATOM     24  C   UNL     1       1.749   1.814  -0.480  0.00  0.00    +0.078 A 
ATOM     25  C   UNL     1       1.662   0.435  -0.429  0.00  0.00    +0.109 A 
ATOM     26  O   UNL     1       0.705   3.932  -0.715  0.00  0.00    -0.485 OA
ATOM     27  C   UNL     1      -0.401   4.641  -1.283  0.00  0.00    +0.270 C 
ATOM     28  C   UNL     1      -1.695   4.067  -0.691  0.00  0.00    +0.270 C 
ATOM     29  O   UNL     1      -1.759   2.675  -1.020  0.00  0.00    -0.485 OA
ENDBRANCH  17  25
ENDBRANCH   1  17
TORSDOF 3
