REMARK  Name = ZINC13341669
REMARK  5 active torsions:
REMARK  status: ('A' for Active; 'I' for Inactive)
REMARK    1  A    between atoms: C_4  and  S_8
REMARK    2  A    between atoms: S_8  and  N_11
REMARK    3  A    between atoms: N_11  and  C_12
REMARK    4  A    between atoms: C_14  and  C_20
REMARK    5  A    between atoms: C_16  and  C_18
REMARK                            x       y       z     vdW  Elec       q    Type
REMARK                         _______ _______ _______ _____ _____    ______ ____
ROOT
ATOM      1  N   UNL     1       3.729   5.649  -0.001  0.00  0.00    -0.216 N 
ATOM      2  H   UNL     1       3.842   6.361  -0.650  0.00  0.00    +0.174 HD
ENDROOT
BRANCH   1   3
ATOM      3  C   UNL     1       2.546   4.904   0.021  0.00  0.00    +0.050 A 
ATOM      4  C   UNL     1       1.321   5.551  -0.043  0.00  0.00    +0.039 A 
ATOM      5  C   UNL     1       0.137   4.810  -0.021  0.00  0.00    +0.066 A 
ATOM      6  C   UNL     1       0.188   3.420   0.066  0.00  0.00    +0.030 A 
ATOM      7  C   UNL     1       1.422   2.774   0.130  0.00  0.00    +0.066 A 
ATOM      8  C   UNL     1       2.601   3.521   0.114  0.00  0.00    +0.039 A 
BRANCH   7   9
ATOM      9  C   UNL     1       1.481   1.300   0.222  0.00  0.00    +0.387 C 
ATOM     10  O   UNL     1       2.556   0.738   0.278  0.00  0.00    -0.241 OA
ATOM     11  O   UNL     1       0.342   0.580   0.243  0.00  0.00    -0.241 OA
ENDBRANCH   7   9
BRANCH   5  12
ATOM     12  C   UNL     1      -1.168   5.499  -0.089  0.00  0.00    +0.387 C 
ATOM     13  O   UNL     1      -1.212   6.710  -0.165  0.00  0.00    -0.241 OA
ATOM     14  O   UNL     1      -2.309   4.784  -0.067  0.00  0.00    -0.241 OA
ENDBRANCH   5  12
ENDBRANCH   1   3
BRANCH   1  15
ATOM     15  S   UNL     1       4.937   5.316   1.081  0.00  0.00    +0.073 S 
ATOM     16  O   UNL     1       5.205   3.924   0.976  0.00  0.00    -0.150 OA
ATOM     17  O   UNL     1       5.942   6.301   0.884  0.00  0.00    -0.150 OA
BRANCH  15  21
ATOM     18  C   UNL     1       3.249   6.000   5.226  0.00  0.00    +0.016 A 
ATOM     19  C   UNL     1       3.364   7.058   4.344  0.00  0.00    +0.018 A 
ATOM     20  C   UNL     1       3.885   6.850   3.079  0.00  0.00    +0.045 A 
ATOM     21  C   UNL     1       4.280   5.582   2.694  0.00  0.00    +0.123 A 
ATOM     22  C   UNL     1       4.165   4.524   3.576  0.00  0.00    +0.045 A 
ATOM     23  C   UNL     1       3.649   4.733   4.843  0.00  0.00    +0.020 A 
ATOM     24 BR   UNL     1       3.491   3.286   6.050  0.00  0.00    -0.050 Br
ATOM     25 BR   UNL     1       4.050   8.299   1.875  0.00  0.00    -0.048 Br
ENDBRANCH  15  21
ENDBRANCH   1  15
TORSDOF 5
