REMARK  Name = ZINC06181524
REMARK  8 active torsions:
REMARK  status: ('A' for Active; 'I' for Inactive)
REMARK    1  A    between atoms: C_1  and  C_2
REMARK    2  A    between atoms: C_4  and  C_35
REMARK    3  A    between atoms: C_6  and  N_8
REMARK    4  A    between atoms: N_8  and  S_9
REMARK    5  A    between atoms: S_9  and  C_12
REMARK    6  A    between atoms: C_20  and  C_24
REMARK    7  A    between atoms: N_26  and  C_27
REMARK    8  A    between atoms: C_27  and  C_28
REMARK                            x       y       z     vdW  Elec       q    Type
REMARK                         _______ _______ _______ _____ _____    ______ ____
ROOT
ATOM      1  C   UNL     1      -3.982   1.900  -1.276  0.00  0.00    +0.109 A 
ATOM      2  C   UNL     1      -4.559   0.777  -1.853  0.00  0.00    +0.031 A 
ATOM      3  C   UNL     1      -3.791  -0.130  -2.550  0.00  0.00    +0.028 A 
ATOM      4  C   UNL     1      -2.421   0.079  -2.687  0.00  0.00    +0.050 A 
ATOM      5  C   UNL     1      -1.838   1.214  -2.098  0.00  0.00    +0.048 A 
ATOM      6  C   UNL     1      -2.628   2.123  -1.394  0.00  0.00    +0.042 A 
ATOM      7  C   UNL     1      -0.385   1.419  -2.245  0.00  0.00    +0.202 A 
ATOM      8  O   UNL     1       0.172   2.388  -1.758  0.00  0.00    -0.286 OA
ATOM      9  C   UNL     1       0.364   0.406  -3.004  0.00  0.00    +0.100 A 
ATOM     10  C   UNL     1      -0.319  -0.670  -3.533  0.00  0.00    +0.100 A 
ATOM     11  N   UNL     1      -1.641  -0.823  -3.378  0.00  0.00    -0.360 N 
ATOM     12  H   UNL     1      -2.067  -1.600  -3.772  0.00  0.00    +0.165 HD
ENDROOT
BRANCH   9  13
ATOM     13  C   UNL     1       1.817   0.537  -3.196  0.00  0.00    +0.249 C 
ATOM     14  O   UNL     1       2.409   1.490  -2.726  0.00  0.00    -0.270 OA
ATOM     15  N   UNL     1       2.492  -0.398  -3.893  0.00  0.00    -0.307 N 
ATOM     16  H   UNL     1       2.020  -1.158  -4.268  0.00  0.00    +0.149 HD
BRANCH  15  17
ATOM     17  C   UNL     1       3.938  -0.268  -4.085  0.00  0.00    +0.139 C 
BRANCH  17  18
ATOM     18  C   UNL     1       4.446  -1.435  -4.892  0.00  0.00    -0.030 A 
ATOM     19  C   UNL     1       4.873  -2.583  -4.252  0.00  0.00    +0.006 A 
ATOM     20  C   UNL     1       5.333  -3.656  -4.992  0.00  0.00    +0.020 A 
ATOM     21  C   UNL     1       5.377  -3.576  -6.372  0.00  0.00    +0.041 A 
ATOM     22  C   UNL     1       4.955  -2.424  -7.012  0.00  0.00    +0.020 A 
ATOM     23  C   UNL     1       4.489  -1.354  -6.271  0.00  0.00    +0.006 A 
ATOM     24 CL   UNL     1       5.961  -4.921  -7.302  0.00  0.00    -0.084 Cl
ENDBRANCH  17  18
ENDBRANCH  15  17
ENDBRANCH   9  13
BRANCH   1  25
ATOM     25  S   UNL     1      -4.985   3.044  -0.389  0.00  0.00    +0.072 S 
ATOM     26  O   UNL     1      -6.070   2.301   0.149  0.00  0.00    -0.150 OA
ATOM     27  O   UNL     1      -4.107   3.808   0.426  0.00  0.00    -0.150 OA
BRANCH  25  28
ATOM     28  N   UNL     1      -5.632   4.090  -1.498  0.00  0.00    -0.216 N 
ATOM     29  H   UNL     1      -6.593   4.131  -1.623  0.00  0.00    +0.174 HD
BRANCH  28  35
ATOM     30  C   UNL     1      -2.738   8.051  -1.789  0.00  0.00    +0.044 C 
ATOM     31  C   UNL     1      -3.377   6.841  -2.420  0.00  0.00    -0.048 A 
ATOM     32  C   UNL     1      -3.135   6.546  -3.749  0.00  0.00    +0.006 A 
ATOM     33  C   UNL     1      -3.719   5.436  -4.332  0.00  0.00    -0.048 A 
ATOM     34  C   UNL     1      -4.548   4.620  -3.588  0.00  0.00    +0.028 A 
ATOM     35  C   UNL     1      -4.794   4.914  -2.253  0.00  0.00    +0.049 A 
ATOM     36  C   UNL     1      -4.209   6.032  -1.672  0.00  0.00    +0.028 A 
ATOM     37  C   UNL     1      -3.451   5.118  -5.781  0.00  0.00    +0.044 C 
ENDBRANCH  28  35
ENDBRANCH  25  28
ENDBRANCH   1  25
TORSDOF 6
