REMARK  Name = ZINC04970915
REMARK  14 active torsions:
REMARK  status: ('A' for Active; 'I' for Inactive)
REMARK    1  A    between atoms: C_1  and  C_2
REMARK    2  A    between atoms: C_2  and  C_3
REMARK    3  A    between atoms: C_3  and  C_4
REMARK    4  A    between atoms: C_4  and  C_5
REMARK    5  A    between atoms: C_5  and  C_6
REMARK    6  A    between atoms: C_6  and  O_7
REMARK    7  A    between atoms: O_7  and  C_8
REMARK    8  A    between atoms: C_11  and  C_14
REMARK    9  A    between atoms: C_14  and  N_15
REMARK   10  A    between atoms: C_19  and  C_20
REMARK   11  A    between atoms: C_22  and  C_26
REMARK   12  A    between atoms: C_26  and  S_27
REMARK   13  A    between atoms: S_27  and  C_28
REMARK   14  A    between atoms: C_28  and  C_29
REMARK                            x       y       z     vdW  Elec       q    Type
REMARK                         _______ _______ _______ _____ _____    ______ ____
ROOT
ATOM      1  C   UNL     1      -1.222   2.212  -0.001  0.00  0.00    +0.157 C 
ENDROOT
BRANCH   1   5
ATOM      2  C   UNL     1      -1.979   3.617  -3.966  0.00  0.00    +0.121 A 
ATOM      3  C   UNL     1      -2.619   2.478  -3.498  0.00  0.00    +0.046 A 
ATOM      4  C   UNL     1      -2.373   2.026  -2.216  0.00  0.00    +0.009 A 
ATOM      5  C   UNL     1      -1.489   2.708  -1.399  0.00  0.00    -0.028 A 
ATOM      6  C   UNL     1      -0.854   3.846  -1.861  0.00  0.00    +0.009 A 
ATOM      7  C   UNL     1      -1.093   4.299  -3.144  0.00  0.00    +0.046 A 
BRANCH   2   8
ATOM      8  O   UNL     1      -2.219   4.063  -5.226  0.00  0.00    -0.492 OA
BRANCH   8   9
ATOM      9  C   UNL     1      -1.525   5.242  -5.641  0.00  0.00    +0.229 C 
BRANCH   9  10
ATOM     10  C   UNL     1      -1.921   5.588  -7.078  0.00  0.00    +0.041 C 
BRANCH  10  11
ATOM     11  C   UNL     1      -1.177   6.849  -7.521  0.00  0.00    +0.003 C 
BRANCH  11  12
ATOM     12  C   UNL     1      -1.573   7.196  -8.958  0.00  0.00    -0.000 C 
BRANCH  12  14
ATOM     13  C   UNL     1      -1.225   8.803 -10.839  0.00  0.00    +0.004 C 
ATOM     14  C   UNL     1      -0.830   8.457  -9.402  0.00  0.00    -0.003 C 
ENDBRANCH  12  14
ENDBRANCH  11  12
ENDBRANCH  10  11
ENDBRANCH   9  10
ENDBRANCH   8   9
ENDBRANCH   2   8
ENDBRANCH   1   5
BRANCH   1  15
ATOM     15  N   UNL     1      -0.028   1.363  -0.004  0.00  0.00    -0.339 N 
ATOM     16  C   UNL     1       0.668   0.977  -1.104  0.00  0.00    +0.087 A 
ATOM     17  C   UNL     1       1.707   0.205  -0.709  0.00  0.00    +0.020 A 
ATOM     18  C   UNL     1       1.658   0.105   0.687  0.00  0.00    +0.032 A 
ATOM     19  C   UNL     1       0.578   0.828   1.108  0.00  0.00    +0.104 A 
BRANCH  19  20
ATOM     20  C   UNL     1       0.141   1.002   2.502  0.00  0.00    +0.235 C 
ATOM     21  N   UNL     1       0.815   0.551   3.519  0.00  0.00    -0.241 NA
ATOM     22  C   UNL     1       0.094   0.919   4.754  0.00  0.00    +0.156 C 
ATOM     23  C   UNL     1      -0.899   1.990   4.242  0.00  0.00    +0.258 C 
ATOM     24  O   UNL     1      -0.993   1.649   2.845  0.00  0.00    -0.473 OA
BRANCH  22  25
ATOM     25  C   UNL     1       1.052   1.513   5.789  0.00  0.00    +0.099 C 
BRANCH  25  26
ATOM     26  S   UNL     1       2.305   0.278   6.232  0.00  0.00    -0.159 S 
BRANCH  26  27
ATOM     27  C   UNL     1       3.347   1.128   7.450  0.00  0.00    +0.066 C 
ATOM     28  C   UNL     1       4.460   0.186   7.915  0.00  0.00    +0.015 C 
ENDBRANCH  26  27
ENDBRANCH  25  26
ENDBRANCH  22  25
ENDBRANCH  19  20
ENDBRANCH   1  15
TORSDOF 12
