REMARK  Name = ZINC39756964
REMARK  8 active torsions:
REMARK  status: ('A' for Active; 'I' for Inactive)
REMARK    1  A    between atoms: C_1  and  N_2
REMARK    2  A    between atoms: N_2  and  C_3
REMARK    3  A    between atoms: N_2  and  S_27
REMARK    4  A    between atoms: C_7  and  N_9
REMARK    5  A    between atoms: C_10  and  C_12
REMARK    6  A    between atoms: N_15  and  C_18
REMARK    7  A    between atoms: C_18  and  C_19
REMARK    8  A    between atoms: S_27  and  C_30
REMARK                            x       y       z     vdW  Elec       q    Type
REMARK                         _______ _______ _______ _____ _____    ______ ____
ROOT
ATOM      1  N   UNL     1      -0.978  -0.251   4.721  0.00  0.00    -0.285 N 
ATOM      2  C   UNL     1      -1.049  -0.970   5.858  0.00  0.00    +0.220 C 
ATOM      3  O   UNL     1      -0.585  -2.090   5.897  0.00  0.00    -0.275 OA
ATOM      4  H   UNL     1      -1.280   0.671   4.710  0.00  0.00    +0.155 HD
ENDROOT
BRANCH   2   5
ATOM      5  C   UNL     1      -1.704  -0.383   7.082  0.00  0.00    +0.072 C 
ATOM      6  C   UNL     1      -0.959   0.887   7.502  0.00  0.00    -0.006 C 
ATOM      7  C   UNL     1      -1.580   1.433   8.790  0.00  0.00    -0.078 C 
ATOM      8  N   UNL     1      -1.475   0.427   9.853  0.00  0.00    +0.383 N 
ATOM      9  C   UNL     1      -2.247  -0.766   9.488  0.00  0.00    -0.078 C 
ATOM     10  C   UNL     1      -1.652  -1.398   8.227  0.00  0.00    -0.006 C 
ATOM     11  H   UNL     1      -0.507   0.174   9.981  0.00  0.00    -0.081 HD
BRANCH   8  12
ATOM     12  C   UNL     1      -2.002   0.985  11.106  0.00  0.00    -0.039 C 
BRANCH  12  13
ATOM     13  C   UNL     1      -1.783  -0.001  12.225  0.00  0.00    -0.010 A 
ATOM     14  C   UNL     1      -2.748  -0.953  12.508  0.00  0.00    +0.126 A 
ATOM     15  C   UNL     1      -2.545  -1.857  13.537  0.00  0.00    +0.038 A 
ATOM     16  C   UNL     1      -1.381  -1.809  14.281  0.00  0.00    +0.004 A 
ATOM     17  C   UNL     1      -0.419  -0.859  13.998  0.00  0.00    +0.020 A 
ATOM     18  C   UNL     1      -0.617   0.043  12.967  0.00  0.00    +0.045 A 
ATOM     19 CL   UNL     1       0.596   1.232  12.609  0.00  0.00    -0.083 Cl
ATOM     20  F   UNL     1      -3.885  -0.999  11.781  0.00  0.00    -0.205 F 
ENDBRANCH  12  13
ENDBRANCH   8  12
ENDBRANCH   2   5
BRANCH   1  25
ATOM     21  C   UNL     1       0.742  -0.645   1.490  0.00  0.00    +0.052 A 
ATOM     22  C   UNL     1       0.533  -1.998   1.248  0.00  0.00    +0.025 A 
ATOM     23  C   UNL     1      -0.173  -2.762   2.155  0.00  0.00    +0.004 A 
ATOM     24  C   UNL     1      -0.675  -2.185   3.307  0.00  0.00    +0.023 A 
ATOM     25  C   UNL     1      -0.470  -0.834   3.555  0.00  0.00    +0.035 A 
ATOM     26  C   UNL     1       0.245  -0.064   2.648  0.00  0.00    +0.048 A 
BRANCH  21  28
ATOM     27  C   UNL     1       2.152   1.338   1.016  0.00  0.00    +0.157 C 
ATOM     28  N   UNL     1       1.456   0.128   0.571  0.00  0.00    -0.211 N 
BRANCH  28  29
ATOM     29  S   UNL     1       1.518  -0.325  -1.020  0.00  0.00    +0.042 S 
ATOM     30  O   UNL     1       0.333  -1.081  -1.228  0.00  0.00    -0.155 OA
ATOM     31  O   UNL     1       1.739   0.885  -1.733  0.00  0.00    -0.155 OA
ATOM     32  C   UNL     1       2.975  -1.398  -1.145  0.00  0.00    +0.218 C 
ENDBRANCH  28  29
ENDBRANCH  21  28
ENDBRANCH   1  25
TORSDOF 6
