REMARK  Name = ZINC39035051
REMARK  3 active torsions:
REMARK  status: ('A' for Active; 'I' for Inactive)
REMARK    1  A    between atoms: C_6  and  C_7
REMARK    2  A    between atoms: C_7  and  N_9
REMARK    3  A    between atoms: C_13  and  C_16
REMARK                            x       y       z     vdW  Elec       q    Type
REMARK                         _______ _______ _______ _____ _____    ______ ____
ROOT
ATOM      1  N   UNL     1      -1.246  -2.107   0.003  0.00  0.00    -0.149 NA
ATOM      2  C   UNL     1      -2.380  -2.786   0.011  0.00  0.00    +0.202 C 
ATOM      3  N   UNL     1      -2.578  -4.149   0.011  0.00  0.00    -0.153 NA
ATOM      4  N   UNL     1      -3.662  -4.687   0.019  0.00  0.00    -0.289 N 
ATOM      5  C   UNL     1      -4.873  -3.833   0.028  0.00  0.00    +0.193 C 
ATOM      6  S   UNL     1      -4.064  -2.175   0.031  0.00  0.00    -0.056 S 
ATOM      7  H   UNL     1      -3.737  -5.654   0.019  0.00  0.00    +0.184 HD
ENDROOT
BRANCH   5   8
ATOM      8  C   UNL     1      -5.689  -4.046   1.277  0.00  0.00    -0.010 A 
ATOM      9  C   UNL     1      -5.063  -4.404   2.456  0.00  0.00    +0.010 A 
ATOM     10  C   UNL     1      -5.806  -4.600   3.605  0.00  0.00    +0.050 A 
ATOM     11  C   UNL     1      -7.182  -4.438   3.576  0.00  0.00    +0.166 A 
ATOM     12  C   UNL     1      -7.813  -4.077   2.388  0.00  0.00    +0.167 A 
ATOM     13  C   UNL     1      -7.060  -3.877   1.242  0.00  0.00    +0.056 A 
ATOM     14  O   UNL     1      -9.155  -3.982   2.618  0.00  0.00    -0.453 OA
ATOM     15  C   UNL     1      -9.384  -4.685   3.853  0.00  0.00    +0.466 C 
ATOM     16  O   UNL     1      -8.129  -4.569   4.551  0.00  0.00    -0.453 OA
ENDBRANCH   5   8
BRANCH   1  17
ATOM     17  C   UNL     1      -1.268  -0.764   0.011  0.00  0.00    +0.270 C 
ATOM     18  O   UNL     1      -2.332  -0.172   0.024  0.00  0.00    -0.268 OA
BRANCH  17  24
ATOM     19  C   UNL     1      -0.017   1.391   0.010  0.00  0.00    +0.014 A 
ATOM     20  C   UNL     1       1.170   2.095   0.002  0.00  0.00    +0.016 A 
ATOM     21  C   UNL     1       2.378   1.419  -0.013  0.00  0.00    +0.018 A 
ATOM     22  C   UNL     1       2.403   0.034  -0.022  0.00  0.00    +0.016 A 
ATOM     23  C   UNL     1       1.223  -0.680  -0.014  0.00  0.00    +0.014 A 
ATOM     24  C   UNL     1       0.002  -0.004   0.002  0.00  0.00    +0.039 A 
ATOM     25 BR   UNL     1       4.000   2.390  -0.024  0.00  0.00    -0.050 Br
ENDBRANCH  17  24
ENDBRANCH   1  17
TORSDOF 3
