REMARK  Name = ZINC33736120
REMARK  10 active torsions:
REMARK  status: ('A' for Active; 'I' for Inactive)
REMARK    1  A    between atoms: C_1  and  C_2
REMARK    2  A    between atoms: C_2  and  C_3
REMARK    3  A    between atoms: C_7  and  C_39
REMARK    4  A    between atoms: C_8  and  N_9
REMARK    5  A    between atoms: C_14  and  C_29
REMARK    6  A    between atoms: C_17  and  C_22
REMARK    7  A    between atoms: C_17  and  C_26
REMARK    8  A    between atoms: C_22  and  C_23
REMARK    9  A    between atoms: C_33  and  C_35
REMARK   10  A    between atoms: C_39  and  C_40
REMARK                            x       y       z     vdW  Elec       q    Type
REMARK                         _______ _______ _______ _____ _____    ______ ____
ROOT
ATOM      1  N   UNL     1      -2.918  -1.278   3.291  0.00  0.00    -0.209 N 
ATOM      2  C   UNL     1      -1.697  -1.365   2.671  0.00  0.00    +0.229 C 
ATOM      3  O   UNL     1      -0.674  -1.838   3.119  0.00  0.00    -0.275 OA
ATOM      4  C   UNL     1      -1.884  -0.790   1.360  0.00  0.00    +0.077 C 
ATOM      5  C   UNL     1      -1.293  -0.775   0.011  0.00  0.00    -0.027 C 
ATOM      6  N   UNL     1      -2.343  -0.066  -0.799  0.00  0.00    +0.396 N 
ATOM      7  C   UNL     1      -3.646  -0.211  -0.083  0.00  0.00    +0.058 C 
ATOM      8  C   UNL     1      -3.381  -1.184   1.053  0.00  0.00    +0.087 C 
ATOM      9  C   UNL     1      -3.927  -0.952   2.427  0.00  0.00    +0.229 C 
ATOM     10  O   UNL     1      -5.036  -0.556   2.715  0.00  0.00    -0.275 OA
ATOM     11  H   UNL     1      -2.076   0.997  -0.895  0.00  0.00    -0.083 HD
ATOM     12  H   UNL     1      -2.403  -0.520  -1.799  0.00  0.00    -0.083 HD
ENDROOT
BRANCH   1  18
ATOM     13  C   UNL     1      -3.009  -0.444   5.558  0.00  0.00    -0.026 A 
ATOM     14  C   UNL     1      -3.204  -0.664   6.907  0.00  0.00    +0.005 A 
ATOM     15  C   UNL     1      -3.491  -1.936   7.367  0.00  0.00    +0.001 A 
ATOM     16  C   UNL     1      -3.588  -2.990   6.478  0.00  0.00    +0.005 A 
ATOM     17  C   UNL     1      -3.399  -2.775   5.127  0.00  0.00    -0.026 A 
ATOM     18  C   UNL     1      -3.111  -1.499   4.662  0.00  0.00    +0.050 A 
BRANCH  13  20
ATOM     19  C   UNL     1      -3.981   1.634   4.617  0.00  0.00    +0.009 C 
ATOM     20  C   UNL     1      -2.690   0.942   5.058  0.00  0.00    +0.033 C 
ENDBRANCH  13  20
BRANCH  17  21
ATOM     21  C   UNL     1      -3.506  -3.924   4.158  0.00  0.00    +0.033 C 
ATOM     22  C   UNL     1      -2.113  -4.496   3.889  0.00  0.00    +0.009 C 
ENDBRANCH  17  21
ENDBRANCH   1  18
BRANCH   5  23
ATOM     23  C   UNL     1       0.002  -0.004   0.002  0.00  0.00    -0.060 A 
ATOM     24  C   UNL     1      -0.017   1.378   0.010  0.00  0.00    +0.002 A 
ATOM     25  C   UNL     1       1.171   2.086   0.002  0.00  0.00    +0.001 A 
ATOM     26  C   UNL     1       2.377   1.411  -0.015  0.00  0.00    +0.012 A 
ATOM     27  C   UNL     1       2.396   0.029  -0.022  0.00  0.00    +0.055 A 
ATOM     28  C   UNL     1       1.208  -0.679  -0.013  0.00  0.00    +0.014 A 
BRANCH  27  29
ATOM     29  C   UNL     1       3.711  -0.707  -0.039  0.00  0.00    +0.417 C 
ATOM     30  F   UNL     1       4.105  -0.928  -1.363  0.00  0.00    -0.166 F 
ATOM     31  F   UNL     1       4.683   0.059   0.615  0.00  0.00    -0.166 F 
ATOM     32  F   UNL     1       3.567  -1.935   0.616  0.00  0.00    -0.166 F 
ENDBRANCH  27  29
ENDBRANCH   5  23
BRANCH   7  33
ATOM     33  C   UNL     1      -4.692  -0.770  -1.014  0.00  0.00    +0.347 C 
ATOM     34  O   UNL     1      -5.521  -1.543  -0.596  0.00  0.00    -0.248 OA
ATOM     35  O   UNL     1      -4.702  -0.408  -2.306  0.00  0.00    -0.248 OA
ENDBRANCH   7  33
BRANCH   7  36
ATOM     36  C   UNL     1      -4.098   1.141   0.472  0.00  0.00    +0.125 C 
BRANCH  36  37
ATOM     37  C   UNL     1      -4.300   2.109  -0.665  0.00  0.00    +0.355 C 
ATOM     38  O   UNL     1      -4.101   1.754  -1.803  0.00  0.00    -0.246 OA
ATOM     39  O   UNL     1      -4.699   3.366  -0.414  0.00  0.00    -0.246 OA
ENDBRANCH  36  37
ENDBRANCH   7  36
TORSDOF 8
