REMARK  Name = ZINC64567492
REMARK  3 active torsions:
REMARK  status: ('A' for Active; 'I' for Inactive)
REMARK    1  A    between atoms: C_1  and  C_2
REMARK    2  A    between atoms: C_2  and  N_3
REMARK    3  A    between atoms: N_22  and  C_23
REMARK                            x       y       z     vdW  Elec       q    Type
REMARK                         _______ _______ _______ _____ _____    ______ ____
ROOT
ATOM      1  N   UNL     1       0.942   0.324   1.624  0.00  0.00    -0.289 N 
ATOM      2  C   UNL     1       2.209  -0.192   1.435  0.00  0.00    +0.162 A 
ATOM      3  C   UNL     1       2.779  -1.026   2.415  0.00  0.00    +0.109 A 
ATOM      4  C   UNL     1       4.068  -1.539   2.202  0.00  0.00    +0.033 A 
ATOM      5  C   UNL     1       4.722  -1.200   1.034  0.00  0.00    +0.022 A 
ATOM      6  C   UNL     1       4.095  -0.373   0.115  0.00  0.00    +0.113 A 
ATOM      7  N   UNL     1       2.885   0.099   0.332  0.00  0.00    -0.236 NA
ATOM      8  N   UNL     1       2.105  -1.332   3.542  0.00  0.00    -0.224 NA
ATOM      9  C   UNL     1       0.902  -0.862   3.755  0.00  0.00    +0.188 A 
ATOM     10  C   UNL     1       0.270   0.021   2.756  0.00  0.00    +0.293 A 
ATOM     11  O   UNL     1      -0.846   0.467   2.947  0.00  0.00    -0.264 OA
ATOM     12  N   UNL     1       0.227  -1.188   4.917  0.00  0.00    -0.308 N 
ATOM     13  C   UNL     1      -1.178  -0.797   5.100  0.00  0.00    +0.125 C 
ATOM     14  C   UNL     1      -1.999  -2.054   5.416  0.00  0.00    +0.128 C 
ATOM     15  N   UNL     1      -1.325  -2.797   6.490  0.00  0.00    -0.282 N 
ATOM     16  C   UNL     1       0.080  -3.188   6.306  0.00  0.00    +0.128 C 
ATOM     17  C   UNL     1       0.899  -1.936   5.988  0.00  0.00    +0.125 C 
ATOM     18  C   UNL     1      -1.983  -3.115   7.622  0.00  0.00    +0.307 C 
ATOM     19  O   UNL     1      -3.161  -2.838   7.739  0.00  0.00    -0.252 OA
ATOM     20  N   UNL     1      -1.335  -3.740   8.625  0.00  0.00    -0.267 N 
ATOM     21  H   UNL     1      -0.389  -3.938   8.543  0.00  0.00    +0.156 HD
ENDROOT
BRANCH  20  22
ATOM     22  C   UNL     1      -2.028  -4.104   9.787  0.00  0.00    +0.070 A 
ATOM     23  C   UNL     1      -3.401  -3.918   9.865  0.00  0.00    +0.027 A 
ATOM     24  C   UNL     1      -4.083  -4.278  11.011  0.00  0.00    +0.017 A 
ATOM     25  C   UNL     1      -3.398  -4.823  12.083  0.00  0.00    +0.021 A 
ATOM     26  C   UNL     1      -2.029  -5.009  12.011  0.00  0.00    +0.055 A 
ATOM     27  C   UNL     1      -1.342  -4.657  10.863  0.00  0.00    +0.146 A 
ATOM     28  F   UNL     1      -0.006  -4.843  10.790  0.00  0.00    -0.204 F 
ATOM     29 BR   UNL     1      -4.335  -5.313  13.651  0.00  0.00    -0.050 Br
ENDBRANCH  20  22
BRANCH   1  31
ATOM     30  C   UNL     1       0.700   2.650   0.910  0.00  0.00    +0.027 C 
ATOM     31  C   UNL     1       0.337   1.194   0.613  0.00  0.00    +0.123 C 
ENDBRANCH   1  31
TORSDOF 2
