REMARK  Name = ZINC10645004
REMARK  13 active torsions:
REMARK  status: ('A' for Active; 'I' for Inactive)
REMARK    1  A    between atoms: C_1  and  C_2
REMARK    2  A    between atoms: C_4  and  C_30
REMARK    3  A    between atoms: C_8  and  N_29
REMARK    4  A    between atoms: C_9  and  C_11
REMARK    5  A    between atoms: C_11  and  O_13
REMARK    6  A    between atoms: O_13  and  C_14
REMARK    7  A    between atoms: C_14  and  C_15
REMARK    8  A    between atoms: N_17  and  C_18
REMARK    9  A    between atoms: C_19  and  C_25
REMARK   10  A    between atoms: C_20  and  C_24
REMARK   11  A    between atoms: C_21  and  C_23
REMARK   12  A    between atoms: C_25  and  O_27
REMARK   13  A    between atoms: O_27  and  C_28
REMARK                            x       y       z     vdW  Elec       q    Type
REMARK                         _______ _______ _______ _____ _____    ______ ____
ROOT
ATOM      1  C   UNL     1       1.979  -0.745   4.319  0.00  0.00    +0.348 C 
ATOM      2  O   UNL     1       2.116   0.412   4.672  0.00  0.00    -0.244 OA
ENDROOT
BRANCH   1  11
ATOM      3  C   UNL     1      -1.696   1.372   0.766  0.00  0.00    +0.044 C 
ATOM      4  C   UNL     1      -1.521  -0.123   0.688  0.00  0.00    -0.037 A 
ATOM      5  C   UNL     1      -2.240  -0.864  -0.221  0.00  0.00    +0.025 A 
ATOM      6  C   UNL     1      -2.078  -2.239  -0.290  0.00  0.00    +0.014 A 
ATOM      7  N   UNL     1      -1.231  -2.853   0.513  0.00  0.00    -0.353 N 
ATOM      8  C   UNL     1      -0.520  -2.189   1.399  0.00  0.00    +0.088 A 
ATOM      9  C   UNL     1      -0.609  -0.786   1.546  0.00  0.00    +0.030 A 
ATOM     10  C   UNL     1       0.254  -0.216   2.569  0.00  0.00    +0.055 A 
ATOM     11  C   UNL     1       1.067  -1.067   3.287  0.00  0.00    +0.119 A 
ATOM     12  S   UNL     1       0.683  -2.671   2.612  0.00  0.00    -0.062 S 
ATOM     13  C   UNL     1      -2.873  -3.037  -1.291  0.00  0.00    +0.063 C 
ATOM     14  H   UNL     1      -1.131  -3.816   0.450  0.00  0.00    +0.166 HD
BRANCH  10  15
ATOM     15  N   UNL     1       0.258   1.149   2.816  0.00  0.00    -0.356 N 
ATOM     16  H   UNL     1       0.106   1.774   2.090  0.00  0.00    +0.142 HD
ATOM     17  H   UNL     1       0.414   1.479   3.715  0.00  0.00    +0.142 HD
ENDBRANCH  10  15
ENDBRANCH   1  11
BRANCH   1  18
ATOM     18  O   UNL     1       2.697  -1.721   4.914  0.00  0.00    -0.451 OA
BRANCH  18  19
ATOM     19  C   UNL     1       3.599  -1.324   5.949  0.00  0.00    +0.328 C 
BRANCH  19  20
ATOM     20  C   UNL     1       4.308  -2.539   6.491  0.00  0.00    +0.255 C 
ATOM     21  O   UNL     1       4.064  -3.636   6.035  0.00  0.00    -0.272 OA
ATOM     22  N   UNL     1       5.212  -2.406   7.481  0.00  0.00    -0.277 N 
ATOM     23  H   UNL     1       5.407  -1.528   7.845  0.00  0.00    +0.155 HD
BRANCH  22  24
ATOM     24  C   UNL     1       5.864  -3.523   7.979  0.00  0.00    +0.086 A 
ATOM     25  C   UNL     1       6.812  -3.577   8.992  0.00  0.00    +0.091 A 
ATOM     26  C   UNL     1       7.335  -4.885   9.318  0.00  0.00    -0.025 A 
ATOM     27  C   UNL     1       6.841  -5.910   8.599  0.00  0.00    -0.008 A 
ATOM     28  S   UNL     1       5.682  -5.121   7.502  0.00  0.00    -0.078 S 
ATOM     29  C   UNL     1       7.184  -7.374   8.701  0.00  0.00    +0.052 C 
ATOM     30  C   UNL     1       8.369  -5.088  10.395  0.00  0.00    +0.045 C 
BRANCH  25  31
ATOM     31  C   UNL     1       7.259  -2.372   9.693  0.00  0.00    +0.342 C 
ATOM     32  O   UNL     1       6.679  -2.001  10.696  0.00  0.00    -0.245 OA
BRANCH  31  33
ATOM     33  O   UNL     1       8.315  -1.674   9.228  0.00  0.00    -0.464 OA
ATOM     34  C   UNL     1       8.697  -0.509   9.962  0.00  0.00    +0.280 C 
ENDBRANCH  31  33
ENDBRANCH  25  31
ENDBRANCH  22  24
ENDBRANCH  19  20
ENDBRANCH  18  19
ENDBRANCH   1  18
TORSDOF 8
