REMARK  Name = ZINC32718991
REMARK  8 active torsions:
REMARK  status: ('A' for Active; 'I' for Inactive)
REMARK    1  A    between atoms: C_1  and  C_2
REMARK    2  A    between atoms: C_2  and  C_4
REMARK    3  A    between atoms: C_2  and  N_15
REMARK    4  A    between atoms: C_7  and  N_10
REMARK    5  A    between atoms: N_15  and  S_16
REMARK    6  A    between atoms: S_16  and  C_19
REMARK    7  A    between atoms: C_22  and  O_27
REMARK    8  A    between atoms: O_27  and  C_28
REMARK                            x       y       z     vdW  Elec       q    Type
REMARK                         _______ _______ _______ _____ _____    ______ ____
ROOT
ATOM      1  N   UNL     1       2.470  -6.526  -0.939  0.00  0.00    -0.183 NA
ATOM      2  H   UNL     1       1.374  -6.452  -0.890  0.00  0.00    +0.149 HD
ENDROOT
BRANCH   1   3
ATOM      3  S   UNL     1       3.160  -7.738  -1.830  0.00  0.00    +0.065 S 
ATOM      4  O   UNL     1       2.107  -8.361  -2.553  0.00  0.00    -0.153 OA
ATOM      5  O   UNL     1       4.296  -7.174  -2.472  0.00  0.00    -0.153 OA
BRANCH   3   6
ATOM      6  C   UNL     1       3.769  -8.939  -0.694  0.00  0.00    +0.181 A 
ATOM      7  C   UNL     1       5.064  -8.842  -0.213  0.00  0.00    +0.191 A 
ATOM      8  C   UNL     1       5.543  -9.782   0.685  0.00  0.00    +0.205 A 
ATOM      9  C   UNL     1       4.727 -10.828   1.094  0.00  0.00    +0.196 A 
ATOM     10  C   UNL     1       3.431 -10.927   0.607  0.00  0.00    +0.205 A 
ATOM     11  C   UNL     1       2.954  -9.982  -0.287  0.00  0.00    +0.191 A 
ATOM     12  F   UNL     1       1.693 -10.077  -0.761  0.00  0.00    -0.200 F 
ATOM     13  F   UNL     1       2.636 -11.944   1.004  0.00  0.00    -0.198 F 
ATOM     14  F   UNL     1       6.805  -9.684   1.157  0.00  0.00    -0.198 F 
ATOM     15  F   UNL     1       5.859  -7.827  -0.616  0.00  0.00    -0.200 F 
BRANCH   9  16
ATOM     16  O   UNL     1       5.197 -11.754   1.972  0.00  0.00    -0.489 OA
ATOM     17  C   UNL     1       5.840 -12.904   1.419  0.00  0.00    +0.277 C 
ENDBRANCH   9  16
ENDBRANCH   3   6
ENDBRANCH   1   3
BRANCH   1  19
ATOM     18  C   UNL     1       3.256  -6.274   1.363  0.00  0.00    +0.031 C 
ATOM     19  C   UNL     1       3.300  -5.702  -0.056  0.00  0.00    +0.103 C 
BRANCH  19  20
ATOM     20  C   UNL     1       2.774  -4.290  -0.045  0.00  0.00    -0.029 A 
ATOM     21  C   UNL     1       3.656  -3.225  -0.049  0.00  0.00    +0.007 A 
ATOM     22  C   UNL     1       3.177  -1.930  -0.038  0.00  0.00    +0.026 A 
ATOM     23  C   UNL     1       1.809  -1.697  -0.024  0.00  0.00    +0.047 A 
ATOM     24  C   UNL     1       0.925  -2.768  -0.015  0.00  0.00    +0.026 A 
ATOM     25  C   UNL     1       1.410  -4.062  -0.030  0.00  0.00    +0.007 A 
BRANCH  23  26
ATOM     26  N   UNL     1       1.320  -0.383  -0.013  0.00  0.00    -0.306 N 
ATOM     27  C   UNL     1       0.002  -0.004   0.002  0.00  0.00    +0.112 A 
ATOM     28  C   UNL     1      -0.016   1.342   0.009  0.00  0.00    +0.130 A 
ATOM     29  N   UNL     1       1.252   1.778  -0.000  0.00  0.00    -0.244 NA
ATOM     30  C   UNL     1       2.062   0.755  -0.014  0.00  0.00    +0.204 A 
ENDBRANCH  23  26
ENDBRANCH  19  20
ENDBRANCH   1  19
TORSDOF 6
