REMARK  Name = ZINC66184582
REMARK  19 active torsions:
REMARK  status: ('A' for Active; 'I' for Inactive)
REMARK    1  A    between atoms: C_1  and  C_2
REMARK    2  A    between atoms: C_2  and  C_3
REMARK    3  A    between atoms: C_3  and  C_5
REMARK    4  A    between atoms: C_3  and  C_6
REMARK    5  A    between atoms: C_11  and  O_12
REMARK    6  A    between atoms: O_12  and  C_13
REMARK    7  A    between atoms: C_13  and  C_15
REMARK    8  A    between atoms: C_13  and  C_17
REMARK    9  A    between atoms: C_15  and  C_16
REMARK   10  A    between atoms: N_19  and  C_20
REMARK   11  A    between atoms: C_20  and  C_21
REMARK   12  A    between atoms: C_24  and  O_29
REMARK   13  A    between atoms: C_25  and  O_27
REMARK   14  A    between atoms: O_27  and  C_28
REMARK   15  A    between atoms: O_29  and  C_30
REMARK   16  A    between atoms: C_30  and  C_31
REMARK   17  A    between atoms: C_31  and  C_32
REMARK   18  A    between atoms: C_32  and  C_33
REMARK   19  A    between atoms: C_32  and  C_34
REMARK                            x       y       z     vdW  Elec       q    Type
REMARK                         _______ _______ _______ _____ _____    ______ ____
ROOT
ATOM      1  C   UNL     1       5.458  -1.606  -0.473  0.00  0.00    +0.254 C 
ATOM      2  O   UNL     1       5.112  -0.518  -0.065  0.00  0.00    -0.272 OA
ATOM      3  N   UNL     1       6.720  -2.033  -0.267  0.00  0.00    -0.308 N 
ATOM      4  H   UNL     1       6.997  -2.904  -0.594  0.00  0.00    +0.149 HD
ENDROOT
BRANCH   1   5
ATOM      5  C   UNL     1       4.477  -2.482  -1.210  0.00  0.00    +0.258 C 
BRANCH   5   6
ATOM      6  C   UNL     1       5.005  -2.766  -2.618  0.00  0.00    +0.051 C 
ATOM      7  C   UNL     1       4.073  -3.754  -3.322  0.00  0.00    +0.008 C 
ENDBRANCH   5   6
BRANCH   5   8
ATOM      8  O   UNL     1       3.217  -1.814  -1.300  0.00  0.00    -0.479 OA
BRANCH   8  14
ATOM      9  C   UNL     1       0.853  -1.974  -1.086  0.00  0.00    -0.003 A 
ATOM     10  C   UNL     1      -0.278  -2.750  -0.924  0.00  0.00    +0.007 A 
ATOM     11  C   UNL     1      -0.166  -4.122  -0.803  0.00  0.00    +0.001 A 
ATOM     12  C   UNL     1       1.080  -4.723  -0.845  0.00  0.00    +0.004 A 
ATOM     13  C   UNL     1       2.214  -3.951  -1.008  0.00  0.00    +0.046 A 
ATOM     14  C   UNL     1       2.103  -2.574  -1.134  0.00  0.00    +0.125 A 
BRANCH   9  15
ATOM     15  C   UNL     1       0.730  -0.478  -1.217  0.00  0.00    +0.019 C 
ATOM     16  C   UNL     1      -0.132  -0.142  -2.436  0.00  0.00    +0.012 C 
BRANCH  15  18
ATOM     17  C   UNL     1       0.063   1.620  -0.035  0.00  0.00    +0.004 C 
ATOM     18  C   UNL     1       0.075   0.092   0.043  0.00  0.00    +0.004 C 
ENDBRANCH  15  18
ENDBRANCH   9  15
ENDBRANCH   8  14
ENDBRANCH   5   8
ENDBRANCH   1   5
BRANCH   3  19
ATOM     19  C   UNL     1       7.673  -1.182   0.449  0.00  0.00    +0.139 C 
BRANCH  19  20
ATOM     20  C   UNL     1       9.002  -1.886   0.544  0.00  0.00    -0.027 A 
ATOM     21  C   UNL     1       9.272  -2.709   1.622  0.00  0.00    +0.009 A 
ATOM     22  C   UNL     1      10.489  -3.357   1.713  0.00  0.00    +0.050 A 
ATOM     23  C   UNL     1      11.443  -3.183   0.723  0.00  0.00    +0.162 A 
ATOM     24  C   UNL     1      11.172  -2.355  -0.362  0.00  0.00    +0.162 A 
ATOM     25  C   UNL     1       9.947  -1.712  -0.450  0.00  0.00    +0.054 A 
BRANCH  24  26
ATOM     26  O   UNL     1      12.104  -2.181  -1.336  0.00  0.00    -0.491 OA
ATOM     27  C   UNL     1      11.757  -1.317  -2.420  0.00  0.00    +0.277 C 
ENDBRANCH  24  26
BRANCH  23  28
ATOM     28  O   UNL     1      12.642  -3.820   0.812  0.00  0.00    -0.488 OA
BRANCH  28  29
ATOM     29  C   UNL     1      12.850  -4.653   1.954  0.00  0.00    +0.229 C 
BRANCH  29  30
ATOM     30  C   UNL     1      14.244  -5.280   1.879  0.00  0.00    +0.044 C 
BRANCH  30  31
ATOM     31  C   UNL     1      14.468  -6.172   3.102  0.00  0.00    -0.014 C 
ATOM     32  C   UNL     1      15.809  -6.895   2.967  0.00  0.00    +0.007 C 
ATOM     33  C   UNL     1      14.478  -5.311   4.367  0.00  0.00    +0.007 C 
ENDBRANCH  30  31
ENDBRANCH  29  30
ENDBRANCH  28  29
ENDBRANCH  23  28
ENDBRANCH  19  20
ENDBRANCH   3  19
TORSDOF 13
