REMARK  Name = ZINC39485031
REMARK  7 active torsions:
REMARK  status: ('A' for Active; 'I' for Inactive)
REMARK    1  A    between atoms: C_6  and  C_7
REMARK    2  A    between atoms: C_11  and  C_13
REMARK    3  A    between atoms: C_13  and  N_14
REMARK    4  A    between atoms: N_14  and  C_15
REMARK    5  A    between atoms: N_18  and  C_21
REMARK    6  A    between atoms: C_24  and  N_27
REMARK    7  A    between atoms: C_28  and  C_30
REMARK                            x       y       z     vdW  Elec       q    Type
REMARK                         _______ _______ _______ _____ _____    ______ ____
ROOT
ATOM      1  C   UNL     1      -0.214  -4.919   2.317  0.00  0.00    -0.069 C 
ATOM      2  C   UNL     1       1.279  -4.585   2.369  0.00  0.00    +0.003 C 
ATOM      3  C   UNL     1       1.887  -5.180   3.643  0.00  0.00    +0.103 C 
ATOM      4  N   UNL     1       1.589  -6.618   3.683  0.00  0.00    -0.330 N 
ATOM      5  C   UNL     1       0.192  -7.054   3.549  0.00  0.00    +0.103 C 
ATOM      6  C   UNL     1      -0.397  -6.438   2.276  0.00  0.00    +0.003 C 
ENDROOT
BRANCH   4   7
ATOM      7  C   UNL     1       2.616  -7.554   3.844  0.00  0.00    +0.030 A 
ATOM      8  C   UNL     1       3.940  -7.137   3.860  0.00  0.00    +0.025 A 
ATOM      9  C   UNL     1       4.953  -8.062   4.019  0.00  0.00    +0.025 A 
ATOM     10  C   UNL     1       4.648  -9.409   4.162  0.00  0.00    +0.034 A 
ATOM     11  C   UNL     1       3.324  -9.826   4.145  0.00  0.00    +0.025 A 
ATOM     12  C   UNL     1       2.310  -8.901   3.993  0.00  0.00    +0.025 A 
BRANCH  10  13
ATOM     13  N   UNL     1       5.676 -10.347   4.323  0.00  0.00    -0.285 N 
ATOM     14  C   UNL     1       6.788 -10.017   5.009  0.00  0.00    +0.220 C 
ATOM     15  O   UNL     1       6.859  -8.944   5.571  0.00  0.00    -0.275 OA
ATOM     16  H   UNL     1       5.588 -11.234   3.941  0.00  0.00    +0.155 HD
BRANCH  14  17
ATOM     17  C   UNL     1       7.945 -10.981   5.078  0.00  0.00    +0.075 C 
ATOM     18  C   UNL     1       7.512 -12.275   5.796  0.00  0.00    +0.013 C 
ATOM     19  C   UNL     1       8.756 -12.686   6.623  0.00  0.00    +0.001 C 
ATOM     20  C   UNL     1       9.307 -11.323   7.111  0.00  0.00    +0.001 C 
ATOM     21  C   UNL     1       9.086 -10.375   5.913  0.00  0.00    +0.013 C 
ENDBRANCH  14  17
ENDBRANCH  10  13
ENDBRANCH   4   7
BRANCH   1  22
ATOM     22  N   UNL     1      -0.807  -4.322   1.113  0.00  0.00    +0.382 N 
ATOM     23  H   UNL     1      -1.772  -4.609   1.036  0.00  0.00    -0.085 HD
ATOM     24  H   UNL     1      -0.298  -4.630   0.299  0.00  0.00    -0.085 HD
BRANCH  22  25
ATOM     25  C   UNL     1      -0.738  -2.857   1.208  0.00  0.00    -0.067 C 
BRANCH  25  30
ATOM     26  C   UNL     1      -1.190  -0.729  -0.033  0.00  0.00    +0.077 C 
ATOM     27  N   UNL     1      -2.398  -0.238  -0.035  0.00  0.00    -0.153 NA
ATOM     28  N   UNL     1      -3.370  -1.233  -0.042  0.00  0.00    -0.161 NA
ATOM     29  C   UNL     1      -2.861  -2.422  -0.045  0.00  0.00    +0.115 C 
ATOM     30  C   UNL     1      -1.357  -2.236  -0.045  0.00  0.00    +0.066 C 
BRANCH  26  36
ATOM     31  C   UNL     1       0.059   1.423  -0.013  0.00  0.00    +0.012 A 
ATOM     32  C   UNL     1       1.246   2.122  -0.006  0.00  0.00    +0.039 A 
ATOM     33  C   UNL     1       2.455   1.442  -0.011  0.00  0.00    +0.123 A 
ATOM     34  C   UNL     1       2.477   0.055  -0.023  0.00  0.00    +0.039 A 
ATOM     35  C   UNL     1       1.297  -0.656  -0.030  0.00  0.00    +0.012 A 
ATOM     36  C   UNL     1       0.074   0.024  -0.025  0.00  0.00    -0.001 A 
ATOM     37  F   UNL     1       3.615   2.133  -0.004  0.00  0.00    -0.205 F 
ENDBRANCH  26  36
ENDBRANCH  25  30
ENDBRANCH  22  25
ENDBRANCH   1  22
TORSDOF 7
