REMARK  Name = ZINC39875153
REMARK  5 active torsions:
REMARK  status: ('A' for Active; 'I' for Inactive)
REMARK    1  A    between atoms: C_1  and  C_2
REMARK    2  A    between atoms: C_5  and  C_8
REMARK    3  A    between atoms: N_23  and  C_24
REMARK    4  A    between atoms: C_27  and  O_31
REMARK    5  A    between atoms: O_31  and  C_32
REMARK                            x       y       z     vdW  Elec       q    Type
REMARK                         _______ _______ _______ _____ _____    ______ ____
ROOT
ATOM      1  C   UNL     1       0.059  -4.275  -0.021  0.00  0.00    +0.150 C 
ATOM      2  C   UNL     1      -1.301  -4.810   0.286  0.00  0.00    +0.072 A 
ATOM      3  C   UNL     1      -2.583  -4.645  -0.406  0.00  0.00    +0.199 A 
ATOM      4  O   UNL     1      -2.685  -4.137  -1.509  0.00  0.00    -0.287 OA
ATOM      5  C   UNL     1      -3.744  -5.157   0.364  0.00  0.00    +0.065 A 
ATOM      6  C   UNL     1      -5.046  -4.897  -0.065  0.00  0.00    +0.030 A 
ATOM      7  C   UNL     1      -6.112  -5.375   0.665  0.00  0.00    +0.019 A 
ATOM      8  C   UNL     1      -5.889  -6.111   1.821  0.00  0.00    +0.019 A 
ATOM      9  C   UNL     1      -4.609  -6.376   2.253  0.00  0.00    +0.048 A 
ATOM     10  C   UNL     1      -3.513  -5.905   1.530  0.00  0.00    +0.140 A 
ATOM     11  O   UNL     1      -2.266  -6.187   1.971  0.00  0.00    -0.450 OA
ATOM     12  C   UNL     1      -1.207  -5.557   1.426  0.00  0.00    +0.199 A 
ATOM     13  C   UNL     1       0.192  -5.523   1.887  0.00  0.00    +0.287 C 
ATOM     14  O   UNL     1       0.611  -6.085   2.879  0.00  0.00    -0.266 OA
ATOM     15  N   UNL     1       0.940  -4.778   1.046  0.00  0.00    -0.253 N 
ATOM     16 BR   UNL     1      -7.880  -5.028   0.092  0.00  0.00    -0.050 Br
ENDROOT
BRANCH   1  21
ATOM     17  C   UNL     1      -0.018   1.503   0.010  0.00  0.00    +0.044 C 
ATOM     18  C   UNL     1       0.002  -0.004   0.002  0.00  0.00    -0.050 A 
ATOM     19  C   UNL     1       0.006  -0.689  -1.199  0.00  0.00    +0.004 A 
ATOM     20  C   UNL     1       0.025  -2.071  -1.206  0.00  0.00    +0.006 A 
ATOM     21  C   UNL     1       0.040  -2.768  -0.013  0.00  0.00    -0.022 A 
ATOM     22  C   UNL     1       0.037  -2.084   1.188  0.00  0.00    +0.006 A 
ATOM     23  C   UNL     1       0.023  -0.702   1.195  0.00  0.00    +0.004 A 
ENDBRANCH   1  21
BRANCH  15  24
ATOM     24  C   UNL     1       2.312  -4.527   1.166  0.00  0.00    +0.039 A 
ATOM     25  C   UNL     1       2.958  -3.734   0.227  0.00  0.00    +0.027 A 
ATOM     26  C   UNL     1       4.311  -3.486   0.346  0.00  0.00    +0.049 A 
ATOM     27  C   UNL     1       5.026  -4.030   1.403  0.00  0.00    +0.138 A 
ATOM     28  C   UNL     1       4.381  -4.822   2.343  0.00  0.00    +0.084 A 
ATOM     29  C   UNL     1       3.026  -5.066   2.228  0.00  0.00    +0.047 A 
ATOM     30 CL   UNL     1       5.276  -5.502   3.666  0.00  0.00    -0.080 Cl
BRANCH  27  31
ATOM     31  O   UNL     1       6.359  -3.786   1.519  0.00  0.00    -0.494 OA
ATOM     32  C   UNL     1       6.957  -2.963   0.516  0.00  0.00    +0.277 C 
ENDBRANCH  27  31
ENDBRANCH  15  24
TORSDOF 3
