REMARK  Name = ZINC32508216
REMARK  4 active torsions:
REMARK  status: ('A' for Active; 'I' for Inactive)
REMARK    1  A    between atoms: C_6  and  C_7
REMARK    2  A    between atoms: C_7  and  C_8
REMARK    3  A    between atoms: C_8  and  N_10
REMARK    4  A    between atoms: N_12  and  C_23
REMARK                            x       y       z     vdW  Elec       q    Type
REMARK                         _______ _______ _______ _____ _____    ______ ____
ROOT
ATOM      1  N   UNL     1      -3.108  -0.843  -1.905  0.00  0.00    -0.159 NA
ATOM      2  C   UNL     1      -3.318  -1.387  -3.099  0.00  0.00    +0.154 C 
ATOM      3  N   UNL     1      -2.525  -1.305  -4.212  0.00  0.00    -0.276 N 
ATOM      4  C   UNL     1      -3.091  -1.632  -5.496  0.00  0.00    +0.116 C 
ATOM      5  C   UNL     1      -2.839  -0.576  -6.571  0.00  0.00    +0.190 C 
ATOM      6  S   UNL     1      -4.517   0.075  -6.937  0.00  0.00    -0.028 S 
ATOM      7  O   UNL     1      -4.859  -0.259  -8.275  0.00  0.00    -0.174 OA
ATOM      8  O   UNL     1      -4.587   1.430  -6.516  0.00  0.00    -0.174 OA
ATOM      9  C   UNL     1      -5.517  -0.956  -5.793  0.00  0.00    +0.182 C 
ATOM     10  C   UNL     1      -4.556  -2.098  -5.440  0.00  0.00    +0.097 C 
ATOM     11  S   UNL     1      -4.697  -2.399  -3.617  0.00  0.00    -0.086 S 
ENDROOT
BRANCH   3  12
ATOM     12  C   UNL     1      -1.186  -0.909  -4.105  0.00  0.00    +0.039 A 
ATOM     13  C   UNL     1      -0.830   0.410  -4.351  0.00  0.00    +0.027 A 
ATOM     14  C   UNL     1       0.490   0.802  -4.245  0.00  0.00    +0.051 A 
ATOM     15  C   UNL     1       1.463  -0.120  -3.893  0.00  0.00    +0.166 A 
ATOM     16  C   UNL     1       1.109  -1.444  -3.646  0.00  0.00    +0.168 A 
ATOM     17  C   UNL     1      -0.216  -1.835  -3.747  0.00  0.00    +0.073 A 
ATOM     18  O   UNL     1       2.236  -2.143  -3.321  0.00  0.00    -0.453 OA
ATOM     19  C   UNL     1       3.336  -1.330  -3.770  0.00  0.00    +0.466 C 
ATOM     20  O   UNL     1       2.812   0.010  -3.723  0.00  0.00    -0.453 OA
ENDBRANCH   3  12
BRANCH   1  21
ATOM     21  C   UNL     1      -1.940  -0.266  -1.634  0.00  0.00    +0.243 C 
ATOM     22  O   UNL     1      -0.905  -0.881  -1.800  0.00  0.00    -0.273 OA
BRANCH  21  23
ATOM     23  C   UNL     1      -1.901   1.151  -1.121  0.00  0.00    +0.133 C 
BRANCH  23  29
ATOM     24  C   UNL     1       0.263   2.267  -1.698  0.00  0.00    +0.005 A 
ATOM     25  C   UNL     1       1.567   2.614  -1.401  0.00  0.00    +0.020 A 
ATOM     26  C   UNL     1       2.130   2.222  -0.200  0.00  0.00    +0.041 A 
ATOM     27  C   UNL     1       1.387   1.482   0.703  0.00  0.00    +0.020 A 
ATOM     28  C   UNL     1       0.083   1.136   0.405  0.00  0.00    +0.005 A 
ATOM     29  C   UNL     1      -0.479   1.528  -0.796  0.00  0.00    -0.038 A 
ATOM     30 CL   UNL     1       3.769   2.657   0.175  0.00  0.00    -0.084 Cl
ENDBRANCH  23  29
ENDBRANCH  21  23
ENDBRANCH   1  21
TORSDOF 4
