REMARK  Name = ZINC13525170
REMARK  8 active torsions:
REMARK  status: ('A' for Active; 'I' for Inactive)
REMARK    1  A    between atoms: C_1  and  C_2
REMARK    2  A    between atoms: C_2  and  C_4
REMARK    3  A    between atoms: C_2  and  O_15
REMARK    4  A    between atoms: N_6  and  C_7
REMARK    5  A    between atoms: C_12  and  C_13
REMARK    6  A    between atoms: O_15  and  C_16
REMARK    7  A    between atoms: C_16  and  C_18
REMARK    8  A    between atoms: C_31  and  C_32
REMARK                            x       y       z     vdW  Elec       q    Type
REMARK                         _______ _______ _______ _____ _____    ______ ____
ROOT
ATOM      1  C   UNL     1       4.222   0.938   0.441  0.00  0.00    +0.073 A 
ATOM      2  C   UNL     1       4.749   1.852   1.454  0.00  0.00    +0.015 A 
ATOM      3  C   UNL     1       3.972   2.276   2.536  0.00  0.00    +0.011 A 
ATOM      4  C   UNL     1       4.505   3.129   3.456  0.00  0.00    +0.001 A 
ATOM      5  C   UNL     1       5.816   3.584   3.331  0.00  0.00    +0.002 A 
ATOM      6  C   UNL     1       6.603   3.184   2.295  0.00  0.00    +0.028 A 
ATOM      7  C   UNL     1       6.085   2.307   1.322  0.00  0.00    +0.072 A 
ATOM      8  N   UNL     1       6.826   1.911   0.291  0.00  0.00    -0.247 NA
ATOM      9  C   UNL     1       6.375   1.085  -0.648  0.00  0.00    +0.072 A 
ATOM     10  C   UNL     1       5.066   0.578  -0.600  0.00  0.00    -0.007 A 
ATOM     11  C   UNL     1       4.825  -0.326  -1.784  0.00  0.00    +0.043 C 
ATOM     12  C   UNL     1       6.130  -0.337  -2.590  0.00  0.00    +0.042 C 
ATOM     13  C   UNL     1       7.077   0.565  -1.838  0.00  0.00    -0.021 C 
ATOM     14  C   UNL     1       8.344   0.848  -2.191  0.00  0.00    +0.013 C 
ENDROOT
BRANCH  14  15
ATOM     15  C   UNL     1       8.959   0.160  -3.337  0.00  0.00    -0.021 A 
ATOM     16  C   UNL     1      10.322   0.321  -3.603  0.00  0.00    +0.012 A 
ATOM     17  C   UNL     1      10.896  -0.325  -4.677  0.00  0.00    +0.050 A 
ATOM     18  C   UNL     1      10.125  -1.136  -5.498  0.00  0.00    +0.166 A 
ATOM     19  C   UNL     1       8.764  -1.301  -5.239  0.00  0.00    +0.167 A 
ATOM     20  C   UNL     1       8.183  -0.661  -4.161  0.00  0.00    +0.057 A 
ATOM     21  O   UNL     1       8.240  -2.138  -6.183  0.00  0.00    -0.453 OA
ATOM     22  C   UNL     1       9.370  -2.805  -6.774  0.00  0.00    +0.466 C 
ATOM     23  O   UNL     1      10.450  -1.869  -6.603  0.00  0.00    -0.453 OA
ENDBRANCH  14  15
BRANCH   1  24
ATOM     24  C   UNL     1       2.839   0.422   0.520  0.00  0.00    +0.341 C 
ATOM     25  O   UNL     1       2.610  -0.614   1.112  0.00  0.00    -0.245 OA
BRANCH  24  26
ATOM     26  O   UNL     1       1.833   1.100  -0.065  0.00  0.00    -0.449 OA
BRANCH  26  28
ATOM     27  C   UNL     1      -0.175   1.078   1.313  0.00  0.00    +0.062 C 
ATOM     28  C   UNL     1       0.500   0.534   0.053  0.00  0.00    +0.259 C 
BRANCH  28  29
ATOM     29  C   UNL     1      -0.315   0.911  -1.157  0.00  0.00    +0.258 C 
ATOM     30  O   UNL     1       0.178   1.591  -2.032  0.00  0.00    -0.271 OA
ATOM     31  N   UNL     1      -1.592   0.494  -1.266  0.00  0.00    -0.281 N 
ATOM     32  H   UNL     1      -2.010   0.016  -0.533  0.00  0.00    +0.155 HD
BRANCH  31  33
ATOM     33  C   UNL     1      -2.311   0.751  -2.432  0.00  0.00    +0.051 A 
ATOM     34  C   UNL     1      -1.645   0.957  -3.632  0.00  0.00    +0.024 A 
ATOM     35  C   UNL     1      -2.360   1.207  -4.787  0.00  0.00    +0.002 A 
ATOM     36  C   UNL     1      -3.744   1.262  -4.756  0.00  0.00    +0.001 A 
ATOM     37  C   UNL     1      -4.422   1.065  -3.573  0.00  0.00    +0.021 A 
ATOM     38  C   UNL     1      -3.713   0.807  -2.398  0.00  0.00    +0.073 A 
BRANCH  38  39
ATOM     39  C   UNL     1      -4.412   0.601  -1.165  0.00  0.00    +0.101 C 
ATOM     40  N   UNL     1      -4.966   0.438  -0.187  0.00  0.00    -0.191 NA
ENDBRANCH  38  39
ENDBRANCH  31  33
ENDBRANCH  28  29
ENDBRANCH  26  28
ENDBRANCH  24  26
ENDBRANCH   1  24
TORSDOF 7
