REMARK  Name = ZINC13566986
REMARK  5 active torsions:
REMARK  status: ('A' for Active; 'I' for Inactive)
REMARK    1  A    between atoms: C_1  and  C_2
REMARK    2  A    between atoms: C_2  and  C_4
REMARK    3  A    between atoms: C_2  and  S_16
REMARK    4  A    between atoms: C_4  and  C_6
REMARK    5  A    between atoms: S_16  and  C_17
REMARK                            x       y       z     vdW  Elec       q    Type
REMARK                         _______ _______ _______ _____ _____    ______ ____
ROOT
ATOM      1  C   UNL     1      -0.192  -0.395  -2.861  0.00  0.00    +0.194 C 
ATOM      2  N   UNL     1      -1.303   0.224  -2.474  0.00  0.00    -0.221 NA
ATOM      3  C   UNL     1      -2.031   0.946  -3.321  0.00  0.00    +0.097 C 
ATOM      4  C   UNL     1      -3.247   1.623  -2.875  0.00  0.00    +0.003 C 
ATOM      5  C   UNL     1      -3.901   1.196  -1.704  0.00  0.00    +0.014 C 
ATOM      6  C   UNL     1      -5.032   1.825  -1.289  0.00  0.00    +0.051 C 
ATOM      7  C   UNL     1      -5.549   2.905  -2.030  0.00  0.00    +0.179 C 
ATOM      8  O   UNL     1      -6.567   3.472  -1.656  0.00  0.00    -0.288 OA
ATOM      9  C   UNL     1      -4.894   3.332  -3.201  0.00  0.00    +0.051 C 
ATOM     10  C   UNL     1      -3.761   2.706  -3.613  0.00  0.00    +0.014 C 
ATOM     11  C   UNL     1      -1.577   1.049  -4.736  0.00  0.00    +0.079 C 
ATOM     12  C   UNL     1      -2.436   1.440  -5.776  0.00  0.00    -0.000 C 
ATOM     13  C   UNL     1      -1.902   1.946  -6.983  0.00  0.00    +0.013 C 
ATOM     14  C   UNL     1      -2.733   2.323  -7.985  0.00  0.00    +0.051 C 
ATOM     15  C   UNL     1      -4.131   2.212  -7.824  0.00  0.00    +0.179 C 
ATOM     16  O   UNL     1      -4.879   2.553  -8.729  0.00  0.00    -0.288 OA
ATOM     17  C   UNL     1      -4.665   1.707  -6.619  0.00  0.00    +0.051 C 
ATOM     18  C   UNL     1      -3.837   1.323  -5.617  0.00  0.00    +0.013 C 
ATOM     19  N   UNL     1      -0.253   0.734  -4.953  0.00  0.00    -0.242 N 
ATOM     20  N   UNL     1       0.236  -0.328  -4.157  0.00  0.00    -0.124 NA
ATOM     21  H   UNL     1       0.300   1.204  -5.596  0.00  0.00    +0.172 HD
ENDROOT
BRANCH   1  22
ATOM     22  S   UNL     1       0.694  -1.256  -1.752  0.00  0.00    -0.076 S 
BRANCH  22  24
ATOM     23  C   UNL     1      -0.220   0.402   0.222  0.00  0.00    +0.028 C 
ATOM     24  C   UNL     1      -0.236  -1.067  -0.206  0.00  0.00    +0.122 C 
BRANCH  24  25
ATOM     25  C   UNL     1       0.401  -1.909   0.870  0.00  0.00    +0.176 C 
ATOM     26  O   UNL     1       1.576  -2.201   0.796  0.00  0.00    -0.291 OA
BRANCH  25  27
ATOM     27  C   UNL     1      -0.402  -2.378   2.006  0.00  0.00    +0.019 A 
ATOM     28  C   UNL     1      -1.761  -2.050   2.094  0.00  0.00    +0.013 A 
ATOM     29  C   UNL     1      -2.508  -2.483   3.150  0.00  0.00    +0.024 A 
ATOM     30  C   UNL     1      -1.928  -3.261   4.156  0.00  0.00    +0.037 A 
ATOM     31  C   UNL     1      -0.577  -3.588   4.069  0.00  0.00    -0.017 A 
ATOM     32  C   UNL     1       0.184  -3.162   3.010  0.00  0.00    +0.017 A 
ATOM     33  C   UNL     1      -0.263  -4.421   5.290  0.00  0.00    +0.133 C 
ATOM     34  C   UNL     1      -1.582  -4.500   6.028  0.00  0.00    +0.222 C 
ATOM     35  O   UNL     1      -1.789  -5.079   7.073  0.00  0.00    -0.275 OA
ATOM     36  N   UNL     1      -2.481  -3.808   5.308  0.00  0.00    -0.285 N 
ATOM     37  H   UNL     1      -3.410  -3.703   5.563  0.00  0.00    +0.155 HD
ENDBRANCH  25  27
ENDBRANCH  24  25
ENDBRANCH  22  24
ENDBRANCH   1  22
TORSDOF 4
