REMARK  Name = ZINC13122002
REMARK  9 active torsions:
REMARK  status: ('A' for Active; 'I' for Inactive)
REMARK    1  A    between atoms: C_1  and  O_2
REMARK    2  A    between atoms: O_2  and  C_3
REMARK    3  A    between atoms: C_6  and  C_11
REMARK    4  A    between atoms: C_8  and  O_9
REMARK    5  A    between atoms: O_9  and  C_10
REMARK    6  A    between atoms: C_14  and  O_31
REMARK    7  A    between atoms: C_20  and  N_27
REMARK    8  A    between atoms: C_21  and  C_25
REMARK    9  A    between atoms: C_22  and  N_24
REMARK                            x       y       z     vdW  Elec       q    Type
REMARK                         _______ _______ _______ _____ _____    ______ ____
ROOT
ATOM      1  C   UNL     1      -4.500  -2.733   0.477  0.00  0.00    +0.063 C 
ATOM      2  C   UNL     1      -5.205  -2.183  -0.763  0.00  0.00    +0.108 C 
ATOM      3  C   UNL     1      -5.428  -0.703  -0.591  0.00  0.00    +0.189 C 
ATOM      4  N   UNL     1      -5.685  -0.205   0.578  0.00  0.00    -0.210 NA
ATOM      5  C   UNL     1      -5.721  -0.964   1.704  0.00  0.00    +0.112 A 
ATOM      6  C   UNL     1      -5.205  -2.223   1.721  0.00  0.00    +0.017 A 
ATOM      7  C   UNL     1      -5.265  -3.101   2.827  0.00  0.00    +0.058 A 
ATOM      8  C   UNL     1      -6.081  -2.894   3.955  0.00  0.00    +0.050 A 
ATOM      9  C   UNL     1      -6.067  -3.814   5.017  0.00  0.00    +0.057 A 
ATOM     10  C   UNL     1      -5.231  -4.942   4.907  0.00  0.00    +0.111 A 
ATOM     11  C   UNL     1      -4.468  -5.102   3.733  0.00  0.00    +0.114 A 
ATOM     12  N   UNL     1      -4.508  -4.213   2.763  0.00  0.00    -0.342 N 
ATOM     13  C   UNL     1      -6.964  -1.715   4.035  0.00  0.00    +0.084 A 
ATOM     14  N   UNL     1      -8.095  -1.737   4.698  0.00  0.00    -0.392 N 
ATOM     15  S   UNL     1      -6.405  -0.264   3.178  0.00  0.00    -0.052 S 
ATOM     16  H   UNL     1      -8.415  -2.568   5.083  0.00  0.00    +0.156 HD
ATOM     17  H   UNL     1      -8.612  -0.923   4.803  0.00  0.00    +0.156 HD
ATOM     18  H   UNL     1      -3.972  -4.366   1.970  0.00  0.00    +0.167 HD
ENDROOT
BRANCH   1  22
ATOM     19  C   UNL     1      -0.431  -1.417   0.507  0.00  0.00    +0.162 A 
ATOM     20  C   UNL     1      -1.462  -0.491   0.518  0.00  0.00    +0.050 A 
ATOM     21  C   UNL     1      -2.776  -0.920   0.508  0.00  0.00    +0.008 A 
ATOM     22  C   UNL     1      -3.066  -2.271   0.488  0.00  0.00    -0.036 A 
ATOM     23  C   UNL     1      -2.042  -3.201   0.477  0.00  0.00    +0.053 A 
ATOM     24  C   UNL     1      -0.723  -2.778   0.480  0.00  0.00    +0.162 A 
BRANCH  19  26
ATOM     25  C   UNL     1       1.087   0.413   0.544  0.00  0.00    +0.277 C 
ATOM     26  O   UNL     1       0.863  -0.998   0.516  0.00  0.00    -0.491 OA
ENDBRANCH  19  26
BRANCH  24  27
ATOM     27  O   UNL     1       0.285  -3.691   0.463  0.00  0.00    -0.491 OA
ATOM     28  C   UNL     1      -0.088  -5.070   0.436  0.00  0.00    +0.277 C 
ENDBRANCH  24  27
ENDBRANCH   1  22
BRANCH  11  29
ATOM     29  N   UNL     1      -3.659  -6.214   3.599  0.00  0.00    -0.344 N 
ATOM     30  H   UNL     1      -3.621  -6.875   4.308  0.00  0.00    +0.144 HD
ATOM     31  H   UNL     1      -3.129  -6.334   2.795  0.00  0.00    +0.144 HD
ENDBRANCH  11  29
BRANCH   9  32
ATOM     32  N   UNL     1      -6.852  -3.618   6.136  0.00  0.00    -0.356 N 
ATOM     33  H   UNL     1      -7.025  -4.356   6.742  0.00  0.00    +0.142 HD
ATOM     34  H   UNL     1      -7.230  -2.743   6.316  0.00  0.00    +0.142 HD
ENDBRANCH   9  32
BRANCH  10  35
ATOM     35  C   UNL     1      -5.159  -5.904   5.964  0.00  0.00    +0.104 C 
ATOM     36  N   UNL     1      -5.101  -6.668   6.803  0.00  0.00    -0.191 NA
ENDBRANCH  10  35
BRANCH   3  37
ATOM     37  O   UNL     1      -5.361   0.111  -1.661  0.00  0.00    -0.495 OA
ATOM     38  H   UNL     1      -5.518   1.043  -1.457  0.00  0.00    +0.293 HD
ENDBRANCH   3  37
TORSDOF 7
