REMARK  Name = ZINC59365816
REMARK  8 active torsions:
REMARK  status: ('A' for Active; 'I' for Inactive)
REMARK    1  A    between atoms: C_1  and  O_2
REMARK    2  A    between atoms: O_2  and  C_3
REMARK    3  A    between atoms: C_5  and  N_17
REMARK    4  A    between atoms: C_8  and  N_9
REMARK    5  A    between atoms: C_10  and  C_12
REMARK    6  A    between atoms: N_17  and  C_18
REMARK    7  A    between atoms: C_18  and  N_20
REMARK    8  A    between atoms: C_21  and  C_23
REMARK                            x       y       z     vdW  Elec       q    Type
REMARK                         _______ _______ _______ _____ _____    ______ ____
ROOT
ATOM      1  C   UNL     1       1.080  -0.829   0.931  0.00  0.00    +0.143 A 
ATOM      2  C   UNL     1       1.607  -0.088   1.975  0.00  0.00    +0.070 A 
ATOM      3  C   UNL     1       1.663  -0.632   3.252  0.00  0.00    +0.036 A 
ATOM      4  C   UNL     1       1.189  -1.918   3.481  0.00  0.00    +0.025 A 
ATOM      5  C   UNL     1       0.663  -2.658   2.440  0.00  0.00    +0.029 A 
ATOM      6  C   UNL     1       0.600  -2.116   1.164  0.00  0.00    +0.076 A 
ENDROOT
BRANCH   6   7
ATOM      7  N   UNL     1       0.059  -2.865   0.110  0.00  0.00    -0.276 N 
ATOM      8  C   UNL     1       0.158  -4.209   0.118  0.00  0.00    +0.284 C 
ATOM      9  O   UNL     1       0.695  -4.774   1.053  0.00  0.00    -0.266 OA
ATOM     10  H   UNL     1      -0.385  -2.416  -0.626  0.00  0.00    +0.155 HD
BRANCH   8  11
ATOM     11  C   UNL     1      -0.382  -4.991  -0.999  0.00  0.00    +0.189 A 
ATOM     12  C   UNL     1      -0.354  -6.351  -1.113  0.00  0.00    +0.054 A 
ATOM     13  C   UNL     1      -0.977  -6.667  -2.331  0.00  0.00    +0.042 A 
ATOM     14  C   UNL     1      -1.354  -5.500  -2.899  0.00  0.00    +0.196 A 
ATOM     15  O   UNL     1      -0.998  -4.492  -2.091  0.00  0.00    -0.458 OA
ENDBRANCH   8  11
ENDBRANCH   6   7
BRANCH   1  17
ATOM     16  C   UNL     1       1.534   1.027  -0.486  0.00  0.00    +0.277 C 
ATOM     17  O   UNL     1       1.025  -0.298  -0.320  0.00  0.00    -0.493 OA
ENDBRANCH   1  17
BRANCH   3  18
ATOM     18  N   UNL     1       2.196   0.116   4.309  0.00  0.00    -0.296 N 
ATOM     19  H   UNL     1       2.995   0.649   4.171  0.00  0.00    +0.154 HD
BRANCH  18  20
ATOM     20  C   UNL     1       1.600   0.095   5.517  0.00  0.00    +0.141 C 
ATOM     21  S   UNL     1       0.111  -0.724   5.723  0.00  0.00    -0.018 S 
BRANCH  20  22
ATOM     22  N   UNL     1       2.175   0.720   6.563  0.00  0.00    -0.264 N 
ATOM     23  C   UNL     1       1.579   0.699   7.772  0.00  0.00    +0.250 C 
ATOM     24  O   UNL     1       0.522   0.117   7.918  0.00  0.00    -0.270 OA
ATOM     25  H   UNL     1       3.019   1.184   6.447  0.00  0.00    +0.157 HD
BRANCH  23  26
ATOM     26  C   UNL     1       2.211   1.383   8.919  0.00  0.00    +0.037 A 
ATOM     27  C   UNL     1       3.422   2.057   8.753  0.00  0.00    +0.014 A 
ATOM     28  C   UNL     1       4.006   2.695   9.827  0.00  0.00    +0.016 A 
ATOM     29  C   UNL     1       3.394   2.667  11.069  0.00  0.00    +0.018 A 
ATOM     30  C   UNL     1       2.192   2.000  11.240  0.00  0.00    +0.016 A 
ATOM     31  C   UNL     1       1.595   1.364  10.172  0.00  0.00    +0.014 A 
ATOM     32 BR   UNL     1       4.202   3.543  12.537  0.00  0.00    -0.050 Br
ENDBRANCH  23  26
ENDBRANCH  20  22
ENDBRANCH  18  20
ENDBRANCH   3  18
TORSDOF 7
