REMARK  Name = ZINC04161174
REMARK  14 active torsions:
REMARK  status: ('A' for Active; 'I' for Inactive)
REMARK    1  A    between atoms: C_1  and  C_2
REMARK    2  A    between atoms: C_2  and  C_3
REMARK    3  A    between atoms: C_3  and  C_4
REMARK    4  A    between atoms: C_4  and  C_6
REMARK    5  A    between atoms: C_4  and  N_13
REMARK    6  A    between atoms: N_8  and  C_9
REMARK    7  A    between atoms: C_9  and  C_10
REMARK    8  A    between atoms: C_9  and  C_11
REMARK    9  A    between atoms: C_9  and  C_12
REMARK   10  A    between atoms: N_13  and  C_14
REMARK   11  A    between atoms: C_14  and  C_15
REMARK   12  A    between atoms: C_20  and  C_22
REMARK   13  A    between atoms: C_23  and  N_30
REMARK   14  A    between atoms: C_24  and  C_27
REMARK                            x       y       z     vdW  Elec       q    Type
REMARK                         _______ _______ _______ _____ _____    ______ ____
ROOT
ATOM      1  N   UNL     1      -0.176   1.472   4.914  0.00  0.00    -0.278 N 
ATOM      2  C   UNL     1      -0.826   0.576   5.681  0.00  0.00    +0.258 C 
ATOM      3  O   UNL     1      -1.950   0.218   5.381  0.00  0.00    -0.269 OA
ENDROOT
BRANCH   2   4
ATOM      4  C   UNL     1      -0.181   0.032   6.878  0.00  0.00    +0.115 A 
ATOM      5  C   UNL     1      -0.644  -0.937   7.770  0.00  0.00    +0.076 A 
ATOM      6  C   UNL     1       0.266  -1.197   8.795  0.00  0.00    +0.155 A 
ATOM      7  N   UNL     1       1.402  -0.537   8.830  0.00  0.00    -0.203 NA
ATOM      8  S   UNL     1       1.402   0.433   7.588  0.00  0.00    +0.019 S 
BRANCH   6   9
ATOM      9  C   UNL     1      -0.047  -2.196   9.833  0.00  0.00    +0.262 C 
ATOM     10  O   UNL     1      -1.101  -2.803   9.796  0.00  0.00    -0.269 OA
ATOM     11  N   UNL     1       0.834  -2.438  10.824  0.00  0.00    -0.324 N 
ATOM     12  H   UNL     1       1.675  -1.954  10.854  0.00  0.00    +0.145 HD
ATOM     13  H   UNL     1       0.628  -3.095  11.507  0.00  0.00    +0.145 HD
ENDBRANCH   6   9
BRANCH   5  14
ATOM     14  N   UNL     1      -1.872  -1.573   7.649  0.00  0.00    -0.355 N 
ATOM     15  H   UNL     1      -2.462  -1.352   6.911  0.00  0.00    +0.142 HD
ATOM     16  H   UNL     1      -2.139  -2.239   8.301  0.00  0.00    +0.142 HD
ENDBRANCH   5  14
ENDBRANCH   2   4
BRANCH   1  17
ATOM     17  C   UNL     1      -0.769   1.923   3.652  0.00  0.00    +0.163 C 
BRANCH  17  18
ATOM     18  C   UNL     1       0.155   1.579   2.512  0.00  0.00    +0.234 C 
ATOM     19  O   UNL     1       1.205   1.013   2.732  0.00  0.00    -0.274 OA
ATOM     20  N   UNL     1      -0.186   1.900   1.248  0.00  0.00    -0.309 N 
ATOM     21  H   UNL     1      -1.026   2.352   1.072  0.00  0.00    +0.149 HD
BRANCH  20  22
ATOM     22  C   UNL     1       0.712   1.565   0.140  0.00  0.00    +0.026 C 
ATOM     23  C   UNL     1       0.922   0.051   0.093  0.00  0.00    +0.031 C 
ATOM     24  C   UNL     1       2.059   2.261   0.347  0.00  0.00    +0.031 C 
ATOM     25  C   UNL     1       0.093   2.035  -1.178  0.00  0.00    +0.031 C 
ENDBRANCH  20  22
ENDBRANCH  17  18
BRANCH  17  26
ATOM     26  C   UNL     1      -0.979   3.437   3.699  0.00  0.00    +0.032 C 
BRANCH  26  28
ATOM     27  C   UNL     1      -2.222   5.291   4.822  0.00  0.00    +0.004 C 
ATOM     28  C   UNL     1      -2.012   3.776   4.775  0.00  0.00    -0.001 C 
ENDBRANCH  26  28
ENDBRANCH  17  26
ENDBRANCH   1  17
BRANCH   1  29
ATOM     29  C   UNL     1       1.123   1.997   5.341  0.00  0.00    +0.183 C 
BRANCH  29  30
ATOM     30  C   UNL     1       0.914   3.196   6.229  0.00  0.00    +0.122 A 
ATOM     31  C   UNL     1       0.643   3.162   7.546  0.00  0.00    +0.046 A 
ATOM     32  C   UNL     1       0.525   4.504   7.975  0.00  0.00    +0.041 A 
ATOM     33  C   UNL     1       0.731   5.278   6.894  0.00  0.00    +0.195 A 
ATOM     34  O   UNL     1       0.972   4.481   5.841  0.00  0.00    -0.466 OA
ENDBRANCH  29  30
ENDBRANCH   1  29
TORSDOF 10
