REMARK  Name = ZINC19534369
REMARK  8 active torsions:
REMARK  status: ('A' for Active; 'I' for Inactive)
REMARK    1  A    between atoms: C_1  and  C_2
REMARK    2  A    between atoms: C_2  and  C_4
REMARK    3  A    between atoms: C_2  and  N_17
REMARK    4  A    between atoms: N_6  and  C_7
REMARK    5  A    between atoms: C_10  and  O_13
REMARK    6  A    between atoms: O_13  and  C_14
REMARK    7  A    between atoms: N_20  and  S_23
REMARK    8  A    between atoms: S_23  and  C_26
REMARK                            x       y       z     vdW  Elec       q    Type
REMARK                         _______ _______ _______ _____ _____    ______ ____
ROOT
ATOM      1  N   UNL     1       0.664   2.161  -0.594  0.00  0.00    +0.389 N 
ATOM      2  C   UNL     1      -0.757   2.292  -0.941  0.00  0.00    -0.060 C 
ATOM      3  C   UNL     1      -1.275   0.951  -1.471  0.00  0.00    +0.091 C 
ATOM      4  N   UNL     1      -0.970  -0.093  -0.480  0.00  0.00    -0.180 NA
ATOM      5  C   UNL     1       0.409  -0.196   0.020  0.00  0.00    +0.091 C 
ATOM      6  C   UNL     1       0.861   1.191   0.491  0.00  0.00    -0.060 C 
ATOM      7  H   UNL     1       1.192   1.782  -1.481  0.00  0.00    -0.081 HD
ENDROOT
BRANCH   4   8
ATOM      8  S   UNL     1      -2.149  -1.124   0.059  0.00  0.00    +0.061 S 
ATOM      9  O   UNL     1      -1.728  -1.591   1.333  0.00  0.00    -0.153 OA
ATOM     10  O   UNL     1      -3.390  -0.460  -0.137  0.00  0.00    -0.153 OA
BRANCH   8  11
ATOM     11  C   UNL     1      -2.150  -2.521  -1.014  0.00  0.00    +0.108 A 
ATOM     12  C   UNL     1      -2.954  -2.527  -2.139  0.00  0.00    +0.029 A 
ATOM     13  C   UNL     1      -2.952  -3.620  -2.985  0.00  0.00    +0.005 A 
ATOM     14  C   UNL     1      -2.154  -4.713  -2.701  0.00  0.00    +0.038 A 
ATOM     15  C   UNL     1      -1.353  -4.710  -1.573  0.00  0.00    +0.125 A 
ATOM     16  C   UNL     1      -1.352  -3.612  -0.729  0.00  0.00    +0.066 A 
ATOM     17  F   UNL     1      -0.573  -5.777  -1.294  0.00  0.00    -0.205 F 
ENDBRANCH   8  11
ENDBRANCH   4   8
BRANCH   1  19
ATOM     18  C   UNL     1       2.664   3.268   0.285  0.00  0.00    -0.004 C 
ATOM     19  C   UNL     1       1.243   3.466  -0.244  0.00  0.00    +0.017 C 
BRANCH  19  20
ATOM     20  C   UNL     1       0.398   4.122   0.818  0.00  0.00    +0.203 C 
ATOM     21  O   UNL     1      -0.223   3.440   1.606  0.00  0.00    -0.277 OA
ATOM     22  N   UNL     1       0.332   5.466   0.891  0.00  0.00    -0.287 N 
ATOM     23  H   UNL     1       0.826   6.083   0.126  0.00  0.00    +0.155 HD
BRANCH  22  24
ATOM     24  C   UNL     1      -0.365   6.077   1.942  0.00  0.00    +0.034 A 
ATOM     25  C   UNL     1      -1.024   7.280   1.731  0.00  0.00    +0.027 A 
ATOM     26  C   UNL     1      -1.716   7.879   2.766  0.00  0.00    +0.047 A 
ATOM     27  C   UNL     1      -1.742   7.284   4.018  0.00  0.00    +0.127 A 
ATOM     28  C   UNL     1      -1.080   6.084   4.231  0.00  0.00    +0.047 A 
ATOM     29  C   UNL     1      -0.393   5.481   3.196  0.00  0.00    +0.027 A 
BRANCH  27  30
ATOM     30  O   UNL     1      -2.418   7.877   5.038  0.00  0.00    -0.434 OA
BRANCH  30  31
ATOM     31  C   UNL     1      -3.078   9.111   4.748  0.00  0.00    +0.541 C 
ATOM     32  F   UNL     1      -2.136  10.054   4.323  0.00  0.00    -0.166 F 
ATOM     33  F   UNL     1      -4.024   8.908   3.738  0.00  0.00    -0.166 F 
ENDBRANCH  30  31
ENDBRANCH  27  30
ENDBRANCH  22  24
ENDBRANCH  19  20
ENDBRANCH   1  19
TORSDOF 7
