REMARK  Name = ZINC20555713
REMARK  5 active torsions:
REMARK  status: ('A' for Active; 'I' for Inactive)
REMARK    1  A    between atoms: C_3  and  N_20
REMARK    2  A    between atoms: C_6  and  S_7
REMARK    3  A    between atoms: S_7  and  N_10
REMARK    4  A    between atoms: N_10  and  C_11
REMARK    5  A    between atoms: N_20  and  N_21
REMARK                            x       y       z     vdW  Elec       q    Type
REMARK                         _______ _______ _______ _____ _____    ______ ____
ROOT
ATOM      1  S   UNL     1       2.513  -0.381  -0.739  0.00  0.00    +0.093 S 
ATOM      2  O   UNL     1       3.836  -0.847  -0.510  0.00  0.00    -0.148 OA
ATOM      3  O   UNL     1       1.366  -1.116  -0.336  0.00  0.00    -0.148 OA
ENDROOT
BRANCH   1   9
ATOM      4  C   UNL     1       3.491   0.106  -3.251  0.00  0.00    +0.034 A 
ATOM      5  C   UNL     1       3.330   0.302  -4.611  0.00  0.00    +0.046 A 
ATOM      6  C   UNL     1       2.049   0.261  -5.152  0.00  0.00    +0.132 A 
ATOM      7  N   UNL     1       0.997   0.038  -4.380  0.00  0.00    -0.237 NA
ATOM      8  C   UNL     1       1.122  -0.158  -3.081  0.00  0.00    +0.141 A 
ATOM      9  C   UNL     1       2.363  -0.125  -2.476  0.00  0.00    +0.128 A 
BRANCH   6  10
ATOM     10  N   UNL     1       1.872   0.456  -6.517  0.00  0.00    -0.268 N 
ATOM     11  H   UNL     1       2.743   0.642  -7.164  0.00  0.00    +0.167 HD
BRANCH  10  12
ATOM     12  N   UNL     1       0.617   0.417  -7.056  0.00  0.00    -0.255 NA
ATOM     13  H   UNL     1       0.678   0.592  -8.140  0.00  0.00    +0.140 HD
ATOM     14  H   UNL     1       0.168  -0.569  -6.868  0.00  0.00    +0.140 HD
ENDBRANCH  10  12
ENDBRANCH   6  10
ENDBRANCH   1   9
BRANCH   1  15
ATOM     15  N   UNL     1       2.402   1.103  -0.014  0.00  0.00    -0.095 NA
BRANCH  15  16
ATOM     16  C   UNL     1       1.244   1.874  -0.170  0.00  0.00    +0.112 A 
ATOM     17  C   UNL     1       0.002   1.256  -0.236  0.00  0.00    +0.032 A 
ATOM     18  C   UNL     1      -1.141   2.017  -0.394  0.00  0.00    +0.043 A 
ATOM     19  C   UNL     1      -1.051   3.396  -0.476  0.00  0.00    +0.161 A 
ATOM     20  C   UNL     1       0.187   4.017  -0.411  0.00  0.00    +0.195 A 
ATOM     21  C   UNL     1       1.335   3.258  -0.257  0.00  0.00    +0.186 A 
ATOM     22  F   UNL     1       2.542   3.862  -0.193  0.00  0.00    -0.200 F 
ATOM     23  F   UNL     1       0.273   5.362  -0.497  0.00  0.00    -0.199 F 
ATOM     24  F   UNL     1      -2.171   4.137  -0.626  0.00  0.00    -0.202 F 
ENDBRANCH  15  16
ENDBRANCH   1  15
TORSDOF 5
