REMARK  Name = ZINC40267106
REMARK  6 active torsions:
REMARK  status: ('A' for Active; 'I' for Inactive)
REMARK    1  A    between atoms: C_1  and  C_2
REMARK    2  A    between atoms: C_2  and  C_4
REMARK    3  A    between atoms: C_2  and  N_8
REMARK    4  A    between atoms: C_4  and  O_6
REMARK    5  A    between atoms: O_6  and  C_7
REMARK    6  A    between atoms: C_20  and  C_22
REMARK                            x       y       z     vdW  Elec       q    Type
REMARK                         _______ _______ _______ _____ _____    ______ ____
ROOT
ATOM      1  N   UNL     1      -1.212  -0.348   2.399  0.00  0.00    -0.286 N 
ATOM      2  C   UNL     1       0.103  -0.638   2.355  0.00  0.00    +0.304 C 
ATOM      3  O   UNL     1       0.702  -0.591   1.298  0.00  0.00    -0.253 OA
ATOM      4  N   UNL     1       0.755  -0.982   3.484  0.00  0.00    -0.273 N 
ATOM      5  C   UNL     1       2.210  -1.196   3.478  0.00  0.00    +0.116 C 
ATOM      6  C   UNL     1       2.876  -0.139   4.367  0.00  0.00    +0.074 C 
ATOM      7  C   UNL     1       2.098  -0.024   5.652  0.00  0.00    +0.040 A 
ATOM      8  C   UNL     1       0.834  -0.466   5.830  0.00  0.00    +0.062 A 
ATOM      9  N   UNL     1       0.471  -0.192   7.085  0.00  0.00    -0.348 N 
ATOM     10  C   UNL     1       1.462   0.403   7.697  0.00  0.00    +0.171 A 
ATOM     11  N   UNL     1       2.497   0.524   6.833  0.00  0.00    -0.349 N 
ATOM     12  H   UNL     1       3.360   0.925   7.020  0.00  0.00    +0.166 HD
ATOM     13  C   UNL     1       0.027  -1.147   4.755  0.00  0.00    +0.156 C 
ATOM     14  H   UNL     1      -1.707  -0.461   3.225  0.00  0.00    +0.151 HD
ATOM     15  H   UNL     1      -0.390  -0.400   7.480  0.00  0.00    +0.167 HD
ENDROOT
BRANCH  13  16
ATOM     16  C   UNL     1      -0.116  -2.612   5.078  0.00  0.00    -0.020 A 
ATOM     17  C   UNL     1       1.008  -3.379   5.321  0.00  0.00    +0.009 A 
ATOM     18  C   UNL     1       0.879  -4.722   5.618  0.00  0.00    +0.040 A 
ATOM     19  C   UNL     1      -0.378  -5.301   5.672  0.00  0.00    +0.142 A 
ATOM     20  C   UNL     1      -1.504  -4.532   5.428  0.00  0.00    +0.076 A 
ATOM     21  C   UNL     1      -1.372  -3.186   5.137  0.00  0.00    +0.028 A 
ATOM     22 CL   UNL     1      -3.081  -5.255   5.496  0.00  0.00    -0.081 Cl
ATOM     23  F   UNL     1      -0.506  -6.614   5.961  0.00  0.00    -0.204 F 
ENDBRANCH  13  16
BRANCH   1  25
ATOM     24  C   UNL     1      -2.336  -1.053   0.344  0.00  0.00    +0.040 C 
ATOM     25  C   UNL     1      -1.895   0.138   1.197  0.00  0.00    +0.180 C 
BRANCH  25  26
ATOM     26  C   UNL     1      -3.104   0.944   1.598  0.00  0.00    +0.327 C 
ATOM     27  O   UNL     1      -3.368   1.097   2.767  0.00  0.00    -0.249 OA
BRANCH  26  28
ATOM     28  O   UNL     1      -3.887   1.493   0.655  0.00  0.00    -0.467 OA
ATOM     29  C   UNL     1      -5.016   2.244   1.107  0.00  0.00    +0.280 C 
ENDBRANCH  26  28
ENDBRANCH  25  26
ENDBRANCH   1  25
TORSDOF 4
