REMARK  Name = ZINC38904293
REMARK  5 active torsions:
REMARK  status: ('A' for Active; 'I' for Inactive)
REMARK    1  A    between atoms: C_3  and  C_8
REMARK    2  A    between atoms: C_10  and  C_13
REMARK    3  A    between atoms: C_13  and  N_14
REMARK    4  A    between atoms: C_18  and  C_21
REMARK    5  A    between atoms: N_23  and  C_24
REMARK                            x       y       z     vdW  Elec       q    Type
REMARK                         _______ _______ _______ _____ _____    ______ ____
ROOT
ATOM      1  N   UNL     1       7.751   2.296  -1.456  0.00  0.00    +0.386 N 
ATOM      2  C   UNL     1       7.186   1.111  -2.112  0.00  0.00    -0.078 C 
ATOM      3  C   UNL     1       7.605   1.088  -3.583  0.00  0.00    -0.018 C 
ATOM      4  C   UNL     1       9.133   1.042  -3.672  0.00  0.00    +0.009 C 
ATOM      5  C   UNL     1       9.715   2.243  -2.922  0.00  0.00    +0.059 C 
ATOM      6  C   UNL     1       9.217   2.223  -1.475  0.00  0.00    -0.065 C 
ATOM      7  H   UNL     1       7.450   3.125  -1.947  0.00  0.00    -0.081 HD
ENDROOT
BRANCH   5   8
ATOM      8  C   UNL     1      11.220   2.167  -2.938  0.00  0.00    +0.219 C 
ATOM      9  O   UNL     1      11.835   2.106  -1.895  0.00  0.00    -0.275 OA
ATOM     10  N   UNL     1      11.881   2.165  -4.113  0.00  0.00    -0.285 N 
ATOM     11  H   UNL     1      11.388   2.146  -4.947  0.00  0.00    +0.155 HD
BRANCH  10  12
ATOM     12  C   UNL     1      13.280   2.192  -4.127  0.00  0.00    +0.036 A 
ATOM     13  C   UNL     1      13.952   2.889  -5.123  0.00  0.00    +0.043 A 
ATOM     14  C   UNL     1      15.334   2.913  -5.135  0.00  0.00    +0.044 A 
ATOM     15  C   UNL     1      16.048   2.245  -4.156  0.00  0.00    +0.040 A 
ATOM     16  C   UNL     1      15.381   1.549  -3.163  0.00  0.00    +0.044 A 
ATOM     17  C   UNL     1      13.999   1.526  -3.143  0.00  0.00    +0.043 A 
ATOM     18 CL   UNL     1      16.280   0.711  -1.938  0.00  0.00    -0.083 Cl
ATOM     19 CL   UNL     1      16.175   3.784  -6.379  0.00  0.00    -0.083 Cl
ENDBRANCH  10  12
ENDBRANCH   5   8
BRANCH   1  20
ATOM     20  C   UNL     1       7.283   2.355  -0.066  0.00  0.00    +0.022 C 
BRANCH  20  23
ATOM     21  C   UNL     1       3.660   2.137  -0.022  0.00  0.00    +0.202 A 
ATOM     22  N   UNL     1       4.895   1.606  -0.039  0.00  0.00    -0.193 NA
ATOM     23  C   UNL     1       5.789   2.553  -0.047  0.00  0.00    +0.211 A 
ATOM     24  O   UNL     1       5.156   3.734  -0.034  0.00  0.00    -0.340 OA
ATOM     25  N   UNL     1       3.766   3.443  -0.023  0.00  0.00    -0.056 NA
BRANCH  21  28
ATOM     26  C   UNL     1      -0.012   1.329   0.013  0.00  0.00    +0.002 A 
ATOM     27  C   UNL     1       1.168   2.045   0.002  0.00  0.00    +0.012 A 
ATOM     28  C   UNL     1       2.388   1.372  -0.010  0.00  0.00    +0.023 A 
ATOM     29  C   UNL     1       2.410  -0.021  -0.010  0.00  0.00    +0.027 A 
ATOM     30  C   UNL     1       1.224  -0.728   0.001  0.00  0.00    +0.019 A 
ATOM     31  C   UNL     1       0.015  -0.054   0.012  0.00  0.00    +0.015 A 
ATOM     32 BR   UNL     1       1.252  -2.619  -0.001  0.00  0.00    -0.050 Br
ENDBRANCH  21  28
ENDBRANCH  20  23
ENDBRANCH   1  20
TORSDOF 5
