REMARK  Name = ZINC66165326
REMARK  12 active torsions:
REMARK  status: ('A' for Active; 'I' for Inactive)
REMARK    1  A    between atoms: C_1  and  C_2
REMARK    2  A    between atoms: C_2  and  C_3
REMARK    3  A    between atoms: C_3  and  C_4
REMARK    4  A    between atoms: C_4  and  C_5
REMARK    5  A    between atoms: C_5  and  C_6
REMARK    6  A    between atoms: C_6  and  O_7
REMARK    7  A    between atoms: O_7  and  C_8
REMARK    8  A    between atoms: C_11  and  N_14
REMARK    9  A    between atoms: N_14  and  C_15
REMARK   10  A    between atoms: C_15  and  C_16
REMARK   11  A    between atoms: C_16  and  O_17
REMARK   12  A    between atoms: O_17  and  C_18
REMARK                            x       y       z     vdW  Elec       q    Type
REMARK                         _______ _______ _______ _____ _____    ______ ____
ROOT
ATOM      1  C   UNL     1       2.324  -5.899   3.768  0.00  0.00    +0.121 A 
ATOM      2  C   UNL     1       1.781  -6.745   2.813  0.00  0.00    +0.047 A 
ATOM      3  C   UNL     1       1.891  -8.114   2.960  0.00  0.00    +0.026 A 
ATOM      4  C   UNL     1       2.545  -8.643   4.065  0.00  0.00    +0.027 A 
ATOM      5  C   UNL     1       3.088  -7.794   5.021  0.00  0.00    +0.026 A 
ATOM      6  C   UNL     1       2.982  -6.425   4.869  0.00  0.00    +0.047 A 
ENDROOT
BRANCH   4   7
ATOM      7  N   UNL     1       2.657 -10.029   4.216  0.00  0.00    -0.341 N 
ATOM      8  H   UNL     1       2.277 -10.622   3.548  0.00  0.00    +0.146 HD
BRANCH   7   9
ATOM      9  C   UNL     1       3.347 -10.586   5.382  0.00  0.00    +0.142 C 
BRANCH   9  10
ATOM     10  C   UNL     1       3.328 -12.114   5.304  0.00  0.00    +0.247 C 
BRANCH  10  11
ATOM     11  O   UNL     1       4.089 -12.543   4.173  0.00  0.00    -0.489 OA
BRANCH  11  12
ATOM     12  C   UNL     1       4.173 -13.883   3.958  0.00  0.00    +0.139 A 
ATOM     13  C   UNL     1       3.532 -14.765   4.815  0.00  0.00    +0.048 A 
ATOM     14  C   UNL     1       3.619 -16.127   4.595  0.00  0.00    +0.023 A 
ATOM     15  C   UNL     1       4.345 -16.610   3.521  0.00  0.00    +0.043 A 
ATOM     16  C   UNL     1       4.986 -15.733   2.665  0.00  0.00    +0.043 A 
ATOM     17  C   UNL     1       4.897 -14.370   2.878  0.00  0.00    +0.084 A 
ATOM     18 CL   UNL     1       5.695 -13.268   1.800  0.00  0.00    -0.080 Cl
ATOM     19 CL   UNL     1       4.453 -18.322   3.248  0.00  0.00    -0.083 Cl
ENDBRANCH  11  12
ENDBRANCH  10  11
ENDBRANCH   9  10
ENDBRANCH   7   9
ENDBRANCH   4   7
BRANCH   1  20
ATOM     20  O   UNL     1       2.215  -4.551   3.622  0.00  0.00    -0.492 OA
BRANCH  20  21
ATOM     21  C   UNL     1       1.524  -4.077   2.464  0.00  0.00    +0.229 C 
BRANCH  21  22
ATOM     22  C   UNL     1       1.503  -2.548   2.473  0.00  0.00    +0.041 C 
BRANCH  22  23
ATOM     23  C   UNL     1       0.763  -2.041   1.233  0.00  0.00    +0.003 C 
BRANCH  23  24
ATOM     24  C   UNL     1       0.742  -0.511   1.242  0.00  0.00    -0.000 C 
BRANCH  24  26
ATOM     25  C   UNL     1      -0.019   1.526   0.010  0.00  0.00    +0.004 C 
ATOM     26  C   UNL     1       0.002  -0.004   0.002  0.00  0.00    -0.003 C 
ENDBRANCH  24  26
ENDBRANCH  23  24
ENDBRANCH  22  23
ENDBRANCH  21  22
ENDBRANCH  20  21
ENDBRANCH   1  20
TORSDOF 11
