REMARK  Name = ZINC35163822
REMARK  8 active torsions:
REMARK  status: ('A' for Active; 'I' for Inactive)
REMARK    1  A    between atoms: C_3  and  N_22
REMARK    2  A    between atoms: C_9  and  N_11
REMARK    3  A    between atoms: C_12  and  C_14
REMARK    4  A    between atoms: C_14  and  S_15
REMARK    5  A    between atoms: S_15  and  C_16
REMARK    6  A    between atoms: C_23  and  C_25
REMARK    7  A    between atoms: C_25  and  S_26
REMARK    8  A    between atoms: S_26  and  C_27
REMARK                            x       y       z     vdW  Elec       q    Type
REMARK                         _______ _______ _______ _____ _____    ______ ____
ROOT
ATOM      1  C   UNL     1      -0.158   1.455  -0.388  0.00  0.00    +0.010 A 
ATOM      2  C   UNL     1       0.968   2.215  -0.381  0.00  0.00    +0.024 A 
ATOM      3  C   UNL     1       2.220   1.645  -0.122  0.00  0.00    +0.034 A 
ATOM      4  C   UNL     1       2.339   0.297   0.132  0.00  0.00    +0.032 A 
ATOM      5  C   UNL     1       1.190  -0.511   0.131  0.00  0.00    -0.014 A 
ATOM      6  C   UNL     1      -0.074   0.075  -0.132  0.00  0.00    -0.018 A 
ATOM      7  C   UNL     1      -1.225  -0.733  -0.133  0.00  0.00    +0.010 A 
ATOM      8  C   UNL     1      -1.119  -2.065   0.117  0.00  0.00    +0.024 A 
ATOM      9  C   UNL     1       0.125  -2.651   0.378  0.00  0.00    +0.034 A 
ATOM     10  C   UNL     1       1.272  -1.890   0.386  0.00  0.00    +0.032 A 
ENDROOT
BRANCH   9  11
ATOM     11  N   UNL     1       0.203  -4.024   0.633  0.00  0.00    -0.285 N 
ATOM     12  C   UNL     1      -0.644  -4.873   0.017  0.00  0.00    +0.227 C 
ATOM     13  O   UNL     1      -1.411  -4.459  -0.826  0.00  0.00    -0.275 OA
ATOM     14  H   UNL     1       0.867  -4.366   1.252  0.00  0.00    +0.155 HD
BRANCH  12  15
ATOM     15  C   UNL     1      -0.638  -6.337   0.377  0.00  0.00    +0.172 C 
BRANCH  15  16
ATOM     16  S   UNL     1      -1.881  -7.208  -0.616  0.00  0.00    -0.088 S 
BRANCH  16  17
ATOM     17  C   UNL     1      -1.752  -8.884  -0.085  0.00  0.00    +0.160 A 
ATOM     18  N   UNL     1      -0.956  -9.414   0.824  0.00  0.00    -0.133 NA
ATOM     19  N   UNL     1      -1.020 -10.763   1.087  0.00  0.00    -0.125 NA
ATOM     20  C   UNL     1      -1.878 -11.519   0.430  0.00  0.00    +0.180 A 
ATOM     21  S   UNL     1      -2.670 -10.317  -0.627  0.00  0.00    -0.025 S 
ATOM     22  N   UNL     1      -2.107 -12.886   0.535  0.00  0.00    -0.336 N 
ATOM     23  H   UNL     1      -1.595 -13.416   1.166  0.00  0.00    +0.144 HD
ATOM     24  H   UNL     1      -2.779 -13.309  -0.021  0.00  0.00    +0.144 HD
ENDBRANCH  16  17
ENDBRANCH  15  16
ENDBRANCH  12  15
ENDBRANCH   9  11
BRANCH   3  25
ATOM     25  N   UNL     1       3.362   2.453  -0.122  0.00  0.00    -0.285 N 
ATOM     26  C   UNL     1       3.297   3.712   0.355  0.00  0.00    +0.227 C 
ATOM     27  O   UNL     1       2.232   4.173   0.706  0.00  0.00    -0.275 OA
ATOM     28  H   UNL     1       4.201   2.107  -0.466  0.00  0.00    +0.155 HD
BRANCH  26  29
ATOM     29  C   UNL     1       4.549   4.546   0.453  0.00  0.00    +0.172 C 
BRANCH  29  30
ATOM     30  S   UNL     1       4.136   6.178   1.128  0.00  0.00    -0.088 S 
BRANCH  30  31
ATOM     31  C   UNL     1       5.682   7.021   1.180  0.00  0.00    +0.160 A 
ATOM     32  N   UNL     1       6.877   6.599   0.815  0.00  0.00    -0.133 NA
ATOM     33  N   UNL     1       7.965   7.431   0.941  0.00  0.00    -0.125 NA
ATOM     34  C   UNL     1       7.809   8.648   1.426  0.00  0.00    +0.180 A 
ATOM     35  S   UNL     1       6.049   8.680   1.732  0.00  0.00    -0.025 S 
ATOM     36  N   UNL     1       8.758   9.641   1.636  0.00  0.00    -0.336 N 
ATOM     37  H   UNL     1       9.688   9.478   1.414  0.00  0.00    +0.144 HD
ATOM     38  H   UNL     1       8.490  10.497   2.005  0.00  0.00    +0.144 HD
ENDBRANCH  30  31
ENDBRANCH  29  30
ENDBRANCH  26  29
ENDBRANCH   3  25
TORSDOF 8
