REMARK  Name = ZINC09410906
REMARK  13 active torsions:
REMARK  status: ('A' for Active; 'I' for Inactive)
REMARK    1  A    between atoms: C_1  and  C_2
REMARK    2  A    between atoms: C_3  and  C_26
REMARK    3  A    between atoms: C_4  and  C_8
REMARK    4  A    between atoms: C_11  and  O_15
REMARK    5  A    between atoms: C_13  and  O_14
REMARK    6  A    between atoms: O_15  and  C_16
REMARK    7  A    between atoms: C_16  and  C_17
REMARK    8  A    between atoms: C_17  and  N_67
REMARK    9  A    between atoms: C_20  and  C_23
REMARK   10  A    between atoms: C_29  and  O_34
REMARK   11  A    between atoms: C_30  and  O_32
REMARK   12  A    between atoms: O_32  and  C_33
REMARK   13  A    between atoms: O_34  and  C_35
REMARK                            x       y       z     vdW  Elec       q    Type
REMARK                         _______ _______ _______ _____ _____    ______ ____
ROOT
ATOM      1  C   UNL     1       0.769   0.556   0.574  0.00  0.00    +0.044 A 
ATOM      2  C   UNL     1       0.383  -0.777   0.697  0.00  0.00    +0.017 A 
ATOM      3  C   UNL     1       0.415  -1.608  -0.404  0.00  0.00    +0.046 A 
ATOM      4  C   UNL     1       0.831  -1.119  -1.636  0.00  0.00    +0.124 A 
ATOM      5  C   UNL     1       1.211   0.208  -1.768  0.00  0.00    +0.091 A 
ATOM      6  C   UNL     1       1.188   1.047  -0.667  0.00  0.00    +0.130 A 
ENDROOT
BRANCH   1  10
ATOM      7  C   UNL     1       1.470   2.406   5.264  0.00  0.00    +0.065 C 
ATOM      8  C   UNL     1       1.052   2.254   3.825  0.00  0.00    +0.041 A 
ATOM      9  C   UNL     1       1.299   1.178   3.026  0.00  0.00    +0.030 A 
ATOM     10  C   UNL     1       0.736   1.452   1.755  0.00  0.00    +0.104 A 
ATOM     11  N   UNL     1       0.174   2.639   1.811  0.00  0.00    -0.173 NA
ATOM     12  N   UNL     1       0.361   3.157   3.098  0.00  0.00    -0.281 N 
ATOM     13  H   UNL     1       0.038   4.046   3.424  0.00  0.00    +0.189 HD
BRANCH   9  14
ATOM     14  C   UNL     1       2.028  -0.054   3.416  0.00  0.00    -0.010 A 
ATOM     15  C   UNL     1       3.234  -0.378   2.797  0.00  0.00    +0.012 A 
ATOM     16  C   UNL     1       3.912  -1.524   3.160  0.00  0.00    +0.050 A 
ATOM     17  C   UNL     1       3.396  -2.356   4.142  0.00  0.00    +0.162 A 
ATOM     18  C   UNL     1       2.192  -2.038   4.764  0.00  0.00    +0.162 A 
ATOM     19  C   UNL     1       1.511  -0.887   4.407  0.00  0.00    +0.058 A 
BRANCH  18  20
ATOM     20  O   UNL     1       1.687  -2.855   5.727  0.00  0.00    -0.491 OA
ATOM     21  C   UNL     1       0.448  -2.467   6.323  0.00  0.00    +0.277 C 
ENDBRANCH  18  20
BRANCH  17  22
ATOM     22  O   UNL     1       4.066  -3.484   4.497  0.00  0.00    -0.491 OA
ATOM     23  C   UNL     1       5.296  -3.749   3.818  0.00  0.00    +0.277 C 
ENDBRANCH  17  22
ENDBRANCH   9  14
ENDBRANCH   1  10
BRANCH   6  24
ATOM     24  O   UNL     1       1.566   2.346  -0.794  0.00  0.00    -0.506 OA
ATOM     25  H   UNL     1       2.508   2.499  -0.638  0.00  0.00    +0.292 HD
ENDBRANCH   6  24
BRANCH   4  26
ATOM     26  O   UNL     1       0.859  -1.943  -2.716  0.00  0.00    -0.494 OA
BRANCH  26  27
ATOM     27  C   UNL     1       0.449  -3.296  -2.511  0.00  0.00    +0.210 C 
BRANCH  27  28
ATOM     28  C   UNL     1       0.548  -4.065  -3.831  0.00  0.00    -0.037 C 
BRANCH  28  34
ATOM     29  C   UNL     1       2.835  -4.568  -3.217  0.00  0.00    -0.078 C 
ATOM     30  C   UNL     1       4.291  -4.439  -3.669  0.00  0.00    -0.006 C 
ATOM     31  C   UNL     1       4.499  -5.261  -4.944  0.00  0.00    +0.071 C 
ATOM     32  C   UNL     1       3.528  -4.771  -6.022  0.00  0.00    -0.006 C 
ATOM     33  C   UNL     1       2.093  -4.890  -5.501  0.00  0.00    -0.078 C 
ATOM     34  N   UNL     1       1.953  -4.057  -4.288  0.00  0.00    +0.382 N 
ATOM     35  H   UNL     1       2.225  -3.093  -4.512  0.00  0.00    -0.082 HD
BRANCH  31  36
ATOM     36  C   UNL     1       5.916  -5.091  -5.428  0.00  0.00    +0.213 C 
ATOM     37  O   UNL     1       6.129  -4.623  -6.527  0.00  0.00    -0.276 OA
ATOM     38  N   UNL     1       6.946  -5.458  -4.640  0.00  0.00    -0.329 N 
ATOM     39  H   UNL     1       6.775  -5.832  -3.762  0.00  0.00    +0.145 HD
ATOM     40  H   UNL     1       7.858  -5.348  -4.952  0.00  0.00    +0.145 HD
ENDBRANCH  31  36
ENDBRANCH  28  34
ENDBRANCH  27  28
ENDBRANCH  26  27
ENDBRANCH   4  26
TORSDOF 10
