REMARK  Name = ZINC09374453
REMARK  5 active torsions:
REMARK  status: ('A' for Active; 'I' for Inactive)
REMARK    1  A    between atoms: C_1  and  O_2
REMARK    2  A    between atoms: O_2  and  C_3
REMARK    3  A    between atoms: C_8  and  N_9
REMARK    4  A    between atoms: C_24  and  C_30
REMARK    5  A    between atoms: C_30  and  C_32
REMARK                            x       y       z     vdW  Elec       q    Type
REMARK                         _______ _______ _______ _____ _____    ______ ____
ROOT
ATOM      1  N   UNL     1       0.921  -2.211  -0.701  0.00  0.00    -0.206 N 
ATOM      2  C   UNL     1       0.775  -3.057  -1.734  0.00  0.00    +0.232 C 
ATOM      3  O   UNL     1       0.482  -2.748  -2.869  0.00  0.00    -0.274 OA
ATOM      4  C   UNL     1       1.042  -4.462  -1.236  0.00  0.00    +0.113 C 
ATOM      5  C   UNL     1      -0.073  -5.409  -1.674  0.00  0.00    +0.100 C 
ATOM      6  C   UNL     1      -0.663  -5.002  -2.998  0.00  0.00    -0.021 A 
ATOM      7  C   UNL     1       0.094  -4.417  -3.975  0.00  0.00    +0.006 A 
ATOM      8  C   UNL     1      -0.487  -4.038  -5.174  0.00  0.00    +0.000 A 
ATOM      9  C   UNL     1      -1.840  -4.235  -5.386  0.00  0.00    +0.001 A 
ATOM     10  C   UNL     1      -2.622  -4.812  -4.406  0.00  0.00    +0.008 A 
ATOM     11  C   UNL     1      -2.045  -5.199  -3.196  0.00  0.00    -0.019 A 
ATOM     12  C   UNL     1      -2.871  -5.822  -2.142  0.00  0.00    +0.022 C 
ATOM     13  C   UNL     1      -2.407  -5.869  -0.878  0.00  0.00    +0.054 C 
ATOM     14  C   UNL     1      -0.674  -4.572   0.513  0.00  0.00    +0.141 C 
ATOM     15  C   UNL     1       0.829  -4.306   0.301  0.00  0.00    +0.116 C 
ATOM     16  C   UNL     1       1.074  -2.817   0.487  0.00  0.00    +0.232 C 
ATOM     17  O   UNL     1       1.360  -2.270   1.531  0.00  0.00    -0.274 OA
ATOM     18  N   UNL     1      -0.949  -5.608  -0.544  0.00  0.00    -0.384 NA
ATOM     19  H   UNL     1      -0.633  -6.492  -0.128  0.00  0.00    +0.127 HD
ENDROOT
BRANCH   1  25
ATOM     20  C   UNL     1       2.093  -0.130  -1.105  0.00  0.00    +0.142 A 
ATOM     21  C   UNL     1       2.074   1.248  -1.251  0.00  0.00    +0.047 A 
ATOM     22  C   UNL     1       0.882   1.939  -1.143  0.00  0.00    +0.004 A 
ATOM     23  C   UNL     1      -0.295   1.258  -0.889  0.00  0.00    +0.002 A 
ATOM     24  C   UNL     1      -0.285  -0.116  -0.742  0.00  0.00    +0.027 A 
ATOM     25  C   UNL     1       0.908  -0.816  -0.850  0.00  0.00    +0.085 A 
BRANCH  20  27
ATOM     26  C   UNL     1       4.417  -0.061  -1.601  0.00  0.00    +0.277 C 
ATOM     27  O   UNL     1       3.265  -0.811  -1.212  0.00  0.00    -0.493 OA
ENDBRANCH  20  27
ENDBRANCH   1  25
BRANCH  14  28
ATOM     28  C   UNL     1      -1.416  -3.263   0.609  0.00  0.00    +0.183 C 
ATOM     29  O   UNL     1      -1.943  -2.792  -0.377  0.00  0.00    -0.290 OA
BRANCH  28  30
ATOM     30  C   UNL     1      -1.500  -2.558   1.897  0.00  0.00    +0.019 A 
ATOM     31  C   UNL     1      -0.976  -3.143   3.054  0.00  0.00    +0.013 A 
ATOM     32  C   UNL     1      -1.054  -2.473   4.256  0.00  0.00    +0.020 A 
ATOM     33  C   UNL     1      -1.660  -1.229   4.322  0.00  0.00    +0.041 A 
ATOM     34  C   UNL     1      -2.186  -0.646   3.181  0.00  0.00    +0.020 A 
ATOM     35  C   UNL     1      -2.111  -1.301   1.971  0.00  0.00    +0.013 A 
ATOM     36 CL   UNL     1      -1.760  -0.397   5.843  0.00  0.00    -0.084 Cl
ENDBRANCH  28  30
ENDBRANCH  14  28
TORSDOF 4
