REMARK  Name = ZINC12978961
REMARK  12 active torsions:
REMARK  status: ('A' for Active; 'I' for Inactive)
REMARK    1  A    between atoms: C_1  and  C_2
REMARK    2  A    between atoms: C_2  and  C_4
REMARK    3  A    between atoms: C_2  and  N_58
REMARK    4  A    between atoms: N_6  and  C_7
REMARK    5  A    between atoms: N_6  and  C_8
REMARK    6  A    between atoms: C_8  and  C_14
REMARK    7  A    between atoms: C_16  and  N_58
REMARK    8  A    between atoms: C_17  and  C_18
REMARK    9  A    between atoms: C_17  and  N_58
REMARK   10  A    between atoms: N_20  and  C_21
REMARK   11  A    between atoms: C_24  and  O_27
REMARK   12  A    between atoms: O_27  and  C_28
REMARK                            x       y       z     vdW  Elec       q    Type
REMARK                         _______ _______ _______ _____ _____    ______ ____
ROOT
ATOM      1  C   UNL     1       4.625  -4.372  -1.698  0.00  0.00    -0.094 C 
ATOM      2  N   UNL     1       3.921  -4.697  -0.439  0.00  0.00    +0.391 N 
ATOM      3  H   UNL     1       4.431  -4.278   0.346  0.00  0.00    -0.080 HD
ENDROOT
BRANCH   2   5
ATOM      4  C   UNL     1       3.093  -6.474   1.028  0.00  0.00    -0.004 C 
ATOM      5  C   UNL     1       3.871  -6.162  -0.252  0.00  0.00    +0.017 C 
BRANCH   5   6
ATOM      6  C   UNL     1       5.278  -6.686  -0.125  0.00  0.00    +0.203 C 
ATOM      7  O   UNL     1       6.166  -5.953   0.254  0.00  0.00    -0.277 OA
ATOM      8  N   UNL     1       5.549  -7.970  -0.433  0.00  0.00    -0.287 N 
ATOM      9  C   UNL     1       4.499  -8.828  -0.989  0.00  0.00    +0.133 C 
BRANCH   8  10
ATOM     10  C   UNL     1       6.894  -8.508  -0.213  0.00  0.00    +0.123 C 
ATOM     11  C   UNL     1       7.905  -7.708  -1.038  0.00  0.00    +0.041 C 
ATOM     12  C   UNL     1       9.309  -8.270  -0.808  0.00  0.00    +0.003 C 
ATOM     13  C   UNL     1       9.348  -9.738  -1.237  0.00  0.00    +0.000 C 
ATOM     14  C   UNL     1       8.338 -10.537  -0.412  0.00  0.00    +0.003 C 
ATOM     15  C   UNL     1       6.933  -9.976  -0.643  0.00  0.00    +0.041 C 
BRANCH  10  16
ATOM     16  C   UNL     1       7.236  -8.405   1.215  0.00  0.00    +0.089 C 
ATOM     17  N   UNL     1       7.499  -8.326   2.317  0.00  0.00    -0.194 NA
ENDBRANCH  10  16
ENDBRANCH   8  10
ENDBRANCH   5   6
ENDBRANCH   2   5
BRANCH   2  18
ATOM     18  C   UNL     1       2.550  -4.145  -0.470  0.00  0.00    +0.020 C 
BRANCH  18  19
ATOM     19  C   UNL     1       2.631  -2.640  -0.440  0.00  0.00    +0.201 C 
ATOM     20  O   UNL     1       3.713  -2.092  -0.413  0.00  0.00    -0.278 OA
ATOM     21  N   UNL     1       1.503  -1.904  -0.442  0.00  0.00    -0.287 N 
ATOM     22  H   UNL     1       0.638  -2.342  -0.399  0.00  0.00    +0.155 HD
BRANCH  21  23
ATOM     23  C   UNL     1       1.578  -0.507  -0.508  0.00  0.00    +0.034 A 
ATOM     24  C   UNL     1       0.615   0.209  -1.207  0.00  0.00    +0.027 A 
ATOM     25  C   UNL     1       0.689   1.586  -1.270  0.00  0.00    +0.048 A 
ATOM     26  C   UNL     1       1.726   2.255  -0.637  0.00  0.00    +0.130 A 
ATOM     27  C   UNL     1       2.688   1.541   0.062  0.00  0.00    +0.048 A 
ATOM     28  C   UNL     1       2.615   0.164   0.126  0.00  0.00    +0.027 A 
BRANCH  26  29
ATOM     29  O   UNL     1       1.798   3.611  -0.700  0.00  0.00    -0.406 OA
BRANCH  29  30
ATOM     30  C   UNL     1       2.893   4.235  -0.025  0.00  0.00    +0.575 C 
ATOM     31  F   UNL     1       4.098   3.768  -0.559  0.00  0.00    -0.133 F 
ATOM     32  F   UNL     1       2.814   5.622  -0.191  0.00  0.00    -0.133 F 
ATOM     33  F   UNL     1       2.836   3.925   1.339  0.00  0.00    -0.133 F 
ENDBRANCH  29  30
ENDBRANCH  26  29
ENDBRANCH  21  23
ENDBRANCH  18  19
ENDBRANCH   2  18
TORSDOF 9
