REMARK  Name = ZINC36511199
REMARK  20 active torsions:
REMARK  status: ('A' for Active; 'I' for Inactive)
REMARK    1  A    between atoms: C_1  and  C_2
REMARK    2  A    between atoms: C_2  and  C_3
REMARK    3  A    between atoms: C_3  and  C_4
REMARK    4  A    between atoms: C_4  and  C_5
REMARK    5  A    between atoms: C_5  and  C_6
REMARK    6  A    between atoms: C_6  and  N_7
REMARK    7  A    between atoms: N_7  and  C_8
REMARK    8  A    between atoms: C_8  and  C_10
REMARK    9  A    between atoms: C_8  and  C_19
REMARK   10  A    between atoms: C_13  and  N_16
REMARK   11  A    between atoms: N_16  and  C_17
REMARK   12  A    between atoms: N_16  and  C_18
REMARK   13  A    between atoms: N_21  and  C_22
REMARK   14  A    between atoms: C_22  and  C_23
REMARK   15  A    between atoms: C_22  and  C_24
REMARK   16  A    between atoms: C_22  and  C_25
REMARK   17  A    between atoms: C_26  and  C_28
REMARK   18  A    between atoms: C_28  and  C_30
REMARK   19  A    between atoms: C_28  and  C_32
REMARK   20  A    between atoms: C_30  and  C_31
REMARK                            x       y       z     vdW  Elec       q    Type
REMARK                         _______ _______ _______ _____ _____    ______ ____
ROOT
ATOM      1  N   UNL     1      -4.148  -4.639   0.483  0.00  0.00    -0.285 N 
ATOM      2  C   UNL     1      -5.029  -4.174   1.391  0.00  0.00    +0.224 C 
ATOM      3  O   UNL     1      -6.213  -4.147   1.128  0.00  0.00    -0.275 OA
ENDROOT
BRANCH   1   4
ATOM      4  C   UNL     1      -2.716  -4.650   0.790  0.00  0.00    +0.109 C 
BRANCH   4   5
ATOM      5  C   UNL     1      -2.122  -3.269   0.502  0.00  0.00    +0.019 C 
BRANCH   5   6
ATOM      6  C   UNL     1      -0.602  -3.323   0.671  0.00  0.00    +0.002 C 
BRANCH   6   7
ATOM      7  C   UNL     1      -0.008  -1.942   0.382  0.00  0.00    -0.000 C 
BRANCH   7   9
ATOM      8  C   UNL     1       2.106  -0.615   0.263  0.00  0.00    +0.004 C 
ATOM      9  C   UNL     1       1.512  -1.996   0.551  0.00  0.00    -0.003 C 
ENDBRANCH   7   9
ENDBRANCH   6   7
ENDBRANCH   5   6
ENDBRANCH   4   5
ENDBRANCH   1   4
BRANCH   1  10
ATOM     10  C   UNL     1      -4.622  -5.134  -0.812  0.00  0.00    +0.192 C 
BRANCH  10  11
ATOM     11  C   UNL     1      -5.080  -6.562  -0.667  0.00  0.00    -0.018 A 
ATOM     12  C   UNL     1      -4.349  -7.445   0.107  0.00  0.00    +0.008 A 
ATOM     13  C   UNL     1      -4.765  -8.755   0.243  0.00  0.00    +0.023 A 
ATOM     14  C   UNL     1      -5.919  -9.186  -0.400  0.00  0.00    +0.029 A 
ATOM     15  C   UNL     1      -6.650  -8.296  -1.177  0.00  0.00    +0.023 A 
ATOM     16  C   UNL     1      -6.232  -6.986  -1.303  0.00  0.00    +0.008 A 
BRANCH  14  17
ATOM     17  N   UNL     1      -6.342 -10.510  -0.266  0.00  0.00    -0.336 N 
ATOM     18  C   UNL     1      -5.657 -11.407   0.669  0.00  0.00    +0.129 C 
ATOM     19  C   UNL     1      -7.471 -11.002  -1.059  0.00  0.00    +0.129 C 
ENDBRANCH  14  17
ENDBRANCH  10  11
BRANCH  10  20
ATOM     20  C   UNL     1      -3.502  -5.065  -1.818  0.00  0.00    +0.238 C 
ATOM     21  O   UNL     1      -2.401  -4.690  -1.474  0.00  0.00    -0.273 OA
ATOM     22  N   UNL     1      -3.724  -5.418  -3.099  0.00  0.00    -0.309 N 
ATOM     23  H   UNL     1      -4.605  -5.718  -3.374  0.00  0.00    +0.149 HD
BRANCH  22  24
ATOM     24  C   UNL     1      -2.635  -5.351  -4.077  0.00  0.00    +0.026 C 
ATOM     25  C   UNL     1      -1.494  -6.268  -3.632  0.00  0.00    +0.031 C 
ATOM     26  C   UNL     1      -3.150  -5.803  -5.445  0.00  0.00    +0.031 C 
ATOM     27  C   UNL     1      -2.125  -3.912  -4.174  0.00  0.00    +0.031 C 
ENDBRANCH  22  24
ENDBRANCH  10  20
ENDBRANCH   1  10
BRANCH   2  28
ATOM     28  C   UNL     1      -4.543  -3.688   2.732  0.00  0.00    +0.105 C 
BRANCH  28  29
ATOM     29  C   UNL     1      -4.331  -2.197   2.679  0.00  0.00    -0.036 A 
ATOM     30  C   UNL     1      -5.391  -1.358   2.389  0.00  0.00    +0.004 A 
ATOM     31  C   UNL     1      -5.196   0.010   2.340  0.00  0.00    +0.000 A 
ATOM     32  C   UNL     1      -3.942   0.539   2.582  0.00  0.00    +0.000 A 
ATOM     33  C   UNL     1      -2.883  -0.300   2.873  0.00  0.00    +0.000 A 
ATOM     34  C   UNL     1      -3.078  -1.667   2.926  0.00  0.00    +0.004 A 
ENDBRANCH  28  29
BRANCH  28  35
ATOM     35  C   UNL     1      -5.585  -4.017   3.802  0.00  0.00    +0.014 C 
ATOM     36  C   UNL     1      -5.788  -5.532   3.867  0.00  0.00    +0.005 C 
ENDBRANCH  28  35
ENDBRANCH   2  28
TORSDOF 13
