REMARK  Name = ZINC39218204
REMARK  4 active torsions:
REMARK  status: ('A' for Active; 'I' for Inactive)
REMARK    1  A    between atoms: C_5  and  C_7
REMARK    2  A    between atoms: C_7  and  O_8
REMARK    3  A    between atoms: O_8  and  C_9
REMARK    4  A    between atoms: C_12  and  C_15
REMARK                            x       y       z     vdW  Elec       q    Type
REMARK                         _______ _______ _______ _____ _____    ______ ____
ROOT
ATOM      1  C   UNL     1      -0.776  -8.274  -0.037  0.00  0.00    +0.049 C 
ATOM      2  C   UNL     1      -1.554  -8.705   1.213  0.00  0.00    +0.130 C 
ATOM      3  C   UNL     1      -2.954  -8.136   1.141  0.00  0.00    +0.313 C 
ATOM      4  O   UNL     1      -3.439  -7.551   2.080  0.00  0.00    -0.250 OA
ATOM      5  O   UNL     1      -3.648  -8.303  -0.015  0.00  0.00    -0.429 OA
ATOM      6  C   UNL     1      -2.945  -8.072  -1.131  0.00  0.00    +0.130 C 
ATOM      7  C   UNL     1      -3.413  -7.280  -2.168  0.00  0.00    +0.035 A 
ATOM      8  C   UNL     1      -4.704  -6.711  -2.131  0.00  0.00    +0.013 A 
ATOM      9  C   UNL     1      -5.134  -5.954  -3.176  0.00  0.00    +0.001 A 
ATOM     10  C   UNL     1      -4.325  -5.725  -4.286  0.00  0.00    +0.002 A 
ATOM     11  C   UNL     1      -3.067  -6.239  -4.376  0.00  0.00    +0.024 A 
ATOM     12  C   UNL     1      -2.553  -7.027  -3.332  0.00  0.00    +0.044 A 
ATOM     13  N   UNL     1      -1.310  -7.515  -3.412  0.00  0.00    -0.284 N 
ATOM     14  C   UNL     1      -0.766  -8.294  -2.496  0.00  0.00    +0.228 C 
ATOM     15  O   UNL     1       0.376  -8.692  -2.632  0.00  0.00    -0.275 OA
ATOM     16  C   UNL     1      -1.565  -8.691  -1.281  0.00  0.00    +0.150 C 
ATOM     17  H   UNL     1      -0.776  -7.282  -4.188  0.00  0.00    +0.155 HD
ENDROOT
BRANCH   1  21
ATOM     18  C   UNL     1      -0.273  -4.030  -0.018  0.00  0.00    +0.121 A 
ATOM     19  C   UNL     1       0.838  -4.861  -0.028  0.00  0.00    +0.046 A 
ATOM     20  C   UNL     1       0.672  -6.233  -0.033  0.00  0.00    +0.007 A 
ATOM     21  C   UNL     1      -0.599  -6.777  -0.030  0.00  0.00    -0.042 A 
ATOM     22  C   UNL     1      -1.707  -5.951  -0.021  0.00  0.00    +0.007 A 
ATOM     23  C   UNL     1      -1.547  -4.579  -0.009  0.00  0.00    +0.046 A 
BRANCH  18  24
ATOM     24  O   UNL     1      -0.113  -2.680  -0.012  0.00  0.00    -0.487 OA
BRANCH  24  25
ATOM     25  C   UNL     1       1.228  -2.186  -0.022  0.00  0.00    +0.267 C 
BRANCH  25  30
ATOM     26  C   UNL     1      -0.017   1.378   0.010  0.00  0.00    +0.001 A 
ATOM     27  C   UNL     1       1.171   2.087   0.002  0.00  0.00    +0.003 A 
ATOM     28  C   UNL     1       2.377   1.414  -0.013  0.00  0.00    +0.039 A 
ATOM     29  C   UNL     1       2.397   0.029  -0.021  0.00  0.00    +0.130 A 
ATOM     30  C   UNL     1       1.208  -0.679  -0.013  0.00  0.00    +0.025 A 
ATOM     31  C   UNL     1       0.002  -0.004   0.002  0.00  0.00    +0.010 A 
ATOM     32  F   UNL     1       3.577  -0.630  -0.036  0.00  0.00    -0.205 F 
ENDBRANCH  25  30
ENDBRANCH  24  25
ENDBRANCH  18  24
ENDBRANCH   1  21
TORSDOF 4
