REMARK  Name = ZINC08387608
REMARK  4 active torsions:
REMARK  status: ('A' for Active; 'I' for Inactive)
REMARK    1  A    between atoms: C_6  and  C_7
REMARK    2  A    between atoms: C_10  and  C_33
REMARK    3  A    between atoms: C_15  and  C_17
REMARK    4  A    between atoms: N_22  and  C_25
REMARK                            x       y       z     vdW  Elec       q    Type
REMARK                         _______ _______ _______ _____ _____    ______ ____
ROOT
ATOM      1  C   UNL     1      -1.570  -0.992  -0.051  0.00  0.00    +0.104 C 
ATOM      2  C   UNL     1      -2.175  -1.679  -1.280  0.00  0.00    +0.063 C 
ATOM      3  C   UNL     1      -1.119  -2.559  -1.959  0.00  0.00    +0.215 C 
ATOM      4  N   UNL     1      -0.491  -3.413  -0.946  0.00  0.00    -0.238 N 
ATOM      5  C   UNL     1      -0.531  -3.152   0.395  0.00  0.00    +0.119 A 
ATOM      6  C   UNL     1       0.138  -4.133   1.033  0.00  0.00    +0.078 A 
ATOM      7  C   UNL     1       0.612  -5.034   0.052  0.00  0.00    +0.149 A 
ATOM      8  N   UNL     1       0.229  -4.592  -1.133  0.00  0.00    -0.164 NA
ATOM      9  N   UNL     1      -1.179  -2.028   0.925  0.00  0.00    -0.322 N 
ATOM     10  H   UNL     1      -1.361  -1.936   1.873  0.00  0.00    +0.148 HD
ENDROOT
BRANCH   7  11
ATOM     11  C   UNL     1       1.398  -6.258   0.308  0.00  0.00    +0.267 C 
ATOM     12  O   UNL     1       1.586  -6.633   1.449  0.00  0.00    -0.268 OA
ATOM     13  N   UNL     1       1.908  -6.959  -0.724  0.00  0.00    -0.293 N 
ATOM     14  C   UNL     1       1.832  -6.435  -2.095  0.00  0.00    +0.127 C 
ATOM     15  C   UNL     1       3.248  -6.391  -2.682  0.00  0.00    +0.124 C 
ATOM     16  N   UNL     1       3.890  -7.694  -2.456  0.00  0.00    -0.327 N 
ATOM     17  C   UNL     1       3.966  -8.219  -1.086  0.00  0.00    +0.124 C 
ATOM     18  C   UNL     1       2.555  -8.259  -0.498  0.00  0.00    +0.127 C 
BRANCH  16  19
ATOM     19  C   UNL     1       4.419  -8.421  -3.527  0.00  0.00    +0.030 A 
ATOM     20  C   UNL     1       4.857  -9.725  -3.333  0.00  0.00    +0.026 A 
ATOM     21  C   UNL     1       5.378 -10.442  -4.392  0.00  0.00    +0.040 A 
ATOM     22  C   UNL     1       5.465  -9.862  -5.646  0.00  0.00    +0.124 A 
ATOM     23  C   UNL     1       5.030  -8.562  -5.842  0.00  0.00    +0.040 A 
ATOM     24  C   UNL     1       4.503  -7.843  -4.787  0.00  0.00    +0.026 A 
ATOM     25  F   UNL     1       5.976 -10.565  -6.681  0.00  0.00    -0.205 F 
ENDBRANCH  16  19
ENDBRANCH   7  11
BRANCH   1  31
ATOM     26  C   UNL     1      -0.453   1.170  -0.634  0.00  0.00    +0.007 A 
ATOM     27  C   UNL     1       0.660   1.899  -1.008  0.00  0.00    +0.020 A 
ATOM     28  C   UNL     1       1.870   1.260  -1.209  0.00  0.00    +0.041 A 
ATOM     29  C   UNL     1       1.966  -0.109  -1.035  0.00  0.00    +0.020 A 
ATOM     30  C   UNL     1       0.852  -0.837  -0.660  0.00  0.00    +0.007 A 
ATOM     31  C   UNL     1      -0.357  -0.198  -0.460  0.00  0.00    -0.027 A 
ATOM     32 CL   UNL     1       3.268   2.175  -1.680  0.00  0.00    -0.084 Cl
ENDBRANCH   1  31
BRANCH   3  33
ATOM     33  C   UNL     1      -1.785  -3.430  -3.025  0.00  0.00    +0.412 C 
ATOM     34  F   UNL     1      -2.393  -2.612  -3.983  0.00  0.00    -0.168 F 
ATOM     35  F   UNL     1      -0.820  -4.233  -3.642  0.00  0.00    -0.168 F 
ATOM     36  F   UNL     1      -2.753  -4.243  -2.425  0.00  0.00    -0.168 F 
ENDBRANCH   3  33
TORSDOF 4
