REMARK  Name = ZINC40563842
REMARK  6 active torsions:
REMARK  status: ('A' for Active; 'I' for Inactive)
REMARK    1  A    between atoms: C_1  and  C_2
REMARK    2  A    between atoms: C_2  and  C_3
REMARK    3  A    between atoms: C_3  and  C_5
REMARK    4  A    between atoms: C_3  and  C_6
REMARK    5  A    between atoms: C_9  and  C_12
REMARK    6  A    between atoms: C_18  and  C_20
REMARK                            x       y       z     vdW  Elec       q    Type
REMARK                         _______ _______ _______ _____ _____    ______ ____
ROOT
ATOM      1  C   UNL     1       0.388  -6.240  -1.527  0.00  0.00    +0.080 A 
ATOM      2  C   UNL     1      -0.211  -6.848  -2.596  0.00  0.00    +0.076 A 
ATOM      3  S   UNL     1      -0.022  -8.568  -2.148  0.00  0.00    -0.060 S 
ATOM      4  C   UNL     1       0.827  -8.303  -0.598  0.00  0.00    +0.165 A 
ATOM      5  N   UNL     1       0.896  -6.986  -0.557  0.00  0.00    -0.225 NA
ATOM      6  N   UNL     1       1.294  -9.236   0.319  0.00  0.00    -0.261 N 
ATOM      7  C   UNL     1       1.126 -10.553   0.085  0.00  0.00    +0.250 C 
ATOM      8  O   UNL     1       0.565 -10.924  -0.928  0.00  0.00    -0.270 OA
ATOM      9  H   UNL     1       1.741  -8.940   1.127  0.00  0.00    +0.157 HD
ENDROOT
BRANCH   7  10
ATOM     10  C   UNL     1       1.622 -11.544   1.060  0.00  0.00    +0.039 A 
ATOM     11  C   UNL     1       2.263 -11.118   2.228  0.00  0.00    +0.015 A 
ATOM     12  C   UNL     1       2.726 -12.041   3.136  0.00  0.00    +0.028 A 
ATOM     13  C   UNL     1       2.561 -13.404   2.899  0.00  0.00    +0.066 A 
ATOM     14  C   UNL     1       1.922 -13.837   1.733  0.00  0.00    +0.066 A 
ATOM     15  C   UNL     1       1.449 -12.907   0.819  0.00  0.00    +0.040 A 
ATOM     16  N   UNL     1       1.750 -15.196   1.482  0.00  0.00    -0.316 N 
ATOM     17  H   UNL     1       1.306 -15.487   0.670  0.00  0.00    +0.169 HD
ATOM     18  C   UNL     1       2.201 -16.108   2.367  0.00  0.00    +0.314 A 
ATOM     19  O   UNL     1       2.054 -17.295   2.154  0.00  0.00    -0.262 OA
ATOM     20  C   UNL     1       2.882 -15.644   3.611  0.00  0.00    +0.314 A 
ATOM     21  O   UNL     1       3.295 -16.449   4.420  0.00  0.00    -0.262 OA
ATOM     22  N   UNL     1       3.035 -14.322   3.826  0.00  0.00    -0.316 N 
ATOM     23  H   UNL     1       3.477 -14.012   4.632  0.00  0.00    +0.169 HD
ENDBRANCH   7  10
BRANCH   1  27
ATOM     24  C   UNL     1       0.632  -2.000  -1.327  0.00  0.00    -0.045 A 
ATOM     25  C   UNL     1       1.164  -2.770  -0.309  0.00  0.00    +0.004 A 
ATOM     26  C   UNL     1       1.088  -4.146  -0.368  0.00  0.00    +0.010 A 
ATOM     27  C   UNL     1       0.472  -4.761  -1.457  0.00  0.00    +0.001 A 
ATOM     28  C   UNL     1      -0.063  -3.981  -2.480  0.00  0.00    +0.010 A 
ATOM     29  C   UNL     1       0.015  -2.605  -2.408  0.00  0.00    +0.004 A 
BRANCH  24  30
ATOM     30  C   UNL     1       0.718  -0.497  -1.257  0.00  0.00    +0.016 C 
ATOM     31  C   UNL     1       2.187  -0.073  -1.207  0.00  0.00    +0.012 C 
BRANCH  30  33
ATOM     32  C   UNL     1      -0.019   1.526   0.010  0.00  0.00    +0.004 C 
ATOM     33  C   UNL     1       0.002  -0.004   0.002  0.00  0.00    +0.004 C 
ENDBRANCH  30  33
ENDBRANCH  24  30
ENDBRANCH   1  27
TORSDOF 4
