REMARK  Name = ZINC20817817
REMARK  6 active torsions:
REMARK  status: ('A' for Active; 'I' for Inactive)
REMARK    1  A    between atoms: C_1  and  C_2
REMARK    2  A    between atoms: C_2  and  C_17
REMARK    3  A    between atoms: N_3  and  N_4
REMARK    4  A    between atoms: C_5  and  C_7
REMARK    5  A    between atoms: C_9  and  N_15
REMARK    6  A    between atoms: C_20  and  N_23
REMARK                            x       y       z     vdW  Elec       q    Type
REMARK                         _______ _______ _______ _____ _____    ______ ____
ROOT
ATOM      1  N   UNL     1       4.935  -2.661  -0.062  0.00  0.00    -0.201 N 
ATOM      2  C   UNL     1       4.955  -4.008  -0.071  0.00  0.00    +0.283 C 
ATOM      3  O   UNL     1       3.912  -4.632  -0.064  0.00  0.00    -0.267 OA
ATOM      4  H   UNL     1       5.879  -2.096  -0.069  0.00  0.00    +0.178 HD
ENDROOT
BRANCH   2   5
ATOM      5  C   UNL     1       6.248  -4.729  -0.088  0.00  0.00    +0.149 A 
ATOM      6  C   UNL     1       6.261  -6.121  -0.091  0.00  0.00    +0.094 A 
ATOM      7  C   UNL     1       7.488  -6.785  -0.112  0.00  0.00    +0.067 A 
ATOM      8  C   UNL     1       8.654  -6.021  -0.119  0.00  0.00    +0.100 A 
ATOM      9  C   UNL     1       8.558  -4.638  -0.110  0.00  0.00    +0.150 A 
ATOM     10  N   UNL     1       7.385  -4.040  -0.095  0.00  0.00    -0.228 NA
ATOM     11 CL   UNL     1      10.006  -3.680  -0.119  0.00  0.00    -0.060 Cl
ATOM     12 CL   UNL     1      10.209  -6.792  -0.138  0.00  0.00    -0.078 Cl
ATOM     13 CL   UNL     1       4.774  -7.017  -0.074  0.00  0.00    -0.079 Cl
BRANCH   7  14
ATOM     14  N   UNL     1       7.547  -8.177  -0.120  0.00  0.00    -0.356 N 
ATOM     15  H   UNL     1       8.522  -8.686  -0.137  0.00  0.00    +0.142 HD
ATOM     16  H   UNL     1       6.618  -8.766  -0.109  0.00  0.00    +0.142 HD
ENDBRANCH   7  14
ENDBRANCH   2   5
BRANCH   1  19
ATOM     17  C   UNL     1       4.985   0.092  -0.046  0.00  0.00    +0.068 C 
ATOM     18  C   UNL     1       3.692  -0.681  -0.038  0.00  0.00    +0.063 C 
ATOM     19  N   UNL     1       3.711  -1.979  -0.046  0.00  0.00    -0.184 NA
BRANCH  18  20
ATOM     20  C   UNL     1       2.404   0.037  -0.021  0.00  0.00    -0.002 A 
ATOM     21  C   UNL     1       1.203  -0.678  -0.013  0.00  0.00    +0.012 A 
ATOM     22  C   UNL     1       0.002  -0.004   0.002  0.00  0.00    +0.028 A 
ATOM     23  C   UNL     1      -0.017   1.386   0.010  0.00  0.00    +0.067 A 
ATOM     24  C   UNL     1       1.175   2.101   0.002  0.00  0.00    +0.028 A 
ATOM     25  C   UNL     1       2.381   1.434  -0.013  0.00  0.00    +0.012 A 
BRANCH  23  26
ATOM     26  N   UNL     1      -1.240   2.067   0.019  0.00  0.00    -0.220 N 
ATOM     27  C   UNL     1      -1.421   3.403   0.033  0.00  0.00    +0.225 A 
ATOM     28  N   UNL     1      -2.708   3.637   0.036  0.00  0.00    -0.222 NA
ATOM     29  C   UNL     1      -3.378   2.485   0.033  0.00  0.00    +0.245 A 
ATOM     30  N   UNL     1      -2.523   1.496   0.023  0.00  0.00    -0.154 NA
ENDBRANCH  23  26
ENDBRANCH  18  20
ENDBRANCH   1  19
TORSDOF 5
