REMARK  Name = ZINC14983249
REMARK  8 active torsions:
REMARK  status: ('A' for Active; 'I' for Inactive)
REMARK    1  A    between atoms: C_3  and  C_11
REMARK    2  A    between atoms: C_5  and  C_7
REMARK    3  A    between atoms: N_13  and  C_14
REMARK    4  A    between atoms: C_18  and  N_20
REMARK    5  A    between atoms: C_23  and  N_57
REMARK    6  A    between atoms: C_26  and  C_27
REMARK    7  A    between atoms: C_26  and  N_57
REMARK    8  A    between atoms: C_27  and  C_28
REMARK                            x       y       z     vdW  Elec       q    Type
REMARK                         _______ _______ _______ _____ _____    ______ ____
ROOT
ATOM      1  C   UNL     1       1.120   7.407   0.120  0.00  0.00    +0.035 A 
ATOM      2  C   UNL     1      -0.065   8.125   0.230  0.00  0.00    +0.023 A 
ATOM      3  C   UNL     1      -0.033   9.502   0.333  0.00  0.00    +0.004 A 
ATOM      4  C   UNL     1       1.176  10.171   0.317  0.00  0.00    +0.023 A 
ATOM      5  C   UNL     1       2.364   9.460   0.202  0.00  0.00    +0.031 A 
ATOM      6  C   UNL     1       2.336   8.076   0.104  0.00  0.00    +0.046 A 
ENDROOT
BRANCH   5   7
ATOM      7  N   UNL     1       3.585  10.138   0.186  0.00  0.00    -0.330 N 
ATOM      8  C   UNL     1       4.477   9.639   1.241  0.00  0.00    +0.103 C 
ATOM      9  C   UNL     1       5.851  10.298   1.103  0.00  0.00    +0.003 C 
ATOM     10  C   UNL     1       5.697  11.818   1.214  0.00  0.00    -0.069 C 
ATOM     11  C   UNL     1       4.726  12.305   0.135  0.00  0.00    +0.003 C 
ATOM     12  C   UNL     1       3.384  11.588   0.301  0.00  0.00    +0.103 C 
BRANCH  10  13
ATOM     13  N   UNL     1       7.008  12.463   1.014  0.00  0.00    +0.381 N 
ATOM     14  H   UNL     1       6.866  13.419   0.666  0.00  0.00    -0.086 HD
ATOM     15  H   UNL     1       7.549  11.926   0.326  0.00  0.00    -0.086 HD
BRANCH  13  16
ATOM     16  C   UNL     1       7.754  12.514   2.286  0.00  0.00    -0.076 C 
BRANCH  16  17
ATOM     17  C   UNL     1       9.107  13.187   2.048  0.00  0.00    +0.037 C 
BRANCH  17  18
ATOM     18  C   UNL     1       9.875  13.243   3.343  0.00  0.00    +0.047 A 
ATOM     19  C   UNL     1      11.123  12.717   3.435  0.00  0.00    +0.069 A 
ATOM     20  S   UNL     1      11.505  13.074   5.144  0.00  0.00    -0.084 S 
ATOM     21  C   UNL     1      10.008  13.854   5.550  0.00  0.00    +0.156 A 
ATOM     22  N   UNL     1       9.350  13.798   4.415  0.00  0.00    -0.252 NA
ENDBRANCH  17  18
ENDBRANCH  16  17
ENDBRANCH  13  16
ENDBRANCH  10  13
ENDBRANCH   5   7
BRANCH   1  25
ATOM     23  C   UNL     1       2.011   5.367  -0.719  0.00  0.00    +0.248 C 
ATOM     24  O   UNL     1       2.813   6.001  -1.377  0.00  0.00    -0.270 OA
ATOM     25  N   UNL     1       1.088   6.013   0.022  0.00  0.00    -0.281 N 
ATOM     26  H   UNL     1       0.400   5.509   0.486  0.00  0.00    +0.155 HD
BRANCH  23  29
ATOM     27  C   UNL     1       1.170   1.780   0.011  0.00  0.00    +0.001 A 
ATOM     28  C   UNL     1       1.129   3.160   0.025  0.00  0.00    +0.013 A 
ATOM     29  C   UNL     1       2.049   3.890  -0.730  0.00  0.00    +0.038 A 
ATOM     30  C   UNL     1       3.004   3.219  -1.495  0.00  0.00    +0.025 A 
ATOM     31  C   UNL     1       3.038   1.840  -1.496  0.00  0.00    +0.056 A 
ATOM     32  C   UNL     1       2.120   1.122  -0.750  0.00  0.00    +0.012 A 
BRANCH  31  33
ATOM     33  C   UNL     1       4.073   1.113  -2.316  0.00  0.00    +0.417 C 
ATOM     34  F   UNL     1       3.905  -0.267  -2.162  0.00  0.00    -0.166 F 
ATOM     35  F   UNL     1       3.922   1.454  -3.664  0.00  0.00    -0.166 F 
ATOM     36  F   UNL     1       5.352   1.479  -1.883  0.00  0.00    -0.166 F 
ENDBRANCH  31  33
ENDBRANCH  23  29
ENDBRANCH   1  25
TORSDOF 8
