REMARK  Name = ZINC41291044
REMARK  5 active torsions:
REMARK  status: ('A' for Active; 'I' for Inactive)
REMARK    1  A    between atoms: C_1  and  C_2
REMARK    2  A    between atoms: C_4  and  O_24
REMARK    3  A    between atoms: C_11  and  C_12
REMARK    4  A    between atoms: O_24  and  C_25
REMARK    5  A    between atoms: C_25  and  C_27
REMARK                            x       y       z     vdW  Elec       q    Type
REMARK                         _______ _______ _______ _____ _____    ______ ____
ROOT
ATOM      1  C   UNL     1      -1.596   0.879   0.205  0.00  0.00    +0.045 C 
ATOM      2  C   UNL     1      -1.131  -0.553   0.266  0.00  0.00    -0.033 A 
ATOM      3  C   UNL     1      -1.365  -1.394  -0.786  0.00  0.00    +0.050 A 
ATOM      4  C   UNL     1      -0.936  -2.717  -0.733  0.00  0.00    +0.135 A 
ATOM      5  C   UNL     1      -0.268  -3.197   0.382  0.00  0.00    +0.093 A 
ATOM      6  C   UNL     1      -0.021  -2.356   1.460  0.00  0.00    +0.143 A 
ATOM      7  C   UNL     1      -0.455  -1.022   1.392  0.00  0.00    +0.071 A 
ATOM      8  C   UNL     1      -0.049  -0.389   2.661  0.00  0.00    +0.232 C 
ATOM      9  O   UNL     1      -0.235   0.764   3.012  0.00  0.00    -0.283 OA
ATOM     10  C   UNL     1       0.630  -1.458   3.406  0.00  0.00    +0.176 C 
ATOM     11  C   UNL     1       1.181  -1.349   4.642  0.00  0.00    +0.061 C 
ATOM     12  O   UNL     1       0.597  -2.574   2.640  0.00  0.00    -0.451 OA
ENDROOT
BRANCH  11  13
ATOM     13  C   UNL     1       1.949  -2.466   5.204  0.00  0.00    +0.022 A 
ATOM     14  C   UNL     1       2.413  -3.491   4.371  0.00  0.00    +0.027 A 
ATOM     15  C   UNL     1       3.132  -4.537   4.907  0.00  0.00    +0.019 A 
ATOM     16  C   UNL     1       3.396  -4.580   6.268  0.00  0.00    +0.024 A 
ATOM     17  C   UNL     1       2.943  -3.575   7.103  0.00  0.00    +0.022 A 
ATOM     18  C   UNL     1       2.227  -2.511   6.581  0.00  0.00    +0.136 A 
ATOM     19  O   UNL     1       1.790  -1.510   7.387  0.00  0.00    -0.465 OA
ATOM     20  C   UNL     1       1.777  -1.770   8.793  0.00  0.00    +0.395 C 
ATOM     21  O   UNL     1       3.034  -2.350   9.163  0.00  0.00    -0.339 OA
ATOM     22  C   UNL     1       3.238  -3.645   8.580  0.00  0.00    +0.202 C 
ATOM     23 BR   UNL     1       3.762  -5.921   3.783  0.00  0.00    -0.050 Br
ENDBRANCH  11  13
BRANCH   4  24
ATOM     24  O   UNL     1      -1.175  -3.544  -1.783  0.00  0.00    -0.426 OA
BRANCH  24  25
ATOM     25  C   UNL     1      -2.317  -4.251  -1.782  0.00  0.00    +0.315 C 
ATOM     26  O   UNL     1      -3.051  -4.211  -0.823  0.00  0.00    -0.250 OA
BRANCH  25  27
ATOM     27  C   UNL     1      -2.682  -5.094  -2.977  0.00  0.00    +0.098 C 
ATOM     28  C   UNL     1      -3.880  -4.646  -3.817  0.00  0.00    +0.015 C 
ATOM     29  C   UNL     1      -3.996  -5.875  -2.914  0.00  0.00    +0.015 C 
ENDBRANCH  25  27
ENDBRANCH  24  25
ENDBRANCH   4  24
TORSDOF 4
