REMARK  Name = ZINC04995846
REMARK  1 active torsions:
REMARK  status: ('A' for Active; 'I' for Inactive)
REMARK    1  A    between atoms: C_17  and  C_24
REMARK                            x       y       z     vdW  Elec       q    Type
REMARK                         _______ _______ _______ _____ _____    ______ ____
ROOT
ATOM      1  C   UNL     1       4.374   4.619   1.326  0.00  0.00    +0.001 A 
ATOM      2  C   UNL     1       4.678   5.832   1.917  0.00  0.00    +0.004 A 
ATOM      3  C   UNL     1       3.757   6.858   1.900  0.00  0.00    +0.046 A 
ATOM      4  C   UNL     1       2.519   6.682   1.290  0.00  0.00    +0.135 A 
ATOM      5  C   UNL     1       2.223   5.467   0.688  0.00  0.00    +0.004 A 
ATOM      6  C   UNL     1       3.150   4.440   0.713  0.00  0.00    +0.008 A 
ATOM      7  C   UNL     1       0.903   5.256   0.009  0.00  0.00    +0.077 C 
ATOM      8  C   UNL     1       0.421   3.856   0.028  0.00  0.00    +0.033 A 
ATOM      9  C   UNL     1      -0.859   3.416   0.042  0.00  0.00    +0.088 A 
ATOM     10  N   UNL     1      -1.022   2.051   0.031  0.00  0.00    -0.311 N 
ATOM     11  H   UNL     1      -1.916   1.673   0.029  0.00  0.00    +0.170 HD
ATOM     12  C   UNL     1       0.050   1.234   0.026  0.00  0.00    +0.289 A 
ATOM     13  O   UNL     1       0.082   0.016   0.023  0.00  0.00    -0.260 OA
ATOM     14  S   UNL     1       1.372   2.357   0.017  0.00  0.00    -0.030 S 
ATOM     15  S   UNL     1      -2.220   4.564   0.069  0.00  0.00    -0.098 S 
ATOM     16  C   UNL     1      -1.402   6.160  -0.249  0.00  0.00    +0.097 C 
ATOM     17  C   UNL     1      -0.135   6.209   0.602  0.00  0.00    +0.128 C 
ATOM     18  C   UNL     1       0.482   7.586   0.626  0.00  0.00    +0.318 C 
ATOM     19  O   UNL     1      -0.025   8.522   0.055  0.00  0.00    -0.250 OA
ATOM     20  O   UNL     1       1.631   7.713   1.324  0.00  0.00    -0.425 OA
ENDROOT
BRANCH  16  21
ATOM     21  C   UNL     1      -1.044   6.268  -1.709  0.00  0.00    -0.033 A 
ATOM     22  C   UNL     1      -1.096   7.495  -2.344  0.00  0.00    +0.007 A 
ATOM     23  C   UNL     1      -0.762   7.597  -3.681  0.00  0.00    +0.038 A 
ATOM     24  C   UNL     1      -0.386   6.468  -4.388  0.00  0.00    +0.123 A 
ATOM     25  C   UNL     1      -0.340   5.238  -3.752  0.00  0.00    +0.038 A 
ATOM     26  C   UNL     1      -0.669   5.140  -2.414  0.00  0.00    +0.007 A 
ATOM     27  F   UNL     1      -0.065   6.565  -5.696  0.00  0.00    -0.205 F 
ENDBRANCH  16  21
TORSDOF 1
