REMARK  Name = ZINC39861969
REMARK  7 active torsions:
REMARK  status: ('A' for Active; 'I' for Inactive)
REMARK    1  A    between atoms: C_3  and  N_29
REMARK    2  A    between atoms: C_6  and  C_7
REMARK    3  A    between atoms: C_10  and  C_12
REMARK    4  A    between atoms: N_16  and  C_20
REMARK    5  A    between atoms: C_20  and  C_22
REMARK    6  A    between atoms: C_20  and  C_26
REMARK    7  A    between atoms: C_22  and  C_23
REMARK                            x       y       z     vdW  Elec       q    Type
REMARK                         _______ _______ _______ _____ _____    ______ ____
ROOT
ATOM      1  C   UNL     1      -4.781  -1.041   0.034  0.00  0.00    +0.066 C 
ATOM      2  C   UNL     1      -5.336   0.245   0.145  0.00  0.00    +0.080 C 
ATOM      3  C   UNL     1      -4.642   1.564   0.157  0.00  0.00    +0.259 C 
ATOM      4  O   UNL     1      -3.435   1.656   0.062  0.00  0.00    -0.269 OA
ATOM      5  N   UNL     1      -5.419   2.631   0.275  0.00  0.00    -0.241 N 
ATOM      6  C   UNL     1      -6.752   2.456   0.375  0.00  0.00    +0.121 C 
ATOM      7  S   UNL     1      -7.966   3.652   0.535  0.00  0.00    -0.027 S 
ATOM      8  S   UNL     1      -6.952   0.688   0.293  0.00  0.00    -0.061 S 
ENDROOT
BRANCH   1  12
ATOM      9  C   UNL     1      -1.270  -0.803   0.425  0.00  0.00    +0.136 A 
ATOM     10  C   UNL     1      -1.359  -2.171   0.095  0.00  0.00    +0.050 A 
ATOM     11  C   UNL     1      -2.674  -2.463  -0.099  0.00  0.00    +0.050 A 
ATOM     12  C   UNL     1      -3.410  -1.214   0.124  0.00  0.00    +0.130 A 
ATOM     13  O   UNL     1      -2.501  -0.264   0.440  0.00  0.00    -0.455 OA
BRANCH   9  19
ATOM     14  C   UNL     1      -0.064   1.285   1.036  0.00  0.00    +0.014 A 
ATOM     15  C   UNL     1       1.109   1.954   1.305  0.00  0.00    +0.033 A 
ATOM     16  C   UNL     1       2.321   1.283   1.256  0.00  0.00    +0.126 A 
ATOM     17  C   UNL     1       2.366  -0.066   0.938  0.00  0.00    +0.033 A 
ATOM     18  C   UNL     1       1.205  -0.753   0.666  0.00  0.00    +0.014 A 
ATOM     19  C   UNL     1      -0.030  -0.082   0.712  0.00  0.00    +0.017 A 
BRANCH  16  20
ATOM     20  N   UNL     1       3.576   2.012   1.546  0.00  0.00    +0.056 N 
ATOM     21  O   UNL     1       3.539   3.293   1.849  0.00  0.00    -0.126 OA
ATOM     22  O   UNL     1       4.731   1.380   1.501  0.00  0.00    -0.126 OA
ENDBRANCH  16  20
ENDBRANCH   9  19
ENDBRANCH   1  12
BRANCH   5  23
ATOM     23  C   UNL     1      -4.840   3.976   0.298  0.00  0.00    +0.204 C 
BRANCH  23  24
ATOM     24  C   UNL     1      -5.191   4.653   1.597  0.00  0.00    +0.377 C 
ATOM     25  O   UNL     1      -4.435   5.479   2.079  0.00  0.00    -0.244 OA
ATOM     26  O   UNL     1      -6.232   4.374   2.168  0.00  0.00    -0.244 OA
ENDBRANCH  23  24
BRANCH  23  27
ATOM     27  C   UNL     1      -5.399   4.792  -0.870  0.00  0.00    +0.130 C 
BRANCH  27  28
ATOM     28  C   UNL     1      -4.944   4.184  -2.171  0.00  0.00    +0.213 C 
ATOM     29  O   UNL     1      -4.241   3.195  -2.166  0.00  0.00    -0.276 OA
ATOM     30  N   UNL     1      -5.318   4.738  -3.341  0.00  0.00    -0.329 N 
ATOM     31  H   UNL     1      -5.880   5.529  -3.346  0.00  0.00    +0.145 HD
ATOM     32  H   UNL     1      -5.025   4.347  -4.179  0.00  0.00    +0.145 HD
ENDBRANCH  27  28
ENDBRANCH  23  27
ENDBRANCH   5  23
TORSDOF 7
