REMARK  Name = ZINC13250714
REMARK  10 active torsions:
REMARK  status: ('A' for Active; 'I' for Inactive)
REMARK    1  A    between atoms: C_1  and  O_2
REMARK    2  A    between atoms: O_2  and  C_3
REMARK    3  A    between atoms: C_8  and  N_9
REMARK    4  A    between atoms: N_9  and  S_10
REMARK    5  A    between atoms: S_10  and  C_13
REMARK    6  A    between atoms: C_16  and  N_19
REMARK    7  A    between atoms: C_20  and  C_22
REMARK    8  A    between atoms: C_22  and  C_23
REMARK    9  A    between atoms: C_23  and  C_25
REMARK   10  A    between atoms: C_23  and  C_31
REMARK                            x       y       z     vdW  Elec       q    Type
REMARK                         _______ _______ _______ _____ _____    ______ ____
ROOT
ATOM      1  C   UNL     1       2.373   7.825  -1.538  0.00  0.00    +0.109 A 
ATOM      2  C   UNL     1       1.387   7.769  -2.505  0.00  0.00    +0.030 A 
ATOM      3  C   UNL     1       0.448   6.756  -2.478  0.00  0.00    +0.025 A 
ATOM      4  C   UNL     1       0.495   5.794  -1.477  0.00  0.00    +0.033 A 
ATOM      5  C   UNL     1       1.484   5.857  -0.504  0.00  0.00    +0.025 A 
ATOM      6  C   UNL     1       2.423   6.869  -0.540  0.00  0.00    +0.030 A 
ENDROOT
BRANCH   4   7
ATOM      7  N   UNL     1      -0.454   4.767  -1.446  0.00  0.00    -0.285 N 
ATOM      8  C   UNL     1      -0.110   3.545  -0.994  0.00  0.00    +0.218 C 
ATOM      9  O   UNL     1       1.043   3.308  -0.704  0.00  0.00    -0.275 OA
ATOM     10  H   UNL     1      -1.360   4.935  -1.750  0.00  0.00    +0.155 HD
BRANCH   8  11
ATOM     11  C   UNL     1      -1.159   2.472  -0.850  0.00  0.00    +0.115 C 
BRANCH  11  12
ATOM     12  C   UNL     1      -0.510   1.191  -0.322  0.00  0.00    +0.141 C 
BRANCH  12  13
ATOM     13  C   UNL     1      -1.576   0.158  -0.061  0.00  0.00    -0.033 A 
ATOM     14  C   UNL     1      -2.386  -0.274  -1.094  0.00  0.00    +0.004 A 
ATOM     15  C   UNL     1      -3.361  -1.225  -0.856  0.00  0.00    +0.000 A 
ATOM     16  C   UNL     1      -3.531  -1.737   0.417  0.00  0.00    +0.000 A 
ATOM     17  C   UNL     1      -2.724  -1.300   1.451  0.00  0.00    +0.000 A 
ATOM     18  C   UNL     1      -1.746  -0.353   1.212  0.00  0.00    +0.004 A 
ENDBRANCH  12  13
BRANCH  12  19
ATOM     19  C   UNL     1       0.463   0.663  -1.345  0.00  0.00    +0.364 C 
ATOM     20  O   UNL     1       0.306  -0.439  -1.814  0.00  0.00    -0.246 OA
ATOM     21  O   UNL     1       1.499   1.419  -1.739  0.00  0.00    -0.246 OA
ENDBRANCH  12  19
ENDBRANCH  11  12
ENDBRANCH   8  11
ENDBRANCH   4   7
BRANCH   1  22
ATOM     22  S   UNL     1       3.569   9.119  -1.577  0.00  0.00    +0.072 S 
ATOM     23  O   UNL     1       4.710   8.637  -0.879  0.00  0.00    -0.150 OA
ATOM     24  O   UNL     1       3.634   9.572  -2.922  0.00  0.00    -0.150 OA
BRANCH  22  25
ATOM     25  N   UNL     1       2.963  10.374  -0.682  0.00  0.00    -0.213 N 
ATOM     26  H   UNL     1       2.810  11.236  -1.099  0.00  0.00    +0.174 HD
BRANCH  25  32
ATOM     27  C   UNL     1       1.575  10.830   1.246  0.00  0.00    +0.142 A 
ATOM     28  C   UNL     1       1.291  10.645   2.589  0.00  0.00    +0.047 A 
ATOM     29  C   UNL     1       2.096   9.825   3.359  0.00  0.00    +0.004 A 
ATOM     30  C   UNL     1       3.185   9.189   2.792  0.00  0.00    +0.002 A 
ATOM     31  C   UNL     1       3.472   9.365   1.452  0.00  0.00    +0.028 A 
ATOM     32  C   UNL     1       2.672  10.190   0.674  0.00  0.00    +0.090 A 
BRANCH  27  34
ATOM     33  C   UNL     1      -0.324  12.259   1.141  0.00  0.00    +0.277 C 
ATOM     34  O   UNL     1       0.783  11.635   0.487  0.00  0.00    -0.493 OA
ENDBRANCH  27  34
ENDBRANCH  25  32
ENDBRANCH  22  25
ENDBRANCH   1  22
TORSDOF 9
