REMARK  Name = ZINC64787574
REMARK  4 active torsions:
REMARK  status: ('A' for Active; 'I' for Inactive)
REMARK    1  A    between atoms: C_1  and  N_2
REMARK    2  A    between atoms: C_5  and  C_22
REMARK    3  A    between atoms: C_8  and  C_13
REMARK    4  A    between atoms: N_31  and  C_34
REMARK                            x       y       z     vdW  Elec       q    Type
REMARK                         _______ _______ _______ _____ _____    ______ ____
ROOT
ATOM      1  C   UNL     1      -0.140   1.996   0.377  0.00  0.00    +0.154 C 
ATOM      2  N   UNL     1       0.130   0.565   0.533  0.00  0.00    -0.294 N 
ATOM      3  C   UNL     1      -0.933  -0.346   0.557  0.00  0.00    +0.083 A 
ATOM      4  C   UNL     1      -0.609  -1.774   0.716  0.00  0.00    +0.089 A 
ATOM      5  C   UNL     1      -1.816  -2.452   0.709  0.00  0.00    +0.064 A 
ATOM      6  N   UNL     1      -2.806  -1.533   0.559  0.00  0.00    -0.337 N 
ATOM      7  C   UNL     1      -2.267  -0.267   0.466  0.00  0.00    +0.077 A 
ATOM      8  C   UNL     1      -3.113   0.973   0.288  0.00  0.00    +0.197 C 
ATOM      9  O   UNL     1      -4.430   0.554  -0.096  0.00  0.00    -0.364 OA
ATOM     10  C   UNL     1      -4.983  -0.464   0.742  0.00  0.00    +0.182 C 
ATOM     11  C   UNL     1      -4.252  -1.790   0.498  0.00  0.00    +0.150 C 
ATOM     12  C   UNL     1       0.804  -2.142   0.839  0.00  0.00    +0.266 A 
ATOM     13  O   UNL     1       1.135  -3.304   0.972  0.00  0.00    -0.267 OA
ATOM     14  N   UNL     1       1.729  -1.159   0.800  0.00  0.00    -0.263 N 
ATOM     15  C   UNL     1       1.397   0.130   0.648  0.00  0.00    +0.332 A 
ATOM     16  O   UNL     1       2.291   0.954   0.619  0.00  0.00    -0.246 OA
ATOM     17  C   UNL     1       3.144  -1.515   0.921  0.00  0.00    +0.157 C 
ENDROOT
BRANCH   8  18
ATOM     18  C   UNL     1      -2.520   1.846  -0.788  0.00  0.00    -0.009 A 
ATOM     19  C   UNL     1      -2.179   1.298  -2.010  0.00  0.00    +0.010 A 
ATOM     20  C   UNL     1      -1.634   2.094  -3.000  0.00  0.00    +0.050 A 
ATOM     21  C   UNL     1      -1.429   3.445  -2.769  0.00  0.00    +0.166 A 
ATOM     22  C   UNL     1      -1.773   3.997  -1.538  0.00  0.00    +0.167 A 
ATOM     23  C   UNL     1      -2.323   3.194  -0.552  0.00  0.00    +0.056 A 
ATOM     24  O   UNL     1      -1.477   5.329  -1.560  0.00  0.00    -0.453 OA
ATOM     25  C   UNL     1      -0.573   5.504  -2.667  0.00  0.00    +0.466 C 
ATOM     26  O   UNL     1      -0.918   4.431  -3.562  0.00  0.00    -0.453 OA
ENDBRANCH   8  18
BRANCH   5  27
ATOM     27  C   UNL     1      -1.996  -3.911   0.841  0.00  0.00    -0.001 A 
ATOM     28  C   UNL     1      -2.983  -4.422   1.686  0.00  0.00    +0.011 A 
ATOM     29  C   UNL     1      -3.146  -5.787   1.805  0.00  0.00    +0.020 A 
ATOM     30  C   UNL     1      -2.333  -6.649   1.088  0.00  0.00    +0.041 A 
ATOM     31  C   UNL     1      -1.352  -6.148   0.248  0.00  0.00    +0.020 A 
ATOM     32  C   UNL     1      -1.183  -4.786   0.116  0.00  0.00    +0.011 A 
ATOM     33 CL   UNL     1      -2.543  -8.365   1.243  0.00  0.00    -0.084 Cl
ENDBRANCH   5  27
TORSDOF 2
