REMARK  Name = ZINC60361236
REMARK  4 active torsions:
REMARK  status: ('A' for Active; 'I' for Inactive)
REMARK    1  A    between atoms: N_8  and  C_16
REMARK    2  A    between atoms: C_16  and  C_17
REMARK    3  A    between atoms: N_19  and  C_20
REMARK    4  A    between atoms: C_24  and  C_26
REMARK                            x       y       z     vdW  Elec       q    Type
REMARK                         _______ _______ _______ _____ _____    ______ ____
ROOT
ATOM      1  C   UNL     1       1.340  -5.404  -2.183  0.00  0.00    +0.201 C 
ATOM      2  O   UNL     1       1.262  -4.572  -3.062  0.00  0.00    -0.278 OA
ATOM      3  N   UNL     1       1.862  -6.618  -2.449  0.00  0.00    -0.287 N 
ATOM      4  H   UNL     1       1.996  -7.256  -1.730  0.00  0.00    +0.155 HD
ENDROOT
BRANCH   3   5
ATOM      5  C   UNL     1       2.211  -6.958  -3.761  0.00  0.00    +0.034 A 
ATOM      6  C   UNL     1       3.297  -7.793  -3.997  0.00  0.00    +0.023 A 
ATOM      7  C   UNL     1       3.645  -8.132  -5.291  0.00  0.00    +0.003 A 
ATOM      8  C   UNL     1       2.917  -7.643  -6.357  0.00  0.00    +0.013 A 
ATOM      9  C   UNL     1       1.825  -6.804  -6.130  0.00  0.00    +0.039 A 
ATOM     10  C   UNL     1       1.470  -6.467  -4.824  0.00  0.00    +0.036 A 
BRANCH   9  11
ATOM     11  C   UNL     1       1.044  -6.279  -7.270  0.00  0.00    +0.247 C 
ATOM     12  O   UNL     1       0.597  -7.043  -8.104  0.00  0.00    -0.270 OA
ATOM     13  N   UNL     1       0.827  -4.954  -7.385  0.00  0.00    -0.296 N 
ATOM     14  C   UNL     1       0.118  -4.436  -8.557  0.00  0.00    +0.119 C 
ATOM     15  C   UNL     1      -1.224  -3.838  -8.120  0.00  0.00    +0.088 C 
ATOM     16  S   UNL     1      -0.908  -2.546  -6.880  0.00  0.00    -0.158 S 
ATOM     17  C   UNL     1       0.100  -3.406  -5.635  0.00  0.00    +0.088 C 
ATOM     18  C   UNL     1       1.296  -4.051  -6.334  0.00  0.00    +0.119 C 
ENDBRANCH   9  11
ENDBRANCH   3   5
BRANCH   1  19
ATOM     19  C   UNL     1       0.853  -5.081  -0.794  0.00  0.00    +0.020 C 
BRANCH  19  27
ATOM     20  C   UNL     1      -1.911  -0.072   0.928  0.00  0.00    +0.000 A 
ATOM     21  C   UNL     1      -0.839   0.727   1.284  0.00  0.00    +0.001 A 
ATOM     22  C   UNL     1       0.429   0.185   1.375  0.00  0.00    +0.009 A 
ATOM     23  C   UNL     1       0.616  -1.165   1.113  0.00  0.00    -0.016 A 
ATOM     24  C   UNL     1      -0.469  -1.973   0.773  0.00  0.00    -0.056 A 
ATOM     25  C   UNL     1      -1.728  -1.420   0.671  0.00  0.00    +0.002 A 
ATOM     26  C   UNL     1      -0.245  -3.443   0.552  0.00  0.00    -0.041 C 
ATOM     27  N   UNL     1       0.333  -3.707  -0.765  0.00  0.00    +0.391 N 
ATOM     28  C   UNL     1       1.422  -2.777  -1.066  0.00  0.00    -0.041 C 
ATOM     29  C   UNL     1       2.350  -2.606   0.104  0.00  0.00    -0.056 A 
ATOM     30  C   UNL     1       1.958  -1.793   1.169  0.00  0.00    -0.016 A 
ATOM     31  C   UNL     1       2.812  -1.592   2.245  0.00  0.00    +0.009 A 
ATOM     32  C   UNL     1       4.044  -2.217   2.265  0.00  0.00    +0.001 A 
ATOM     33  C   UNL     1       4.422  -3.038   1.218  0.00  0.00    +0.000 A 
ATOM     34  C   UNL     1       3.577  -3.232   0.138  0.00  0.00    +0.002 A 
ATOM     35  H   UNL     1      -0.386  -3.612  -1.466  0.00  0.00    -0.080 HD
ENDBRANCH  19  27
ENDBRANCH   1  19
TORSDOF 4
