REMARK  Name = ZINC07499944
REMARK  10 active torsions:
REMARK  status: ('A' for Active; 'I' for Inactive)
REMARK    1  A    between atoms: C_1  and  C_2
REMARK    2  A    between atoms: C_2  and  C_3
REMARK    3  A    between atoms: C_8  and  N_9
REMARK    4  A    between atoms: C_10  and  C_12
REMARK    5  A    between atoms: C_12  and  N_13
REMARK    6  A    between atoms: C_14  and  C_16
REMARK    7  A    between atoms: C_16  and  N_49
REMARK    8  A    between atoms: C_17  and  C_19
REMARK    9  A    between atoms: C_17  and  C_20
REMARK   10  A    between atoms: C_17  and  N_49
REMARK                            x       y       z     vdW  Elec       q    Type
REMARK                         _______ _______ _______ _____ _____    ______ ____
ROOT
ATOM      1  N   UNL     1       4.627   0.635  -1.447  0.00  0.00    -0.308 N 
ATOM      2  C   UNL     1       3.649   1.265  -0.767  0.00  0.00    +0.196 C 
ATOM      3  O   UNL     1       3.897   2.277  -0.146  0.00  0.00    -0.278 OA
ATOM      4  H   UNL     1       4.429  -0.174  -1.944  0.00  0.00    +0.149 HD
ENDROOT
BRANCH   1   5
ATOM      5  C   UNL     1       5.990   1.173  -1.436  0.00  0.00    +0.200 C 
BRANCH   5   7
ATOM      6  N   UNL     1       8.192   0.590  -2.401  0.00  0.00    -0.284 N 
ATOM      7  C   UNL     1       6.885   0.289  -2.266  0.00  0.00    +0.234 C 
ATOM      8  O   UNL     1       6.429  -0.693  -2.813  0.00  0.00    -0.274 OA
ATOM      9  H   UNL     1       8.540   1.416  -2.031  0.00  0.00    +0.155 HD
BRANCH   6  15
ATOM     10  C   UNL     1      10.211   0.185  -3.662  0.00  0.00    -0.026 A 
ATOM     11  C   UNL     1      11.053  -0.686  -4.326  0.00  0.00    +0.005 A 
ATOM     12  C   UNL     1      10.737  -2.030  -4.405  0.00  0.00    +0.000 A 
ATOM     13  C   UNL     1       9.578  -2.506  -3.820  0.00  0.00    +0.002 A 
ATOM     14  C   UNL     1       8.734  -1.641  -3.151  0.00  0.00    +0.023 A 
ATOM     15  C   UNL     1       9.046  -0.290  -3.074  0.00  0.00    +0.037 A 
BRANCH  10  17
ATOM     16  C   UNL     1      11.284   1.924  -2.257  0.00  0.00    +0.009 C 
ATOM     17  C   UNL     1      10.557   1.649  -3.575  0.00  0.00    +0.033 C 
ENDBRANCH  10  17
ENDBRANCH   6  15
ENDBRANCH   5   7
ENDBRANCH   1   5
BRANCH   2  18
ATOM     18  C   UNL     1       2.247   0.712  -0.778  0.00  0.00    +0.016 C 
BRANCH  18  19
ATOM     19  N   UNL     1       1.378   1.583   0.036  0.00  0.00    +0.389 N 
ATOM     20  H   UNL     1       1.382   2.530  -0.358  0.00  0.00    -0.084 HD
ATOM     21  H   UNL     1       1.733   1.611   0.999  0.00  0.00    -0.084 HD
BRANCH  19  22
ATOM     22  C   UNL     1      -0.004   1.064   0.043  0.00  0.00    -0.042 C 
ATOM     23  C   UNL     1      -0.749   1.580  -1.190  0.00  0.00    -0.009 C 
BRANCH  22  24
ATOM     24  C   UNL     1      -0.704   1.541   1.289  0.00  0.00    -0.043 A 
ATOM     25  C   UNL     1      -0.276   2.691   1.926  0.00  0.00    +0.003 A 
ATOM     26  C   UNL     1      -0.922   3.131   3.067  0.00  0.00    +0.000 A 
ATOM     27  C   UNL     1      -1.990   2.416   3.577  0.00  0.00    +0.001 A 
ATOM     28  C   UNL     1      -2.415   1.263   2.944  0.00  0.00    +0.020 A 
ATOM     29  C   UNL     1      -1.772   0.825   1.800  0.00  0.00    +0.043 A 
ATOM     30 CL   UNL     1      -2.306  -0.623   1.005  0.00  0.00    -0.083 Cl
ENDBRANCH  22  24
ENDBRANCH  19  22
ENDBRANCH  18  19
ENDBRANCH   2  18
TORSDOF 8
