REMARK  Name = ZINC03400314
REMARK  4 active torsions:
REMARK  status: ('A' for Active; 'I' for Inactive)
REMARK    1  A    between atoms: C_7  and  C_15
REMARK    2  A    between atoms: N_17  and  C_18
REMARK    3  A    between atoms: C_21  and  S_24
REMARK    4  A    between atoms: S_24  and  N_27
REMARK                            x       y       z     vdW  Elec       q    Type
REMARK                         _______ _______ _______ _____ _____    ______ ____
ROOT
ATOM      1  C   UNL     1       0.477  -4.741   0.539  0.00  0.00    +0.229 C 
ATOM      2  O   UNL     1      -0.102  -5.796   0.690  0.00  0.00    -0.274 OA
ATOM      3  N   UNL     1       0.844  -4.014   1.613  0.00  0.00    -0.285 N 
ATOM      4  H   UNL     1       1.366  -3.205   1.496  0.00  0.00    +0.155 HD
ENDROOT
BRANCH   1  11
ATOM      5  C   UNL     1       0.530  -7.328  -3.002  0.00  0.00    +0.001 A 
ATOM      6  C   UNL     1      -0.638  -7.091  -3.702  0.00  0.00    +0.004 A 
ATOM      7  C   UNL     1      -1.349  -5.928  -3.483  0.00  0.00    +0.046 A 
ATOM      8  C   UNL     1      -0.894  -4.995  -2.558  0.00  0.00    +0.133 A 
ATOM      9  C   UNL     1       0.276  -5.236  -1.857  0.00  0.00    +0.011 A 
ATOM     10  C   UNL     1       0.986  -6.403  -2.082  0.00  0.00    +0.008 A 
ATOM     11  C   UNL     1       0.789  -4.244  -0.849  0.00  0.00    +0.142 C 
ATOM     12  C   UNL     1       0.142  -2.901  -1.051  0.00  0.00    +0.011 A 
ATOM     13  C   UNL     1       0.721  -1.778  -0.485  0.00  0.00    +0.008 A 
ATOM     14  C   UNL     1       0.142  -0.536  -0.658  0.00  0.00    +0.001 A 
ATOM     15  C   UNL     1      -1.019  -0.410  -1.399  0.00  0.00    +0.004 A 
ATOM     16  C   UNL     1      -1.600  -1.526  -1.966  0.00  0.00    +0.046 A 
ATOM     17  C   UNL     1      -1.020  -2.778  -1.794  0.00  0.00    +0.133 A 
ATOM     18  O   UNL     1      -1.608  -3.862  -2.357  0.00  0.00    -0.455 OA
ENDBRANCH   1  11
BRANCH   3  19
ATOM     19  C   UNL     1       0.469  -4.425   2.897  0.00  0.00    +0.034 A 
ATOM     20  C   UNL     1       0.156  -3.482   3.867  0.00  0.00    +0.025 A 
ATOM     21  C   UNL     1      -0.212  -3.891   5.133  0.00  0.00    +0.031 A 
ATOM     22  C   UNL     1      -0.270  -5.239   5.436  0.00  0.00    +0.113 A 
ATOM     23  C   UNL     1       0.042  -6.181   4.474  0.00  0.00    +0.031 A 
ATOM     24  C   UNL     1       0.405  -5.778   3.204  0.00  0.00    +0.025 A 
BRANCH  22  25
ATOM     25  S   UNL     1      -0.741  -5.756   7.053  0.00  0.00    +0.100 S 
ATOM     26  O   UNL     1      -0.190  -7.053   7.241  0.00  0.00    -0.146 OA
ATOM     27  O   UNL     1      -0.454  -4.673   7.927  0.00  0.00    -0.146 OA
BRANCH  25  28
ATOM     28  N   UNL     1      -2.387  -5.938   7.050  0.00  0.00    -0.118 NA
ATOM     29  C   UNL     1      -2.999  -6.315   8.125  0.00  0.00    +0.117 C 
ATOM     30  C   UNL     1      -2.206  -6.588   9.401  0.00  0.00    +0.073 C 
ATOM     31  C   UNL     1      -2.551  -5.493  10.387  0.00  0.00    +0.008 C 
ATOM     32  C   UNL     1      -3.774  -5.812  11.248  0.00  0.00    +0.002 C 
ATOM     33  C   UNL     1      -4.922  -6.434  10.451  0.00  0.00    +0.019 C 
ATOM     34  C   UNL     1      -5.154  -5.762   9.115  0.00  0.00    +0.102 C 
ATOM     35  N   UNL     1      -4.309  -6.460   8.124  0.00  0.00    -0.331 N 
ATOM     36  H   UNL     1      -4.727  -7.034   7.463  0.00  0.00    +0.147 HD
ENDBRANCH  25  28
ENDBRANCH  22  25
ENDBRANCH   3  19
TORSDOF 4
