REMARK  Name = ZINC08609304
REMARK  4 active torsions:
REMARK  status: ('A' for Active; 'I' for Inactive)
REMARK    1  A    between atoms: C_1  and  N_2
REMARK    2  A    between atoms: C_9  and  S_11
REMARK    3  A    between atoms: S_11  and  N_14
REMARK    4  A    between atoms: N_22  and  C_23
REMARK                            x       y       z     vdW  Elec       q    Type
REMARK                         _______ _______ _______ _____ _____    ______ ____
ROOT
ATOM      1  N   UNL     1      -1.420  -4.941   4.465  0.00  0.00    -0.174 NA
ATOM      2  C   UNL     1      -2.073  -4.482   5.699  0.00  0.00    +0.128 C 
ATOM      3  C   UNL     1      -3.347  -3.716   5.323  0.00  0.00    +0.126 C 
ATOM      4  N   UNL     1      -4.120  -4.527   4.372  0.00  0.00    -0.283 N 
ATOM      5  C   UNL     1      -3.467  -4.986   3.138  0.00  0.00    +0.126 C 
ATOM      6  C   UNL     1      -2.195  -5.748   3.511  0.00  0.00    +0.128 C 
ATOM      7  C   UNL     1      -5.405  -4.845   4.627  0.00  0.00    +0.307 C 
ATOM      8  O   UNL     1      -5.907  -4.540   5.692  0.00  0.00    -0.252 OA
ATOM      9  N   UNL     1      -6.133  -5.501   3.702  0.00  0.00    -0.267 N 
ATOM     10  H   UNL     1      -5.716  -5.802   2.880  0.00  0.00    +0.156 HD
ENDROOT
BRANCH   9  11
ATOM     11  C   UNL     1      -7.495  -5.748   3.928  0.00  0.00    +0.070 A 
ATOM     12  C   UNL     1      -8.182  -5.024   4.892  0.00  0.00    +0.029 A 
ATOM     13  C   UNL     1      -9.523  -5.268   5.113  0.00  0.00    +0.040 A 
ATOM     14  C   UNL     1     -10.184  -6.236   4.375  0.00  0.00    +0.126 A 
ATOM     15  C   UNL     1      -9.501  -6.961   3.413  0.00  0.00    +0.078 A 
ATOM     16  C   UNL     1      -8.160  -6.715   3.183  0.00  0.00    +0.147 A 
ATOM     17  F   UNL     1      -7.495  -7.418   2.241  0.00  0.00    -0.203 F 
ATOM     18  F   UNL     1     -11.495  -6.473   4.594  0.00  0.00    -0.205 F 
ENDBRANCH   9  11
BRANCH   1  19
ATOM     19  S   UNL     1       0.159  -4.551   4.151  0.00  0.00    +0.061 S 
ATOM     20  O   UNL     1       0.649  -5.535   3.251  0.00  0.00    -0.153 OA
ATOM     21  O   UNL     1       0.771  -4.294   5.407  0.00  0.00    -0.153 OA
BRANCH  19  30
ATOM     22  C   UNL     1       0.171   1.842   1.290  0.00  0.00    +0.149 C 
ATOM     23  N   UNL     1       0.126   0.410   0.981  0.00  0.00    -0.350 N 
ATOM     24  C   UNL     1       0.065  -0.120  -0.279  0.00  0.00    +0.086 A 
ATOM     25  C   UNL     1       0.038  -1.461  -0.210  0.00  0.00    +0.027 A 
ATOM     26  C   UNL     1       0.085  -1.818   1.210  0.00  0.00    +0.002 A 
ATOM     27  C   UNL     1       0.146  -0.601   1.915  0.00  0.00    +0.049 A 
ATOM     28  C   UNL     1       0.206  -0.621   3.304  0.00  0.00    +0.028 A 
ATOM     29  C   UNL     1       0.209  -1.826   3.972  0.00  0.00    +0.030 A 
ATOM     30  C   UNL     1       0.152  -3.023   3.272  0.00  0.00    +0.106 A 
ATOM     31  C   UNL     1       0.084  -3.027   1.907  0.00  0.00    +0.038 A 
ENDBRANCH  19  30
ENDBRANCH   1  19
TORSDOF 3
