REMARK  Name = ZINC28053255
REMARK  2 active torsions:
REMARK  status: ('A' for Active; 'I' for Inactive)
REMARK    1  A    between atoms: C_4  and  C_7
REMARK    2  A    between atoms: C_18  and  C_20
REMARK                            x       y       z     vdW  Elec       q    Type
REMARK                         _______ _______ _______ _____ _____    ______ ____
ROOT
ATOM      1  C   UNL     1       0.831   6.803  -2.261  0.00  0.00    +0.174 C 
ATOM      2  C   UNL     1      -0.347   6.506  -1.366  0.00  0.00    +0.025 C 
ATOM      3  C   UNL     1      -1.609   6.673  -1.767  0.00  0.00    +0.050 C 
ATOM      4  C   UNL     1      -2.700   6.375  -0.809  0.00  0.00    +0.038 A 
ATOM      5  C   UNL     1      -4.010   6.196  -1.234  0.00  0.00    +0.013 A 
ATOM      6  C   UNL     1      -4.995   5.920  -0.304  0.00  0.00    +0.001 A 
ATOM      7  C   UNL     1      -4.680   5.821   1.040  0.00  0.00    +0.004 A 
ATOM      8  C   UNL     1      -3.377   5.999   1.470  0.00  0.00    +0.046 A 
ATOM      9  C   UNL     1      -2.382   6.276   0.552  0.00  0.00    +0.131 A 
ATOM     10  O   UNL     1      -1.092   6.455   0.933  0.00  0.00    -0.479 OA
ATOM     11  C   UNL     1      -0.079   6.003   0.035  0.00  0.00    +0.234 C 
ATOM     12  N   UNL     1      -1.931   7.111  -3.058  0.00  0.00    -0.282 N 
ATOM     13  C   UNL     1      -0.916   7.111  -4.000  0.00  0.00    +0.240 A 
ATOM     14  N   UNL     1       0.385   6.962  -3.638  0.00  0.00    -0.201 N 
ATOM     15  N   UNL     1       1.109   7.002  -4.829  0.00  0.00    -0.042 NA
ATOM     16  N   UNL     1       0.247   7.168  -5.779  0.00  0.00    -0.021 NA
ATOM     17  N   UNL     1      -0.947   7.235  -5.296  0.00  0.00    -0.092 NA
ATOM     18  H   UNL     1      -2.956   7.436  -3.288  0.00  0.00    +0.155 HD
ENDROOT
BRANCH  11  19
ATOM     19  C   UNL     1      -0.059   4.497   0.026  0.00  0.00    -0.003 A 
ATOM     20  C   UNL     1       1.148   3.822   0.012  0.00  0.00    +0.009 A 
ATOM     21  C   UNL     1       1.167   2.440   0.004  0.00  0.00    +0.020 A 
ATOM     22  C   UNL     1      -0.021   1.732   0.012  0.00  0.00    +0.041 A 
ATOM     23  C   UNL     1      -1.229   2.407   0.021  0.00  0.00    +0.020 A 
ATOM     24  C   UNL     1      -1.247   3.789   0.034  0.00  0.00    +0.009 A 
ATOM     25 CL   UNL     1       0.002  -0.004   0.002  0.00  0.00    -0.084 Cl
ENDBRANCH  11  19
BRANCH   1  29
ATOM     26  C   UNL     1       2.724  10.405  -0.961  0.00  0.00    +0.000 A 
ATOM     27  C   UNL     1       3.436   9.220  -0.984  0.00  0.00    +0.000 A 
ATOM     28  C   UNL     1       2.823   8.054  -1.405  0.00  0.00    +0.006 A 
ATOM     29  C   UNL     1       1.499   8.074  -1.802  0.00  0.00    -0.019 A 
ATOM     30  C   UNL     1       0.789   9.260  -1.784  0.00  0.00    +0.006 A 
ATOM     31  C   UNL     1       1.401  10.425  -1.358  0.00  0.00    +0.000 A 
ENDBRANCH   1  29
TORSDOF 2
