REMARK  Name = ZINC39325080
REMARK  8 active torsions:
REMARK  status: ('A' for Active; 'I' for Inactive)
REMARK    1  A    between atoms: C_1  and  C_2
REMARK    2  A    between atoms: C_8  and  C_14
REMARK    3  A    between atoms: C_14  and  N_15
REMARK    4  A    between atoms: N_15  and  C_16
REMARK    5  A    between atoms: N_15  and  S_23
REMARK    6  A    between atoms: C_16  and  C_17
REMARK    7  A    between atoms: S_23  and  C_26
REMARK    8  A    between atoms: C_27  and  C_35
REMARK                            x       y       z     vdW  Elec       q    Type
REMARK                         _______ _______ _______ _____ _____    ______ ____
ROOT
ATOM      1  N   UNL     1      -1.216  -2.436   6.169  0.00  0.00    -0.171 NA
ENDROOT
BRANCH   1   2
ATOM      2  S   UNL     1      -0.255  -2.901   7.435  0.00  0.00    +0.064 S 
ATOM      3  O   UNL     1      -0.746  -2.227   8.586  0.00  0.00    -0.153 OA
ATOM      4  O   UNL     1      -0.152  -4.317   7.368  0.00  0.00    -0.153 OA
BRANCH   2   5
ATOM      5  C   UNL     1       1.358  -2.264   7.127  0.00  0.00    +0.136 A 
ATOM      6  C   UNL     1       1.726  -1.073   7.655  0.00  0.00    -0.022 A 
ATOM      7  C   UNL     1       2.995  -0.538   7.433  0.00  0.00    +0.007 A 
ATOM      8  C   UNL     1       3.913  -1.186   6.679  0.00  0.00    +0.031 A 
ATOM      9  C   UNL     1       3.597  -2.441   6.092  0.00  0.00    +0.102 A 
ATOM     10  C   UNL     1       2.272  -3.003   6.329  0.00  0.00    +0.126 A 
ATOM     11  N   UNL     1       2.090  -4.184   5.736  0.00  0.00    -0.189 NA
ATOM     12  S   UNL     1       3.472  -4.508   4.979  0.00  0.00    +0.117 S 
ATOM     13  N   UNL     1       4.367  -3.216   5.327  0.00  0.00    -0.191 NA
ATOM     14  C   UNL     1       0.743  -0.308   8.503  0.00  0.00    +0.046 C 
ENDBRANCH   2   5
ENDBRANCH   1   2
BRANCH   1  15
ATOM     15  C   UNL     1      -1.425  -3.342   5.037  0.00  0.00    +0.126 C 
BRANCH  15  23
ATOM     16  C   UNL     1      -3.273  -8.824   7.087  0.00  0.00    +0.045 C 
ATOM     17  C   UNL     1      -3.294  -8.216   5.708  0.00  0.00    -0.029 A 
ATOM     18  C   UNL     1      -3.485  -9.012   4.624  0.00  0.00    +0.005 A 
ATOM     19  C   UNL     1      -3.515  -8.513   3.321  0.00  0.00    +0.001 A 
ATOM     20  C   UNL     1      -3.353  -7.189   3.066  0.00  0.00    +0.009 A 
ATOM     21  C   UNL     1      -3.142  -6.276   4.190  0.00  0.00    -0.007 A 
ATOM     22  C   UNL     1      -2.975  -4.939   3.982  0.00  0.00    -0.003 C 
ATOM     23  C   UNL     1      -2.762  -4.066   5.204  0.00  0.00    +0.114 C 
ATOM     24  C   UNL     1      -2.754  -4.750   6.552  0.00  0.00    +0.225 C 
ATOM     25  O   UNL     1      -2.588  -4.098   7.566  0.00  0.00    -0.275 OA
ATOM     26  N   UNL     1      -2.928  -6.059   6.626  0.00  0.00    -0.284 N 
ATOM     27  C   UNL     1      -3.120  -6.829   5.555  0.00  0.00    +0.043 A 
ATOM     28  H   UNL     1      -2.919  -6.478   7.501  0.00  0.00    +0.155 HD
ENDBRANCH  15  23
ENDBRANCH   1  15
BRANCH   1  29
ATOM     29  C   UNL     1      -1.856  -1.118   6.180  0.00  0.00    +0.144 C 
BRANCH  29  30
ATOM     30  C   UNL     1      -3.235  -1.235   6.777  0.00  0.00    -0.032 A 
ATOM     31  C   UNL     1      -4.319  -1.505   5.963  0.00  0.00    +0.005 A 
ATOM     32  C   UNL     1      -5.584  -1.612   6.511  0.00  0.00    +0.000 A 
ATOM     33  C   UNL     1      -5.764  -1.450   7.872  0.00  0.00    +0.000 A 
ATOM     34  C   UNL     1      -4.680  -1.181   8.685  0.00  0.00    +0.000 A 
ATOM     35  C   UNL     1      -3.414  -1.078   8.139  0.00  0.00    +0.005 A 
ENDBRANCH  29  30
ENDBRANCH   1  29
TORSDOF 6
