REMARK  Name = ZINC22887422
REMARK  7 active torsions:
REMARK  status: ('A' for Active; 'I' for Inactive)
REMARK    1  A    between atoms: C_1  and  C_2
REMARK    2  A    between atoms: C_4  and  N_27
REMARK    3  A    between atoms: C_7  and  N_8
REMARK    4  A    between atoms: C_9  and  C_11
REMARK    5  A    between atoms: C_13  and  C_21
REMARK    6  A    between atoms: C_17  and  C_20
REMARK    7  A    between atoms: N_30  and  C_33
REMARK                            x       y       z     vdW  Elec       q    Type
REMARK                         _______ _______ _______ _____ _____    ______ ____
ROOT
ATOM      1  N   UNL     1      -3.352   5.069  -5.734  0.00  0.00    -0.281 N 
ATOM      2  C   UNL     1      -4.213   4.307  -6.437  0.00  0.00    +0.249 C 
ATOM      3  O   UNL     1      -4.546   3.218  -6.014  0.00  0.00    -0.270 OA
ATOM      4  H   UNL     1      -3.120   6.090  -6.070  0.00  0.00    +0.155 HD
ENDROOT
BRANCH   2   5
ATOM      5  C   UNL     1      -4.752   4.797  -7.726  0.00  0.00    +0.053 A 
ATOM      6  C   UNL     1      -4.869   6.160  -7.983  0.00  0.00    +0.042 A 
ATOM      7  C   UNL     1      -5.379   6.578  -9.214  0.00  0.00    +0.076 A 
ATOM      8  N   UNL     1      -5.761   5.705 -10.135  0.00  0.00    -0.210 NA
ATOM      9  C   UNL     1      -5.675   4.400  -9.940  0.00  0.00    +0.260 A 
ATOM     10  C   UNL     1      -5.168   3.897  -8.729  0.00  0.00    +0.076 A 
ATOM     11  C   UNL     1      -5.205   2.440  -8.831  0.00  0.00    +0.091 A 
ATOM     12  N   UNL     1      -5.692   2.146  -9.999  0.00  0.00    -0.080 NA
ATOM     13  O   UNL     1      -5.990   3.334 -10.704  0.00  0.00    -0.334 OA
ATOM     14  C   UNL     1      -4.762   1.459  -7.776  0.00  0.00    +0.070 C 
BRANCH   7  15
ATOM     15  C   UNL     1      -5.501   8.028  -9.495  0.00  0.00    +0.000 A 
ATOM     16  C   UNL     1      -5.110   8.962  -8.536  0.00  0.00    +0.010 A 
ATOM     17  C   UNL     1      -5.221  10.311  -8.805  0.00  0.00    +0.001 A 
ATOM     18  C   UNL     1      -5.730  10.738 -10.018  0.00  0.00    +0.000 A 
ATOM     19  C   UNL     1      -6.124   9.816 -10.972  0.00  0.00    +0.001 A 
ATOM     20  C   UNL     1      -6.013   8.464 -10.716  0.00  0.00    +0.010 A 
ENDBRANCH   7  15
ENDBRANCH   2   5
BRANCH   1  27
ATOM     21  C   UNL     1      -2.443   6.917  -3.772  0.00  0.00    +0.046 C 
ATOM     22  C   UNL     1      -2.296   5.428  -3.592  0.00  0.00    -0.027 A 
ATOM     23  C   UNL     1      -1.705   4.927  -2.449  0.00  0.00    +0.028 A 
ATOM     24  C   UNL     1      -1.569   3.555  -2.282  0.00  0.00    +0.030 A 
ATOM     25  C   UNL     1      -2.022   2.687  -3.268  0.00  0.00    +0.025 A 
ATOM     26  C   UNL     1      -2.618   3.188  -4.408  0.00  0.00    +0.025 A 
ATOM     27  C   UNL     1      -2.753   4.561  -4.574  0.00  0.00    +0.037 A 
BRANCH  24  28
ATOM     28  N   UNL     1      -0.972   3.047  -1.124  0.00  0.00    -0.333 N 
ATOM     29  C   UNL     1      -0.930   1.578  -1.153  0.00  0.00    +0.086 C 
ATOM     30  C   UNL     1      -0.199   1.066   0.090  0.00  0.00    -0.060 C 
ATOM     31  N   UNL     1      -0.891   1.546   1.294  0.00  0.00    +0.380 N 
ATOM     32  C   UNL     1      -0.934   3.015   1.324  0.00  0.00    -0.060 C 
ATOM     33  C   UNL     1      -1.664   3.527   0.080  0.00  0.00    +0.086 C 
ATOM     34  C   UNL     1      -0.263   1.013   2.510  0.00  0.00    -0.096 C 
ATOM     35  H   UNL     1      -1.927   1.177   1.261  0.00  0.00    -0.082 HD
ENDBRANCH  24  28
ENDBRANCH   1  27
TORSDOF 4
