REMARK  Name = ZINC37650016
REMARK  7 active torsions:
REMARK  status: ('A' for Active; 'I' for Inactive)
REMARK    1  A    between atoms: C_1  and  C_2
REMARK    2  A    between atoms: C_2  and  C_4
REMARK    3  A    between atoms: C_2  and  N_11
REMARK    4  A    between atoms: N_11  and  C_12
REMARK    5  A    between atoms: C_12  and  C_13
REMARK    6  A    between atoms: C_17  and  S_19
REMARK    7  A    between atoms: S_19  and  N_22
REMARK                            x       y       z     vdW  Elec       q    Type
REMARK                         _______ _______ _______ _____ _____    ______ ____
ROOT
ATOM      1  C   UNL     1      -0.040  -0.119   2.398  0.00  0.00    -0.046 C 
ENDROOT
BRANCH   1   2
ATOM      2  C   UNL     1       0.689  -0.618   3.619  0.00  0.00    -0.063 A 
ATOM      3  C   UNL     1       0.422  -1.880   4.115  0.00  0.00    +0.002 A 
ATOM      4  C   UNL     1       1.090  -2.338   5.235  0.00  0.00    +0.002 A 
ATOM      5  C   UNL     1       2.026  -1.534   5.858  0.00  0.00    +0.028 A 
ATOM      6  C   UNL     1       2.294  -0.273   5.361  0.00  0.00    +0.105 A 
ATOM      7  C   UNL     1       1.629   0.184   4.239  0.00  0.00    +0.030 A 
BRANCH   6   8
ATOM      8  S   UNL     1       3.487   0.752   6.156  0.00  0.00    +0.056 S 
ATOM      9  O   UNL     1       3.159   2.093   5.819  0.00  0.00    -0.153 OA
ATOM     10  O   UNL     1       3.575   0.305   7.501  0.00  0.00    -0.153 OA
BRANCH   8  11
ATOM     11  N   UNL     1       4.953   0.433   5.454  0.00  0.00    -0.204 NA
ATOM     12  H   UNL     1       5.016  -0.222   4.741  0.00  0.00    +0.144 HD
ATOM     13  H   UNL     1       5.747   0.901   5.755  0.00  0.00    +0.144 HD
ENDBRANCH   8  11
ENDBRANCH   6   8
ENDBRANCH   1   2
BRANCH   1  14
ATOM     14  N   UNL     1       0.713  -0.491   1.192  0.00  0.00    +0.386 N 
ATOM     15  H   UNL     1       0.798  -1.495   1.145  0.00  0.00    -0.085 HD
ATOM     16  H   UNL     1       1.632  -0.076   1.228  0.00  0.00    -0.085 HD
BRANCH  14  18
ATOM     17  C   UNL     1      -0.019   1.526   0.010  0.00  0.00    -0.009 C 
ATOM     18  C   UNL     1       0.002  -0.004   0.002  0.00  0.00    -0.044 C 
BRANCH  18  19
ATOM     19  C   UNL     1       0.707  -0.490  -1.238  0.00  0.00    -0.062 A 
ATOM     20  C   UNL     1       2.089  -0.511  -1.284  0.00  0.00    +0.003 A 
ATOM     21  C   UNL     1       2.736  -0.956  -2.421  0.00  0.00    +0.014 A 
ATOM     22  C   UNL     1       2.002  -1.382  -3.513  0.00  0.00    +0.013 A 
ATOM     23  C   UNL     1       0.620  -1.361  -3.466  0.00  0.00    +0.014 A 
ATOM     24  C   UNL     1      -0.027  -0.920  -2.327  0.00  0.00    +0.003 A 
ATOM     25  I   UNL     1       2.982  -2.057  -5.237  0.00  0.00    -0.044 I 
ENDBRANCH  18  19
ENDBRANCH  14  18
ENDBRANCH   1  14
TORSDOF 6
