REMARK  Name = ZINC14484708
REMARK  8 active torsions:
REMARK  status: ('A' for Active; 'I' for Inactive)
REMARK    1  A    between atoms: C_1  and  C_2
REMARK    2  A    between atoms: C_2  and  C_4
REMARK    3  A    between atoms: C_2  and  N_13
REMARK    4  A    between atoms: C_14  and  C_16
REMARK    5  A    between atoms: N_19  and  S_22
REMARK    6  A    between atoms: S_22  and  C_25
REMARK    7  A    between atoms: C_27  and  C_31
REMARK    8  A    between atoms: N_28  and  C_30
REMARK                            x       y       z     vdW  Elec       q    Type
REMARK                         _______ _______ _______ _____ _____    ______ ____
ROOT
ATOM      1  C   UNL     1      -1.975   1.648  -4.003  0.00  0.00    +0.077 C 
ATOM      2  C   UNL     1      -0.779   2.465  -3.510  0.00  0.00    +0.030 C 
ATOM      3  C   UNL     1      -0.960   2.781  -2.022  0.00  0.00    +0.110 C 
ATOM      4  N   UNL     1      -1.172   1.523  -1.294  0.00  0.00    -0.176 NA
ATOM      5  C   UNL     1      -2.236   0.616  -1.746  0.00  0.00    +0.110 C 
ATOM      6  C   UNL     1      -2.044   0.327  -3.234  0.00  0.00    +0.030 C 
ENDROOT
BRANCH   1   8
ATOM      7  N   UNL     1      -2.756   0.654  -6.129  0.00  0.00    -0.309 N 
ATOM      8  C   UNL     1      -1.816   1.364  -5.475  0.00  0.00    +0.217 C 
ATOM      9  O   UNL     1      -0.843   1.776  -6.070  0.00  0.00    -0.275 OA
ATOM     10  H   UNL     1      -3.535   0.325  -5.653  0.00  0.00    +0.149 HD
BRANCH   7  12
ATOM     11  C   UNL     1      -3.143   1.560  -8.368  0.00  0.00    +0.033 C 
ATOM     12  C   UNL     1      -2.602   0.378  -7.560  0.00  0.00    +0.100 C 
BRANCH  12  13
ATOM     13  C   UNL     1      -3.371  -0.868  -7.917  0.00  0.00    -0.024 A 
ATOM     14  C   UNL     1      -4.612  -1.099  -7.352  0.00  0.00    +0.009 A 
ATOM     15  C   UNL     1      -5.323  -2.238  -7.679  0.00  0.00    +0.050 A 
ATOM     16  C   UNL     1      -4.789  -3.156  -8.569  0.00  0.00    +0.166 A 
ATOM     17  C   UNL     1      -3.537  -2.926  -9.134  0.00  0.00    +0.167 A 
ATOM     18  C   UNL     1      -2.832  -1.780  -8.805  0.00  0.00    +0.055 A 
ATOM     19  O   UNL     1      -3.237  -3.966  -9.966  0.00  0.00    -0.453 OA
ATOM     20  C   UNL     1      -4.489  -4.630 -10.219  0.00  0.00    +0.466 C 
ATOM     21  O   UNL     1      -5.273  -4.340  -9.047  0.00  0.00    -0.453 OA
ENDBRANCH  12  13
ENDBRANCH   7  12
ENDBRANCH   1   8
BRANCH   4  22
ATOM     22  S   UNL     1      -0.226   1.131   0.008  0.00  0.00    +0.062 S 
ATOM     23  O   UNL     1      -0.269  -0.284   0.129  0.00  0.00    -0.153 OA
ATOM     24  O   UNL     1       0.992   1.846  -0.146  0.00  0.00    -0.153 OA
BRANCH  22  25
ATOM     25  C   UNL     1      -1.016   1.784   1.441  0.00  0.00    +0.124 A 
ATOM     26  C   UNL     1      -1.957   1.121   2.236  0.00  0.00    +0.061 A 
ATOM     27  C   UNL     1      -2.315   1.988   3.247  0.00  0.00    +0.106 A 
ATOM     28  N   UNL     1      -1.603   3.152   3.066  0.00  0.00    -0.344 N 
ATOM     29  C   UNL     1      -0.816   3.013   1.972  0.00  0.00    +0.114 A 
ATOM     30  C   UNL     1      -1.680   4.341   3.919  0.00  0.00    +0.149 C 
BRANCH  27  31
ATOM     31  C   UNL     1      -3.279   1.719   4.319  0.00  0.00    +0.258 C 
ATOM     32  O   UNL     1      -3.433   2.527   5.216  0.00  0.00    -0.269 OA
ATOM     33  N   UNL     1      -3.994   0.576   4.311  0.00  0.00    -0.324 N 
ATOM     34  H   UNL     1      -3.819  -0.101   3.639  0.00  0.00    +0.145 HD
ATOM     35  H   UNL     1      -4.682   0.430   4.979  0.00  0.00    +0.145 HD
ENDBRANCH  27  31
ENDBRANCH  22  25
ENDBRANCH   4  22
TORSDOF 6
