REMARK  Name = ZINC38903791
REMARK  13 active torsions:
REMARK  status: ('A' for Active; 'I' for Inactive)
REMARK    1  A    between atoms: C_1  and  C_2
REMARK    2  A    between atoms: N_7  and  C_9
REMARK    3  A    between atoms: C_12  and  C_15
REMARK    4  A    between atoms: C_15  and  C_17
REMARK    5  A    between atoms: C_15  and  N_18
REMARK    6  A    between atoms: C_19  and  C_21
REMARK    7  A    between atoms: N_26  and  C_28
REMARK    8  A    between atoms: C_28  and  C_29
REMARK    9  A    between atoms: C_31  and  C_34
REMARK   10  A    between atoms: C_37  and  C_40
REMARK   11  A    between atoms: C_40  and  C_41
REMARK   12  A    between atoms: C_40  and  C_42
REMARK   13  A    between atoms: C_40  and  C_43
REMARK                            x       y       z     vdW  Elec       q    Type
REMARK                         _______ _______ _______ _____ _____    ______ ____
ROOT
ATOM      1  C   UNL     1       1.011  -8.278   6.821  0.00  0.00    +0.058 C 
ATOM      2  C   UNL     1       0.561  -9.373   5.850  0.00  0.00    +0.009 C 
ATOM      3  C   UNL     1       1.449 -10.606   6.039  0.00  0.00    -0.018 C 
ATOM      4  C   UNL     1       1.377 -11.060   7.499  0.00  0.00    -0.078 C 
ATOM      5  N   UNL     1       1.844  -9.980   8.375  0.00  0.00    +0.386 N 
ATOM      6  C   UNL     1       0.956  -8.818   8.252  0.00  0.00    -0.065 C 
ATOM      7  H   UNL     1       2.781  -9.714   8.110  0.00  0.00    -0.081 HD
ENDROOT
BRANCH   1   9
ATOM      8  N   UNL     1      -0.019  -6.446   5.517  0.00  0.00    -0.309 N 
ATOM      9  C   UNL     1       0.096  -7.087   6.697  0.00  0.00    +0.215 C 
ATOM     10  O   UNL     1      -0.538  -6.706   7.658  0.00  0.00    -0.276 OA
ATOM     11  H   UNL     1       0.488  -6.750   4.748  0.00  0.00    +0.149 HD
BRANCH   8  12
ATOM     12  C   UNL     1      -0.909  -5.288   5.396  0.00  0.00    +0.100 C 
ATOM     13  C   UNL     1      -2.333  -5.768   5.107  0.00  0.00    +0.033 C 
BRANCH  12  17
ATOM     14  C   UNL     1       0.431  -2.790   2.198  0.00  0.00    +0.030 A 
ATOM     15  C   UNL     1      -0.037  -2.222   3.375  0.00  0.00    +0.023 A 
ATOM     16  C   UNL     1      -0.470  -3.032   4.407  0.00  0.00    +0.007 A 
ATOM     17  C   UNL     1      -0.437  -4.407   4.268  0.00  0.00    -0.027 A 
ATOM     18  C   UNL     1       0.029  -4.976   3.097  0.00  0.00    +0.007 A 
ATOM     19  C   UNL     1       0.458  -4.172   2.060  0.00  0.00    +0.023 A 
BRANCH  14  25
ATOM     20  C   UNL     1       3.428  -2.393  -1.607  0.00  0.00    +0.009 C 
ATOM     21  C   UNL     1       2.839  -1.894  -0.286  0.00  0.00    +0.003 C 
ATOM     22  C   UNL     1       2.657  -0.376  -0.349  0.00  0.00    +0.006 C 
ATOM     23  C   UNL     1       2.098   0.128   0.984  0.00  0.00    +0.019 C 
ATOM     24  C   UNL     1       0.729  -0.513   1.234  0.00  0.00    +0.105 C 
ATOM     25  N   UNL     1       0.869  -1.973   1.153  0.00  0.00    -0.330 N 
ATOM     26  C   UNL     1       1.479  -2.559  -0.049  0.00  0.00    +0.108 C 
ENDBRANCH  14  25
ENDBRANCH  12  17
ENDBRANCH   8  12
ENDBRANCH   1   9
BRANCH   5  27
ATOM     27  C   UNL     1       1.847 -10.447   9.768  0.00  0.00    +0.022 C 
BRANCH  27  28
ATOM     28  C   UNL     1       2.857 -11.554   9.925  0.00  0.00    +0.211 A 
ATOM     29  N   UNL     1       4.110 -11.401  10.247  0.00  0.00    -0.193 NA
ATOM     30  C   UNL     1       4.722 -12.598  10.298  0.00  0.00    +0.202 A 
ATOM     31  N   UNL     1       3.847 -13.528  10.005  0.00  0.00    -0.056 NA
ATOM     32  O   UNL     1       2.617 -12.861   9.762  0.00  0.00    -0.340 OA
BRANCH  30  33
ATOM     33  C   UNL     1       6.150 -12.826  10.631  0.00  0.00    +0.022 A 
ATOM     34  C   UNL     1       6.979 -11.747  10.931  0.00  0.00    +0.012 A 
ATOM     35  C   UNL     1       8.307 -11.965  11.239  0.00  0.00    +0.005 A 
ATOM     36  C   UNL     1       8.814 -13.252  11.251  0.00  0.00    -0.042 A 
ATOM     37  C   UNL     1       7.995 -14.327  10.954  0.00  0.00    +0.005 A 
ATOM     38  C   UNL     1       6.665 -14.120  10.650  0.00  0.00    +0.012 A 
BRANCH  36  39
ATOM     39  C   UNL     1      10.264 -13.484  11.588  0.00  0.00    -0.013 C 
ATOM     40  C   UNL     1      10.551 -12.959  12.996  0.00  0.00    +0.015 C 
ATOM     41  C   UNL     1      10.568 -14.982  11.531  0.00  0.00    +0.015 C 
ATOM     42  C   UNL     1      11.147 -12.746  10.579  0.00  0.00    +0.015 C 
ENDBRANCH  36  39
ENDBRANCH  30  33
ENDBRANCH  27  28
ENDBRANCH   5  27
TORSDOF 8
