REMARK  Name = ZINC12660831
REMARK  7 active torsions:
REMARK  status: ('A' for Active; 'I' for Inactive)
REMARK    1  A    between atoms: C_1  and  N_48
REMARK    2  A    between atoms: C_8  and  O_23
REMARK    3  A    between atoms: C_10  and  C_12
REMARK    4  A    between atoms: C_12  and  C_13
REMARK    5  A    between atoms: C_13  and  C_15
REMARK    6  A    between atoms: C_13  and  O_22
REMARK    7  A    between atoms: O_23  and  C_24
REMARK                            x       y       z     vdW  Elec       q    Type
REMARK                         _______ _______ _______ _____ _____    ______ ____
ROOT
ATOM      1  C   UNL     1       2.171   1.988   1.143  0.00  0.00    -0.095 C 
ATOM      2  C   UNL     1       2.236   2.100   3.562  0.00  0.00    -0.074 C 
ATOM      3  C   UNL     1       1.555   2.791   4.743  0.00  0.00    +0.017 C 
ATOM      4  C   UNL     1       0.105   2.384   4.812  0.00  0.00    -0.040 A 
ATOM      5  C   UNL     1      -0.588   2.612   5.991  0.00  0.00    +0.053 A 
ATOM      6  C   UNL     1      -1.923   2.262   6.100  0.00  0.00    +0.170 A 
ATOM      7  C   UNL     1      -2.573   1.678   5.017  0.00  0.00    +0.208 A 
ATOM      8  C   UNL     1      -1.876   1.451   3.839  0.00  0.00    +0.167 A 
ATOM      9  C   UNL     1      -0.534   1.803   3.737  0.00  0.00    -0.012 A 
ATOM     10  C   UNL     1       0.181   1.532   2.439  0.00  0.00    -0.031 C 
ATOM     11  O   UNL     1      -3.869   1.429   5.368  0.00  0.00    -0.449 OA
ATOM     12  C   UNL     1      -3.896   1.490   6.807  0.00  0.00    +0.467 C 
ATOM     13  O   UNL     1      -2.811   2.378   7.131  0.00  0.00    -0.452 OA
ATOM     14  N   UNL     1       1.409   2.339   2.362  0.00  0.00    +0.383 N 
ATOM     15  H   UNL     1       1.156   3.333   2.323  0.00  0.00    -0.081 HD
ENDROOT
BRANCH   8  16
ATOM     16  O   UNL     1      -2.508   0.880   2.779  0.00  0.00    -0.491 OA
ATOM     17  C   UNL     1      -2.474  -0.546   2.694  0.00  0.00    +0.277 C 
ENDBRANCH   8  16
BRANCH  10  18
ATOM     18  C   UNL     1      -0.733   1.909   1.272  0.00  0.00    +0.025 C 
BRANCH  18  19
ATOM     19  C   UNL     1      -1.211   3.352   1.443  0.00  0.00    +0.143 C 
BRANCH  19  20
ATOM     20  C   UNL     1      -2.214   3.680   0.368  0.00  0.00    -0.019 A 
ATOM     21  C   UNL     1      -1.781   4.017  -0.901  0.00  0.00    +0.007 A 
ATOM     22  C   UNL     1      -2.701   4.314  -1.889  0.00  0.00    +0.015 A 
ATOM     23  C   UNL     1      -4.055   4.284  -1.605  0.00  0.00    +0.018 A 
ATOM     24  C   UNL     1      -4.487   3.952  -0.334  0.00  0.00    +0.015 A 
ATOM     25  C   UNL     1      -3.567   3.651   0.652  0.00  0.00    +0.007 A 
ATOM     26 BR   UNL     1      -5.314   4.696  -2.955  0.00  0.00    -0.050 Br
ENDBRANCH  19  20
BRANCH  19  27
ATOM     27  O   UNL     1      -0.095   4.239   1.341  0.00  0.00    -0.387 OA
ATOM     28  H   UNL     1       0.369   4.191   0.494  0.00  0.00    +0.210 HD
ENDBRANCH  19  27
ENDBRANCH  18  19
ENDBRANCH  10  18
TORSDOF 5
