REMARK  Name = ZINC15958453
REMARK  5 active torsions:
REMARK  status: ('A' for Active; 'I' for Inactive)
REMARK    1  A    between atoms: C_1  and  C_2
REMARK    2  A    between atoms: C_17  and  C_20
REMARK    3  A    between atoms: C_20  and  C_21
REMARK    4  A    between atoms: N_26  and  C_29
REMARK    5  A    between atoms: C_32  and  C_35
REMARK                            x       y       z     vdW  Elec       q    Type
REMARK                         _______ _______ _______ _____ _____    ______ ____
ROOT
ATOM      1  C   UNL     1       3.250   1.710  -1.563  0.00  0.00    +0.044 C 
ATOM      2  C   UNL     1       3.160   0.220  -1.358  0.00  0.00    -0.049 A 
ATOM      3  C   UNL     1       2.301  -0.537  -2.135  0.00  0.00    +0.011 A 
ATOM      4  C   UNL     1       2.220  -1.898  -1.949  0.00  0.00    +0.005 A 
ATOM      5  C   UNL     1       2.997  -2.529  -0.981  0.00  0.00    +0.057 A 
ATOM      6  C   UNL     1       3.860  -1.760  -0.202  0.00  0.00    +0.063 A 
ATOM      7  C   UNL     1       3.941  -0.396  -0.398  0.00  0.00    +0.025 A 
ATOM      8 CL   UNL     1       4.839  -2.521   1.012  0.00  0.00    -0.082 Cl
ATOM      9  N   UNL     1       2.744  -3.903  -0.978  0.00  0.00    -0.282 N 
ATOM     10  C   UNL     1       1.827  -4.252  -1.901  0.00  0.00    +0.243 C 
ATOM     11  O   UNL     1       1.415  -5.370  -2.125  0.00  0.00    -0.273 OA
ATOM     12  C   UNL     1       1.415  -2.986  -2.602  0.00  0.00    +0.136 C 
ATOM     13  C   UNL     1      -0.091  -2.735  -2.463  0.00  0.00    +0.123 C 
ATOM     14  C   UNL     1      -0.699  -3.263  -3.793  0.00  0.00    +0.108 C 
ATOM     15  C   UNL     1       0.506  -3.805  -4.592  0.00  0.00    +0.076 C 
ATOM     16  N   UNL     1       1.682  -3.061  -4.050  0.00  0.00    -0.295 NA
ATOM     17  C   UNL     1      -1.234  -2.013  -4.454  0.00  0.00    +0.232 C 
ATOM     18  O   UNL     1      -1.788  -1.973  -5.531  0.00  0.00    -0.274 OA
ATOM     19  N   UNL     1      -1.000  -0.959  -3.664  0.00  0.00    -0.210 N 
ATOM     20  C   UNL     1      -0.365  -1.248  -2.505  0.00  0.00    +0.233 C 
ATOM     21  O   UNL     1      -0.061  -0.456  -1.639  0.00  0.00    -0.274 OA
ATOM     22  H   UNL     1       3.178  -4.532  -0.381  0.00  0.00    +0.155 HD
ATOM     23  H   UNL     1       1.755  -2.139  -4.453  0.00  0.00    +0.124 HD
ENDROOT
BRANCH  19  24
ATOM     24  C   UNL     1      -1.386   0.341  -4.005  0.00  0.00    +0.044 A 
ATOM     25  C   UNL     1      -2.373   0.987  -3.269  0.00  0.00    +0.025 A 
ATOM     26  C   UNL     1      -2.756   2.267  -3.602  0.00  0.00    +0.015 A 
ATOM     27  C   UNL     1      -2.150   2.918  -4.680  0.00  0.00    +0.037 A 
ATOM     28  C   UNL     1      -1.158   2.266  -5.417  0.00  0.00    +0.015 A 
ATOM     29  C   UNL     1      -0.777   0.987  -5.075  0.00  0.00    +0.025 A 
BRANCH  27  30
ATOM     30  C   UNL     1      -2.558   4.290  -5.041  0.00  0.00    +0.242 C 
ATOM     31  O   UNL     1      -3.422   4.856  -4.399  0.00  0.00    -0.270 OA
ATOM     32  N   UNL     1      -1.972   4.916  -6.081  0.00  0.00    -0.325 N 
ATOM     33  H   UNL     1      -1.283   4.465  -6.593  0.00  0.00    +0.145 HD
ATOM     34  H   UNL     1      -2.240   5.817  -6.318  0.00  0.00    +0.145 HD
ENDBRANCH  27  30
ENDBRANCH  19  24
BRANCH  15  35
ATOM     35  C   UNL     1       0.652  -5.313  -4.376  0.00  0.00    +0.115 C 
BRANCH  35  36
ATOM     36  C   UNL     1      -0.116  -6.050  -5.442  0.00  0.00    +0.212 C 
ATOM     37  O   UNL     1      -0.721  -5.431  -6.291  0.00  0.00    -0.276 OA
ATOM     38  N   UNL     1      -0.130  -7.398  -5.452  0.00  0.00    -0.329 N 
ATOM     39  H   UNL     1       0.354  -7.893  -4.773  0.00  0.00    +0.145 HD
ATOM     40  H   UNL     1      -0.625  -7.872  -6.139  0.00  0.00    +0.145 HD
ENDBRANCH  35  36
ENDBRANCH  15  35
TORSDOF 4
