REMARK  Name = ZINC14607524
REMARK  9 active torsions:
REMARK  status: ('A' for Active; 'I' for Inactive)
REMARK    1  A    between atoms: C_1  and  C_2
REMARK    2  A    between atoms: C_2  and  O_3
REMARK    3  A    between atoms: O_3  and  C_4
REMARK    4  A    between atoms: C_9  and  N_10
REMARK    5  A    between atoms: C_11  and  C_13
REMARK    6  A    between atoms: C_14  and  C_28
REMARK    7  A    between atoms: C_18  and  C_19
REMARK    8  A    between atoms: C_23  and  C_27
REMARK    9  A    between atoms: C_24  and  C_26
REMARK                            x       y       z     vdW  Elec       q    Type
REMARK                         _______ _______ _______ _____ _____    ______ ____
ROOT
ATOM      1  C   UNL     1       2.336   1.316  -0.013  0.00  0.00    +0.079 A 
ATOM      2  C   UNL     1       1.109   1.992   0.005  0.00  0.00    +0.056 A 
ATOM      3  N   UNL     1      -0.008   1.290   0.012  0.00  0.00    -0.219 NA
ATOM      4  C   UNL     1       0.020  -0.036   0.003  0.00  0.00    +0.221 A 
ATOM      5  N   UNL     1       1.161  -0.713  -0.013  0.00  0.00    -0.219 NA
ATOM      6  C   UNL     1       2.322  -0.085  -0.022  0.00  0.00    +0.056 A 
ATOM      7  C   UNL     1       3.612  -0.864  -0.040  0.00  0.00    +0.066 C 
ATOM      8  N   UNL     1      -1.173  -0.733   0.011  0.00  0.00    -0.263 N 
ATOM      9  C   UNL     1      -1.166  -2.121   0.002  0.00  0.00    +0.165 A 
ATOM     10  N   UNL     1      -2.188  -2.955   0.008  0.00  0.00    -0.230 NA
ATOM     11  C   UNL     1      -2.004  -4.261  -0.003  0.00  0.00    +0.050 A 
ATOM     12  C   UNL     1      -0.735  -4.734  -0.020  0.00  0.00    +0.011 A 
ATOM     13  S   UNL     1       0.190  -3.205  -0.027  0.00  0.00    -0.057 S 
ATOM     14  C   UNL     1      -0.239  -6.158  -0.035  0.00  0.00    +0.053 C 
ATOM     15  C   UNL     1      -3.179  -5.205   0.004  0.00  0.00    +0.066 C 
ATOM     16  C   UNL     1       1.066   3.498   0.014  0.00  0.00    +0.066 C 
ATOM     17  H   UNL     1      -2.015  -0.252   0.024  0.00  0.00    +0.157 HD
ENDROOT
BRANCH   1  19
ATOM     18  N   UNL     1       4.204   2.392   1.143  0.00  0.00    -0.278 N 
ATOM     19  C   UNL     1       3.610   2.060  -0.021  0.00  0.00    +0.252 C 
ATOM     20  O   UNL     1       4.125   2.373  -1.077  0.00  0.00    -0.270 OA
ATOM     21  H   UNL     1       3.756   2.213   1.984  0.00  0.00    +0.155 HD
BRANCH  18  27
ATOM     22  C   UNL     1       5.870   3.786   2.210  0.00  0.00    +0.142 A 
ATOM     23  C   UNL     1       7.122   4.380   2.199  0.00  0.00    +0.047 A 
ATOM     24  C   UNL     1       7.970   4.185   1.125  0.00  0.00    +0.004 A 
ATOM     25  C   UNL     1       7.572   3.399   0.058  0.00  0.00    +0.002 A 
ATOM     26  C   UNL     1       6.327   2.800   0.064  0.00  0.00    +0.027 A 
ATOM     27  C   UNL     1       5.468   2.994   1.137  0.00  0.00    +0.076 A 
BRANCH  22  28
ATOM     28  O   UNL     1       5.035   3.976   3.267  0.00  0.00    -0.490 OA
BRANCH  28  30
ATOM     29  C   UNL     1       4.445   4.896   5.422  0.00  0.00    +0.048 C 
ATOM     30  C   UNL     1       5.514   4.800   4.332  0.00  0.00    +0.226 C 
ENDBRANCH  28  30
ENDBRANCH  22  28
ENDBRANCH  18  27
ENDBRANCH   1  19
TORSDOF 4
