REMARK  Name = ZINC28955914
REMARK  7 active torsions:
REMARK  status: ('A' for Active; 'I' for Inactive)
REMARK    1  A    between atoms: C_3  and  C_8
REMARK    2  A    between atoms: C_9  and  S_10
REMARK    3  A    between atoms: S_10  and  N_13
REMARK    4  A    between atoms: N_13  and  C_14
REMARK    5  A    between atoms: C_14  and  C_15
REMARK    6  A    between atoms: C_21  and  C_23
REMARK    7  A    between atoms: N_26  and  C_29
REMARK                            x       y       z     vdW  Elec       q    Type
REMARK                         _______ _______ _______ _____ _____    ______ ____
ROOT
ATOM      1  C   UNL     1      -5.780   1.121  -3.209  0.00  0.00    +0.023 C 
ATOM      2  C   UNL     1      -4.607   1.514  -4.145  0.00  0.00    +0.025 C 
ATOM      3  C   UNL     1      -4.616   0.388  -5.201  0.00  0.00    +0.108 C 
ATOM      4  N   UNL     1      -5.295  -0.768  -4.600  0.00  0.00    -0.301 N 
ATOM      5  C   UNL     1      -5.683  -0.425  -3.220  0.00  0.00    +0.112 C 
ATOM      6  C   UNL     1      -5.526  -1.948  -5.210  0.00  0.00    +0.219 C 
ATOM      7  O   UNL     1      -5.243  -2.091  -6.381  0.00  0.00    -0.275 OA
ENDROOT
BRANCH   6   8
ATOM      8  C   UNL     1      -6.133  -3.090  -4.437  0.00  0.00    +0.078 C 
ATOM      9  C   UNL     1      -5.019  -3.971  -3.866  0.00  0.00    +0.031 C 
ATOM     10  C   UNL     1      -5.642  -5.163  -3.135  0.00  0.00    +0.106 C 
ATOM     11  N   UNL     1      -6.472  -5.934  -4.070  0.00  0.00    -0.330 N 
ATOM     12  C   UNL     1      -7.577  -5.122  -4.594  0.00  0.00    +0.106 C 
ATOM     13  C   UNL     1      -7.011  -3.929  -5.370  0.00  0.00    +0.031 C 
BRANCH  11  14
ATOM     14  C   UNL     1      -6.948  -7.097  -3.471  0.00  0.00    +0.032 A 
ATOM     15  C   UNL     1      -8.316  -7.366  -3.419  0.00  0.00    +0.040 A 
ATOM     16  C   UNL     1      -8.747  -8.532  -2.822  0.00  0.00    +0.084 A 
ATOM     17  N   UNL     1      -7.885  -9.382  -2.296  0.00  0.00    -0.367 N 
ATOM     18  C   UNL     1      -6.583  -9.160  -2.320  0.00  0.00    +0.084 A 
ATOM     19  C   UNL     1      -6.071  -8.021  -2.904  0.00  0.00    +0.040 A 
ATOM     20  H   UNL     1      -8.244 -10.305  -1.819  0.00  0.00    +0.165 HD
ENDBRANCH  11  14
ENDBRANCH   6   8
BRANCH   1  21
ATOM     21  C   UNL     1      -5.564   1.674  -1.798  0.00  0.00    +0.111 C 
BRANCH  21  22
ATOM     22  N   UNL     1      -5.705   3.132  -1.818  0.00  0.00    -0.190 NA
ATOM     23  H   UNL     1      -5.523   3.689  -2.748  0.00  0.00    +0.148 HD
BRANCH  22  24
ATOM     24  S   UNL     1      -5.894   3.965  -0.399  0.00  0.00    +0.052 S 
ATOM     25  O   UNL     1      -6.918   3.300   0.329  0.00  0.00    -0.154 OA
ATOM     26  O   UNL     1      -5.976   5.341  -0.744  0.00  0.00    -0.154 OA
BRANCH  24  28
ATOM     27  C   UNL     1      -3.636   4.812   0.776  0.00  0.00    +0.028 C 
ATOM     28  C   UNL     1      -4.408   3.764   0.525  0.00  0.00    +0.153 C 
BRANCH  27  31
ATOM     29  C   UNL     1      -0.847   3.228   2.729  0.00  0.00    +0.002 A 
ATOM     30  C   UNL     1      -2.018   3.381   2.015  0.00  0.00    +0.008 A 
ATOM     31  C   UNL     1      -2.386   4.643   1.546  0.00  0.00    -0.022 A 
ATOM     32  C   UNL     1      -1.573   5.745   1.812  0.00  0.00    +0.028 A 
ATOM     33  C   UNL     1      -0.406   5.579   2.532  0.00  0.00    +0.042 A 
ATOM     34  C   UNL     1      -0.044   4.324   2.989  0.00  0.00    +0.020 A 
ATOM     35 CL   UNL     1       0.609   6.948   2.864  0.00  0.00    -0.084 Cl
ENDBRANCH  27  31
ENDBRANCH  24  28
ENDBRANCH  22  24
ENDBRANCH  21  22
ENDBRANCH   1  21
TORSDOF 7
