REMARK  Name = ZINC39926972
REMARK  12 active torsions:
REMARK  status: ('A' for Active; 'I' for Inactive)
REMARK    1  A    between atoms: C_1  and  C_2
REMARK    2  A    between atoms: C_6  and  S_10
REMARK    3  A    between atoms: S_10  and  C_11
REMARK    4  A    between atoms: C_11  and  C_12
REMARK    5  A    between atoms: N_14  and  C_15
REMARK    6  A    between atoms: C_18  and  S_21
REMARK    7  A    between atoms: S_21  and  N_24
REMARK    8  A    between atoms: N_24  and  C_25
REMARK    9  A    between atoms: C_25  and  C_26
REMARK   10  A    between atoms: C_25  and  C_27
REMARK   11  A    between atoms: C_25  and  C_28
REMARK   12  A    between atoms: C_30  and  C_32
REMARK                            x       y       z     vdW  Elec       q    Type
REMARK                         _______ _______ _______ _____ _____    ______ ____
ROOT
ATOM      1  C   UNL     1       0.445   0.063 -10.179  0.00  0.00    +0.227 C 
ATOM      2  O   UNL     1       0.361   0.239 -11.376  0.00  0.00    -0.275 OA
ATOM      3  N   UNL     1       0.393  -1.187  -9.677  0.00  0.00    -0.285 N 
ATOM      4  H   UNL     1       0.530  -1.334  -8.728  0.00  0.00    +0.155 HD
ENDROOT
BRANCH   3   5
ATOM      5  C   UNL     1       0.143  -2.272 -10.525  0.00  0.00    +0.034 A 
ATOM      6  C   UNL     1      -0.616  -3.345 -10.076  0.00  0.00    +0.025 A 
ATOM      7  C   UNL     1      -0.861  -4.414 -10.915  0.00  0.00    +0.030 A 
ATOM      8  C   UNL     1      -0.352  -4.417 -12.201  0.00  0.00    +0.105 A 
ATOM      9  C   UNL     1       0.404  -3.350 -12.650  0.00  0.00    +0.030 A 
ATOM     10  C   UNL     1       0.648  -2.275 -11.818  0.00  0.00    +0.025 A 
BRANCH   8  11
ATOM     11  S   UNL     1      -0.667  -5.783 -13.268  0.00  0.00    +0.059 S 
ATOM     12  O   UNL     1       0.179  -5.619 -14.398  0.00  0.00    -0.153 OA
ATOM     13  O   UNL     1      -0.637  -6.948 -12.456  0.00  0.00    -0.153 OA
BRANCH  11  14
ATOM     14  N   UNL     1      -2.222  -5.627 -13.816  0.00  0.00    -0.185 NA
ATOM     15  H   UNL     1      -2.918  -6.208 -13.471  0.00  0.00    +0.149 HD
BRANCH  14  16
ATOM     16  C   UNL     1      -2.547  -4.613 -14.822  0.00  0.00    +0.032 C 
ATOM     17  C   UNL     1      -1.869  -4.972 -16.145  0.00  0.00    +0.029 C 
ATOM     18  C   UNL     1      -4.063  -4.560 -15.022  0.00  0.00    +0.029 C 
ATOM     19  C   UNL     1      -2.047  -3.247 -14.348  0.00  0.00    +0.029 C 
ENDBRANCH  14  16
ENDBRANCH  11  14
ENDBRANCH   8  11
ENDBRANCH   3   5
BRANCH   1  20
ATOM     20  C   UNL     1       0.607   1.241  -9.253  0.00  0.00    +0.173 C 
BRANCH  20  21
ATOM     21  S   UNL     1       0.642   2.773 -10.224  0.00  0.00    -0.079 S 
BRANCH  21  27
ATOM     22  C   UNL     1       1.384   6.899  -4.817  0.00  0.00    +0.041 C 
ATOM     23  C   UNL     1       1.277   7.079  -6.310  0.00  0.00    -0.034 C 
ATOM     24  C   UNL     1       1.133   6.027  -7.125  0.00  0.00    +0.071 C 
ATOM     25  C   UNL     1       1.035   6.292  -8.578  0.00  0.00    +0.113 C 
ATOM     26  N   UNL     1       0.894   5.307  -9.427  0.00  0.00    -0.217 NA
ATOM     27  C   UNL     1       0.834   4.040  -9.015  0.00  0.00    +0.182 C 
ATOM     28  N   UNL     1       0.910   3.689  -7.743  0.00  0.00    -0.151 NA
ATOM     29  C   UNL     1       1.055   4.575  -6.759  0.00  0.00    +0.272 C 
ATOM     30  O   UNL     1       1.123   4.217  -5.595  0.00  0.00    -0.268 OA
ATOM     31  S   UNL     1       1.154   8.057  -8.723  0.00  0.00    -0.086 S 
ATOM     32  C   UNL     1       1.322   8.455  -6.936  0.00  0.00    +0.192 C 
BRANCH  32  33
ATOM     33  C   UNL     1       0.171   9.303  -6.459  0.00  0.00    +0.373 C 
ATOM     34  O   UNL     1       0.364  10.457  -6.118  0.00  0.00    -0.245 OA
ATOM     35  O   UNL     1      -0.954   8.834  -6.414  0.00  0.00    -0.245 OA
ENDBRANCH  32  33
ENDBRANCH  21  27
ENDBRANCH  20  21
ENDBRANCH   1  20
TORSDOF 8
