REMARK  Name = ZINC05369365
REMARK  11 active torsions:
REMARK  status: ('A' for Active; 'I' for Inactive)
REMARK    1  A    between atoms: C_1  and  C_2
REMARK    2  A    between atoms: C_4  and  O_39
REMARK    3  A    between atoms: C_6  and  O_38
REMARK    4  A    between atoms: C_8  and  O_37
REMARK    5  A    between atoms: C_10  and  O_13
REMARK    6  A    between atoms: O_13  and  C_14
REMARK    7  A    between atoms: C_16  and  C_29
REMARK    8  A    between atoms: C_21  and  O_28
REMARK    9  A    between atoms: C_23  and  O_27
REMARK   10  A    between atoms: C_32  and  O_36
REMARK   11  A    between atoms: C_33  and  O_35
REMARK                            x       y       z     vdW  Elec       q    Type
REMARK                         _______ _______ _______ _____ _____    ______ ____
ROOT
ATOM      1  C   UNL     1      -2.804   1.449   2.452  0.00  0.00    +0.237 C 
ATOM      2  C   UNL     1      -3.901   0.401   2.689  0.00  0.00    +0.240 C 
ATOM      3  O   UNL     1      -4.808   0.411   1.585  0.00  0.00    -0.480 OA
ATOM      4  C   UNL     1      -5.359   1.589   1.206  0.00  0.00    +0.139 A 
ATOM      5  C   UNL     1      -6.542   1.599   0.489  0.00  0.00    +0.092 A 
ATOM      6  C   UNL     1      -7.106   2.804   0.090  0.00  0.00    +0.124 A 
ATOM      7  C   UNL     1      -6.495   4.012   0.403  0.00  0.00    +0.091 A 
ATOM      8  C   UNL     1      -5.312   4.024   1.121  0.00  0.00    +0.134 A 
ATOM      9  C   UNL     1      -4.739   2.810   1.530  0.00  0.00    +0.103 A 
ATOM     10  C   UNL     1      -3.491   2.794   2.301  0.00  0.00    +0.203 C 
ATOM     11  O   UNL     1      -3.032   3.804   2.793  0.00  0.00    -0.289 OA
ENDROOT
BRANCH   2  12
ATOM     12  C   UNL     1      -3.274  -0.964   2.815  0.00  0.00    -0.001 A 
ATOM     13  C   UNL     1      -2.902  -1.659   1.679  0.00  0.00    +0.011 A 
ATOM     14  C   UNL     1      -2.325  -2.911   1.790  0.00  0.00    +0.049 A 
ATOM     15  C   UNL     1      -2.120  -3.472   3.040  0.00  0.00    +0.158 A 
ATOM     16  C   UNL     1      -2.495  -2.772   4.183  0.00  0.00    +0.159 A 
ATOM     17  C   UNL     1      -3.067  -1.515   4.066  0.00  0.00    +0.056 A 
BRANCH  16  18
ATOM     18  O   UNL     1      -2.295  -3.318   5.412  0.00  0.00    -0.503 OA
ATOM     19  H   UNL     1      -1.437  -3.104   5.803  0.00  0.00    +0.292 HD
ENDBRANCH  16  18
BRANCH  15  20
ATOM     20  O   UNL     1      -1.552  -4.703   3.150  0.00  0.00    -0.503 OA
ATOM     21  H   UNL     1      -0.588  -4.687   3.217  0.00  0.00    +0.292 HD
ENDBRANCH  15  20
ENDBRANCH   2  12
BRANCH   8  22
ATOM     22  O   UNL     1      -4.711   5.201   1.426  0.00  0.00    -0.506 OA
ATOM     23  H   UNL     1      -4.078   5.504   0.760  0.00  0.00    +0.292 HD
ENDBRANCH   8  22
BRANCH   6  24
ATOM     24  O   UNL     1      -8.267   2.801  -0.613  0.00  0.00    -0.507 OA
ATOM     25  H   UNL     1      -9.061   2.837  -0.061  0.00  0.00    +0.292 HD
ENDBRANCH   6  24
BRANCH   1  26
ATOM     26  O   UNL     1      -2.080   1.135   1.261  0.00  0.00    -0.333 OA
BRANCH  26  32
ATOM     27  C   UNL     1       0.539   5.088   1.407  0.00  0.00    +0.041 C 
ATOM     28  C   UNL     1       0.628   3.562   1.344  0.00  0.00    +0.149 C 
ATOM     29  C   UNL     1       1.392   3.146   0.084  0.00  0.00    +0.174 C 
ATOM     30  C   UNL     1       1.424   1.617  -0.003  0.00  0.00    +0.179 C 
ATOM     31  C   UNL     1      -0.013   1.086   0.008  0.00  0.00    +0.201 C 
ATOM     32  C   UNL     1      -0.722   1.581   1.271  0.00  0.00    +0.283 C 
ATOM     33  O   UNL     1      -0.689   3.009   1.305  0.00  0.00    -0.343 OA
BRANCH  31  34
ATOM     34  O   UNL     1      -0.706   1.560  -1.148  0.00  0.00    -0.384 OA
ATOM     35  H   UNL     1      -1.625   1.263  -1.205  0.00  0.00    +0.210 HD
ENDBRANCH  31  34
BRANCH  30  36
ATOM     36  O   UNL     1       2.071   1.221  -1.214  0.00  0.00    -0.386 OA
ATOM     37  H   UNL     1       2.121   0.263  -1.338  0.00  0.00    +0.210 HD
ENDBRANCH  30  36
BRANCH  29  38
ATOM     38  O   UNL     1       0.735   3.677  -1.069  0.00  0.00    -0.387 OA
ATOM     39  H   UNL     1       0.678   4.642  -1.080  0.00  0.00    +0.210 HD
ENDBRANCH  29  38
ENDBRANCH  26  32
ENDBRANCH   1  26
TORSDOF 10
