REMARK  Name = ZINC37004744
REMARK  6 active torsions:
REMARK  status: ('A' for Active; 'I' for Inactive)
REMARK    1  A    between atoms: C_1  and  C_2
REMARK    2  A    between atoms: C_2  and  C_3
REMARK    3  A    between atoms: C_2  and  C_4
REMARK    4  A    between atoms: C_2  and  N_11
REMARK    5  A    between atoms: C_12  and  C_14
REMARK    6  A    between atoms: C_17  and  O_21
REMARK                            x       y       z     vdW  Elec       q    Type
REMARK                         _______ _______ _______ _____ _____    ______ ____
ROOT
ATOM      1  N   UNL     1       0.556  -0.272  -1.328  0.00  0.00    -0.308 N 
ATOM      2  C   UNL     1       1.849   0.006  -1.588  0.00  0.00    +0.200 C 
ATOM      3  O   UNL     1       2.554   0.478  -0.721  0.00  0.00    -0.278 OA
ATOM      4  H   UNL     1      -0.008  -0.650  -2.021  0.00  0.00    +0.149 HD
ENDROOT
BRANCH   2   5
ATOM      5  C   UNL     1       2.418  -0.270  -2.955  0.00  0.00    +0.018 C 
ATOM      6  C   UNL     1       2.063   0.881  -3.930  0.00  0.00    +0.023 C 
ATOM      7  C   UNL     1       3.191   0.755  -4.987  0.00  0.00    +0.097 C 
ATOM      8  C   UNL     1       4.412   0.328  -4.145  0.00  0.00    -0.050 C 
ATOM      9  N   UNL     1       3.896  -0.283  -2.905  0.00  0.00    +0.388 N 
ATOM     10  H   UNL     1       4.213   0.248  -2.107  0.00  0.00    -0.085 HD
ATOM     11  H   UNL     1       4.224  -1.234  -2.830  0.00  0.00    -0.085 HD
BRANCH   7  12
ATOM     12  O   UNL     1       3.428   2.011  -5.626  0.00  0.00    -0.394 OA
ATOM     13  H   UNL     1       4.124   1.987  -6.296  0.00  0.00    +0.210 HD
ENDBRANCH   7  12
ENDBRANCH   2   5
BRANCH   1  15
ATOM     14  C   UNL     1       0.156   1.483   0.328  0.00  0.00    +0.036 C 
ATOM     15  C   UNL     1       0.002  -0.004   0.002  0.00  0.00    +0.054 C 
ATOM     16  C   UNL     1       0.753  -0.835   1.044  0.00  0.00    +0.036 C 
BRANCH  15  17
ATOM     17  C   UNL     1      -1.459  -0.374   0.022  0.00  0.00    -0.025 A 
ATOM     18  C   UNL     1      -2.073  -0.699   1.217  0.00  0.00    +0.007 A 
ATOM     19  C   UNL     1      -3.413  -1.039   1.236  0.00  0.00    +0.015 A 
ATOM     20  C   UNL     1      -4.139  -1.053   0.059  0.00  0.00    +0.018 A 
ATOM     21  C   UNL     1      -3.524  -0.728  -1.137  0.00  0.00    +0.015 A 
ATOM     22  C   UNL     1      -2.185  -0.384  -1.154  0.00  0.00    +0.007 A 
ATOM     23 BR   UNL     1      -5.971  -1.518   0.084  0.00  0.00    -0.050 Br
ENDBRANCH  15  17
ENDBRANCH   1  15
TORSDOF 4
