REMARK  Name = ZINC44020440
REMARK  9 active torsions:
REMARK  status: ('A' for Active; 'I' for Inactive)
REMARK    1  A    between atoms: C_1  and  C_2
REMARK    2  A    between atoms: C_5  and  C_12
REMARK    3  A    between atoms: C_6  and  C_7
REMARK    4  A    between atoms: C_6  and  C_8
REMARK    5  A    between atoms: C_12  and  O_14
REMARK    6  A    between atoms: O_14  and  C_15
REMARK    7  A    between atoms: N_23  and  C_34
REMARK    8  A    between atoms: C_28  and  O_31
REMARK    9  A    between atoms: O_31  and  C_32
REMARK                            x       y       z     vdW  Elec       q    Type
REMARK                         _______ _______ _______ _____ _____    ______ ____
ROOT
ATOM      1  C   UNL     1       0.541  -5.507   2.421  0.00  0.00    +0.203 C 
ATOM      2  C   UNL     1       0.297  -6.851   1.727  0.00  0.00    +0.094 C 
ATOM      3  C   UNL     1      -0.577  -7.705   2.591  0.00  0.00    +0.192 C 
ATOM      4  C   UNL     1      -0.010  -7.687   4.029  0.00  0.00    +0.053 C 
ATOM      5  C   UNL     1       1.510  -7.887   4.072  0.00  0.00    +0.001 C 
ATOM      6  C   UNL     1       1.964  -7.699   5.513  0.00  0.00    -0.077 C 
ATOM      7  N   UNL     1       1.594  -8.714   6.468  0.00  0.00    +0.381 N 
ATOM      8  C   UNL     1       0.183  -8.625   6.902  0.00  0.00    -0.043 C 
ATOM      9  C   UNL     1      -0.624  -9.398   5.878  0.00  0.00    -0.056 A 
ATOM     10  C   UNL     1      -0.636  -8.926   4.586  0.00  0.00    +0.013 A 
ATOM     11  C   UNL     1      -1.179  -9.644   3.515  0.00  0.00    +0.167 A 
ATOM     12  C   UNL     1      -1.890 -10.814   3.787  0.00  0.00    +0.162 A 
ATOM     13  C   UNL     1      -1.970 -11.225   5.115  0.00  0.00    +0.049 A 
ATOM     14  C   UNL     1      -1.339 -10.544   6.146  0.00  0.00    +0.006 A 
ATOM     15  O   UNL     1      -0.822  -9.068   2.339  0.00  0.00    -0.484 OA
ATOM     16  C   UNL     1       2.459  -8.588   7.649  0.00  0.00    -0.096 C 
ATOM     17  C   UNL     1      -0.394  -6.352   4.571  0.00  0.00    -0.013 C 
ATOM     18  C   UNL     1      -0.130  -5.348   3.747  0.00  0.00    +0.014 C 
ATOM     19  H   UNL     1       1.748  -9.621   6.053  0.00  0.00    -0.082 HD
ENDROOT
BRANCH  12  20
ATOM     20  O   UNL     1      -2.484 -11.525   2.791  0.00  0.00    -0.491 OA
ATOM     21  C   UNL     1      -3.189 -12.708   3.171  0.00  0.00    +0.277 C 
ENDBRANCH  12  20
BRANCH   1  22
ATOM     22  O   UNL     1       0.083  -4.465   1.557  0.00  0.00    -0.454 OA
BRANCH  22  23
ATOM     23  C   UNL     1       0.750  -3.301   1.600  0.00  0.00    +0.353 C 
ATOM     24  O   UNL     1       1.691  -3.171   2.345  0.00  0.00    -0.246 OA
BRANCH  23  29
ATOM     25  C   UNL     1      -0.019   1.526   0.010  0.00  0.00    +0.023 C 
ATOM     26  C   UNL     1       0.002  -0.004   0.002  0.00  0.00    +0.074 C 
ATOM     27  C   UNL     1       0.721  -0.689  -1.204  0.00  0.00    +0.023 C 
ATOM     28  C   UNL     1       0.919  -2.148  -0.726  0.00  0.00    +0.061 C 
ATOM     29  C   UNL     1       0.324  -2.156   0.717  0.00  0.00    +0.215 C 
ATOM     30  C   UNL     1       0.724  -0.717   1.204  0.00  0.00    +0.031 C 
ATOM     31  C   UNL     1       2.240  -0.513   1.181  0.00  0.00    +0.016 C 
ATOM     32  C   UNL     1       0.113  -0.346   2.557  0.00  0.00    +0.016 C 
ATOM     33  O   UNL     1      -1.106  -1.984   0.520  0.00  0.00    -0.446 OA
ATOM     34  C   UNL     1      -1.357  -0.716   0.090  0.00  0.00    +0.315 C 
ATOM     35  O   UNL     1      -2.433  -0.244  -0.194  0.00  0.00    -0.250 OA
ENDBRANCH  23  29
ENDBRANCH  22  23
ENDBRANCH   1  22
TORSDOF 4
