REMARK  Name = ZINC63303122
REMARK  5 active torsions:
REMARK  status: ('A' for Active; 'I' for Inactive)
REMARK    1  A    between atoms: C_1  and  C_2
REMARK    2  A    between atoms: N_8  and  C_9
REMARK    3  A    between atoms: C_9  and  C_10
REMARK    4  A    between atoms: C_10  and  C_11
REMARK    5  A    between atoms: N_23  and  C_26
REMARK                            x       y       z     vdW  Elec       q    Type
REMARK                         _______ _______ _______ _____ _____    ______ ____
ROOT
ATOM      1  C   UNL     1      -0.018   1.503   0.010  0.00  0.00    +0.064 C 
ATOM      2  C   UNL     1       0.002  -0.004   0.002  0.00  0.00    +0.033 A 
ATOM      3  C   UNL     1       0.006  -0.682  -1.190  0.00  0.00    +0.085 A 
ATOM      4  C   UNL     1       0.026  -2.152  -1.178  0.00  0.00    +0.075 A 
ATOM      5  C   UNL     1       0.041  -2.795   0.041  0.00  0.00    +0.098 A 
ATOM      6  C   UNL     1       0.036  -2.026   1.211  0.00  0.00    +0.254 A 
ATOM      7  O   UNL     1       0.050  -2.587   2.295  0.00  0.00    -0.268 OA
ATOM      8  N   UNL     1       0.022  -0.684   1.167  0.00  0.00    -0.311 N 
ATOM      9  N   UNL     1       0.026  -2.555  -2.491  0.00  0.00    -0.289 N 
ATOM     10  H   UNL     1       0.037  -3.478  -2.790  0.00  0.00    +0.187 HD
ATOM     11  N   UNL     1       0.007  -1.438  -3.331  0.00  0.00    -0.219 N 
ATOM     12  C   UNL     1      -0.006  -0.299  -2.609  0.00  0.00    +0.281 A 
ATOM     13  O   UNL     1      -0.024   0.834  -3.050  0.00  0.00    -0.265 OA
ENDROOT
BRANCH  11  14
ATOM     14  C   UNL     1       0.002  -1.494  -4.729  0.00  0.00    +0.067 A 
ATOM     15  C   UNL     1      -0.012  -0.320  -5.472  0.00  0.00    +0.030 A 
ATOM     16  C   UNL     1      -0.016  -0.378  -6.852  0.00  0.00    +0.040 A 
ATOM     17  C   UNL     1      -0.007  -1.604  -7.495  0.00  0.00    +0.124 A 
ATOM     18  C   UNL     1       0.007  -2.775  -6.756  0.00  0.00    +0.040 A 
ATOM     19  C   UNL     1       0.016  -2.722  -5.376  0.00  0.00    +0.030 A 
ATOM     20  F   UNL     1      -0.011  -1.658  -8.845  0.00  0.00    -0.205 F 
ENDBRANCH  11  14
BRANCH   8  21
ATOM     21  C   UNL     1       0.024   0.067   2.425  0.00  0.00    +0.129 C 
BRANCH  21  22
ATOM     22  C   UNL     1      -1.418   0.308   2.877  0.00  0.00    +0.055 C 
BRANCH  22  23
ATOM     23  C   UNL     1      -1.416   1.080   4.171  0.00  0.00    -0.040 C 
ATOM     24  C   UNL     1      -1.532   2.419   4.319  0.00  0.00    +0.000 A 
ATOM     25  C   UNL     1      -1.689   3.516   3.357  0.00  0.00    +0.030 A 
ATOM     26  C   UNL     1      -1.780   4.785   3.817  0.00  0.00    +0.042 A 
ATOM     27  C   UNL     1      -1.729   5.078   5.188  0.00  0.00    +0.022 A 
ATOM     28  C   UNL     1      -1.587   4.124   6.132  0.00  0.00    +0.027 A 
ATOM     29  C   UNL     1      -1.482   2.755   5.761  0.00  0.00    +0.043 A 
ATOM     30  N   UNL     1      -1.339   1.665   6.475  0.00  0.00    -0.380 N 
ATOM     31  C   UNL     1      -1.290   0.513   5.568  0.00  0.00    +0.144 C 
ATOM     32 CL   UNL     1      -1.965   6.086   2.682  0.00  0.00    -0.084 Cl
ATOM     33  H   UNL     1      -1.280   1.626   7.443  0.00  0.00    +0.160 HD
ENDBRANCH  22  23
ENDBRANCH  21  22
ENDBRANCH   8  21
TORSDOF 4
