REMARK  Name = ZINC59707485
REMARK  4 active torsions:
REMARK  status: ('A' for Active; 'I' for Inactive)
REMARK    1  A    between atoms: C_1  and  C_2
REMARK    2  A    between atoms: N_8  and  C_9
REMARK    3  A    between atoms: C_9  and  C_10
REMARK    4  A    between atoms: N_21  and  C_24
REMARK                            x       y       z     vdW  Elec       q    Type
REMARK                         _______ _______ _______ _____ _____    ______ ____
ROOT
ATOM      1  C   UNL     1      -0.101   1.466  -0.001  0.00  0.00    +0.064 C 
ATOM      2  C   UNL     1      -0.034  -0.040   0.007  0.00  0.00    +0.034 A 
ATOM      3  C   UNL     1      -0.133  -0.735  -1.170  0.00  0.00    +0.085 A 
ATOM      4  C   UNL     1      -0.065  -2.204  -1.142  0.00  0.00    +0.075 A 
ATOM      5  C   UNL     1       0.095  -2.827   0.076  0.00  0.00    +0.098 A 
ATOM      6  C   UNL     1       0.186  -2.040   1.231  0.00  0.00    +0.254 A 
ATOM      7  O   UNL     1       0.328  -2.584   2.314  0.00  0.00    -0.268 OA
ATOM      8  N   UNL     1       0.127  -0.700   1.172  0.00  0.00    -0.307 N 
ATOM      9  N   UNL     1      -0.188  -2.627  -2.443  0.00  0.00    -0.289 N 
ATOM     10  H   UNL     1      -0.179  -3.554  -2.731  0.00  0.00    +0.187 HD
ATOM     11  N   UNL     1      -0.328  -1.524  -3.290  0.00  0.00    -0.219 N 
ATOM     12  C   UNL     1      -0.302  -0.376  -2.585  0.00  0.00    +0.281 A 
ATOM     13  O   UNL     1      -0.400   0.750  -3.036  0.00  0.00    -0.265 OA
ENDROOT
BRANCH  11  14
ATOM     14  C   UNL     1      -0.476  -1.602  -4.679  0.00  0.00    +0.067 A 
ATOM     15  C   UNL     1      -0.602  -0.441  -5.431  0.00  0.00    +0.029 A 
ATOM     16  C   UNL     1      -0.747  -0.520  -6.802  0.00  0.00    +0.022 A 
ATOM     17  C   UNL     1      -0.767  -1.755  -7.427  0.00  0.00    +0.041 A 
ATOM     18  C   UNL     1      -0.641  -2.913  -6.680  0.00  0.00    +0.022 A 
ATOM     19  C   UNL     1      -0.490  -2.840  -5.309  0.00  0.00    +0.029 A 
ATOM     20 CL   UNL     1      -0.950  -1.851  -9.150  0.00  0.00    -0.084 Cl
ENDBRANCH  11  14
BRANCH   8  21
ATOM     21  C   UNL     1       0.236   0.070   2.414  0.00  0.00    +0.160 C 
BRANCH  21  22
ATOM     22  C   UNL     1       1.675   0.453   2.643  0.00  0.00    -0.024 A 
ATOM     23  C   UNL     1       2.538  -0.440   3.250  0.00  0.00    +0.009 A 
ATOM     24  C   UNL     1       3.860  -0.093   3.462  0.00  0.00    +0.050 A 
ATOM     25  C   UNL     1       4.322   1.152   3.067  0.00  0.00    +0.166 A 
ATOM     26  C   UNL     1       3.452   2.052   2.456  0.00  0.00    +0.167 A 
ATOM     27  C   UNL     1       2.130   1.695   2.241  0.00  0.00    +0.055 A 
ATOM     28  O   UNL     1       4.139   3.194   2.165  0.00  0.00    -0.453 OA
ATOM     29  C   UNL     1       5.332   3.141   2.970  0.00  0.00    +0.466 C 
ATOM     30  O   UNL     1       5.554   1.731   3.159  0.00  0.00    -0.453 OA
ENDBRANCH  21  22
ENDBRANCH   8  21
TORSDOF 3
