REMARK  Name = ZINC39370939
REMARK  9 active torsions:
REMARK  status: ('A' for Active; 'I' for Inactive)
REMARK    1  A    between atoms: C_1  and  C_2
REMARK    2  A    between atoms: C_5  and  N_9
REMARK    3  A    between atoms: C_10  and  C_12
REMARK    4  A    between atoms: C_12  and  S_13
REMARK    5  A    between atoms: S_13  and  C_14
REMARK    6  A    between atoms: N_21  and  C_26
REMARK    7  A    between atoms: C_26  and  C_27
REMARK    8  A    between atoms: C_30  and  O_33
REMARK    9  A    between atoms: O_33  and  C_34
REMARK                            x       y       z     vdW  Elec       q    Type
REMARK                         _______ _______ _______ _____ _____    ______ ____
ROOT
ATOM      1  C   UNL     1       0.595  -8.711   2.632  0.00  0.00    +0.181 C 
ATOM      2  N   UNL     1       0.585  -9.196   1.405  0.00  0.00    -0.155 NA
ATOM      3  C   UNL     1       0.630 -10.509   1.159  0.00  0.00    +0.245 C 
ATOM      4  O   UNL     1       0.648 -10.945   0.025  0.00  0.00    -0.273 OA
ATOM      5  C   UNL     1       0.659 -11.428   2.364  0.00  0.00    +0.105 C 
ATOM      6  C   UNL     1       1.888 -12.329   2.248  0.00  0.00    -0.060 C 
ATOM      7  N   UNL     1       1.919 -13.257   3.386  0.00  0.00    +0.383 N 
ATOM      8  C   UNL     1       2.170 -12.537   4.639  0.00  0.00    -0.072 C 
ATOM      9  C   UNL     1       0.995 -11.592   4.935  0.00  0.00    +0.033 C 
ATOM     10  C   UNL     1       0.750 -10.740   3.715  0.00  0.00    +0.030 C 
ATOM     11  N   UNL     1       0.716  -9.454   3.756  0.00  0.00    -0.233 NA
ATOM     12  H   UNL     1       1.032 -13.735   3.449  0.00  0.00    -0.081 HD
ENDROOT
BRANCH   1  13
ATOM     13  S   UNL     1       0.447  -6.965   2.820  0.00  0.00    -0.079 S 
BRANCH  13  14
ATOM     14  C   UNL     1       0.310  -6.351   1.119  0.00  0.00    +0.173 C 
BRANCH  14  16
ATOM     15  N   UNL     1       0.059  -4.170  -0.022  0.00  0.00    -0.285 N 
ATOM     16  C   UNL     1       0.176  -4.850   1.136  0.00  0.00    +0.227 C 
ATOM     17  O   UNL     1       0.174  -4.254   2.192  0.00  0.00    -0.275 OA
ATOM     18  H   UNL     1      -0.015  -4.651  -0.861  0.00  0.00    +0.155 HD
BRANCH  15  23
ATOM     19  C   UNL     1       0.008   1.503   0.012  0.00  0.00    +0.045 C 
ATOM     20  C   UNL     1       0.022  -0.004   0.003  0.00  0.00    -0.032 A 
ATOM     21  C   UNL     1       0.777  -0.693   0.934  0.00  0.00    +0.006 A 
ATOM     22  C   UNL     1       0.792  -2.074   0.928  0.00  0.00    +0.023 A 
ATOM     23  C   UNL     1       0.046  -2.771  -0.014  0.00  0.00    +0.035 A 
ATOM     24  C   UNL     1      -0.712  -2.078  -0.948  0.00  0.00    +0.043 A 
ATOM     25  C   UNL     1      -0.726  -0.695  -0.934  0.00  0.00    +0.046 A 
ATOM     26 CL   UNL     1      -1.678   0.174  -2.096  0.00  0.00    -0.083 Cl
ENDBRANCH  15  23
ENDBRANCH  14  16
ENDBRANCH  13  14
ENDBRANCH   1  13
BRANCH   7  27
ATOM     27  C   UNL     1       2.985 -14.246   3.175  0.00  0.00    -0.043 C 
BRANCH  27  28
ATOM     28  C   UNL     1       2.943 -15.273   4.276  0.00  0.00    -0.064 A 
ATOM     29  C   UNL     1       3.668 -15.072   5.436  0.00  0.00    +0.005 A 
ATOM     30  C   UNL     1       3.631 -16.013   6.447  0.00  0.00    +0.046 A 
ATOM     31  C   UNL     1       2.865 -17.160   6.298  0.00  0.00    +0.120 A 
ATOM     32  C   UNL     1       2.138 -17.359   5.133  0.00  0.00    +0.046 A 
ATOM     33  C   UNL     1       2.174 -16.413   4.128  0.00  0.00    +0.005 A 
BRANCH  31  34
ATOM     34  O   UNL     1       2.828 -18.087   7.291  0.00  0.00    -0.495 OA
ATOM     35  C   UNL     1       2.018 -19.244   7.068  0.00  0.00    +0.277 C 
ENDBRANCH  31  34
ENDBRANCH  27  28
ENDBRANCH   7  27
TORSDOF 7
