REMARK  Name = ZINC35515198
REMARK  5 active torsions:
REMARK  status: ('A' for Active; 'I' for Inactive)
REMARK    1  A    between atoms: C_1  and  C_2
REMARK    2  A    between atoms: C_9  and  C_25
REMARK    3  A    between atoms: C_27  and  O_33
REMARK    4  A    between atoms: C_28  and  O_32
REMARK    5  A    between atoms: O_33  and  C_34
REMARK                            x       y       z     vdW  Elec       q    Type
REMARK                         _______ _______ _______ _____ _____    ______ ____
ROOT
ATOM      1  C   UNL     1      -0.018   1.503   0.010  0.00  0.00    +0.045 C 
ATOM      2  C   UNL     1       0.002  -0.004   0.002  0.00  0.00    -0.032 A 
ATOM      3  C   UNL     1       0.006  -0.699  -1.200  0.00  0.00    +0.008 A 
ATOM      4  C   UNL     1       0.025  -2.082  -1.163  0.00  0.00    +0.044 A 
ATOM      5  C   UNL     1       0.040  -2.725   0.070  0.00  0.00    +0.129 A 
ATOM      6  N   UNL     1       0.036  -2.027   1.194  0.00  0.00    -0.240 NA
ATOM      7  C   UNL     1       0.023  -0.708   1.190  0.00  0.00    +0.116 A 
ATOM      8  N   UNL     1       0.060  -4.117   0.121  0.00  0.00    -0.238 N 
ATOM      9  C   UNL     1      -0.032  -4.938   1.339  0.00  0.00    +0.151 C 
ATOM     10  C   UNL     1       0.035  -6.357   0.879  0.00  0.00    +0.072 A 
ATOM     11  C   UNL     1       0.003  -7.618   1.627  0.00  0.00    +0.199 A 
ATOM     12  O   UNL     1      -0.269  -7.684   2.813  0.00  0.00    -0.287 OA
ATOM     13  C   UNL     1       0.331  -8.808   0.801  0.00  0.00    +0.067 A 
ATOM     14  C   UNL     1       0.537 -10.049   1.403  0.00  0.00    +0.053 A 
ATOM     15  C   UNL     1       0.847 -11.142   0.621  0.00  0.00    +0.124 A 
ATOM     16  C   UNL     1       0.952 -11.004  -0.758  0.00  0.00    +0.042 A 
ATOM     17  C   UNL     1       0.749  -9.783  -1.361  0.00  0.00    +0.050 A 
ATOM     18  C   UNL     1       0.433  -8.664  -0.592  0.00  0.00    +0.140 A 
ATOM     19  O   UNL     1       0.229  -7.479  -1.212  0.00  0.00    -0.450 OA
ATOM     20  C   UNL     1       0.150  -6.349  -0.482  0.00  0.00    +0.199 A 
ATOM     21  C   UNL     1       0.161  -4.948  -0.936  0.00  0.00    +0.288 C 
ATOM     22  O   UNL     1       0.251  -4.592  -2.094  0.00  0.00    -0.266 OA
ATOM     23  F   UNL     1       1.047 -12.348   1.196  0.00  0.00    -0.205 F 
ENDROOT
BRANCH   9  24
ATOM     24  C   UNL     1       1.120  -4.633   2.261  0.00  0.00    -0.017 A 
ATOM     25  C   UNL     1       0.918  -4.592   3.628  0.00  0.00    +0.055 A 
ATOM     26  C   UNL     1       1.977  -4.312   4.477  0.00  0.00    +0.163 A 
ATOM     27  C   UNL     1       3.242  -4.073   3.951  0.00  0.00    +0.173 A 
ATOM     28  C   UNL     1       3.439  -4.116   2.580  0.00  0.00    +0.063 A 
ATOM     29  C   UNL     1       2.378  -4.401   1.738  0.00  0.00    +0.025 A 
ATOM     30 BR   UNL     1       5.157  -3.791   1.859  0.00  0.00    -0.046 Br
BRANCH  27  31
ATOM     31  O   UNL     1       4.285  -3.797   4.780  0.00  0.00    -0.503 OA
ATOM     32  H   UNL     1       4.771  -4.579   5.074  0.00  0.00    +0.292 HD
ENDBRANCH  27  31
BRANCH  26  33
ATOM     33  O   UNL     1       1.779  -4.271   5.822  0.00  0.00    -0.491 OA
ATOM     34  C   UNL     1       0.453  -4.526   6.291  0.00  0.00    +0.277 C 
ENDBRANCH  26  33
ENDBRANCH   9  24
TORSDOF 3
