REMARK  Name = ZINC61629150
REMARK  5 active torsions:
REMARK  status: ('A' for Active; 'I' for Inactive)
REMARK    1  A    between atoms: C_1  and  C_2
REMARK    2  A    between atoms: C_5  and  C_19
REMARK    3  A    between atoms: C_6  and  N_8
REMARK    4  A    between atoms: C_10  and  C_16
REMARK    5  A    between atoms: C_11  and  C_13
REMARK                            x       y       z     vdW  Elec       q    Type
REMARK                         _______ _______ _______ _____ _____    ______ ____
ROOT
ATOM      1  N   UNL     1       0.485  -2.901   2.286  0.00  0.00    -0.220 N 
ATOM      2  C   UNL     1      -0.156  -2.768   3.475  0.00  0.00    +0.138 A 
ATOM      3  C   UNL     1       0.361  -3.688   4.324  0.00  0.00    +0.032 A 
ATOM      4  C   UNL     1       1.346  -4.404   3.636  0.00  0.00    +0.134 A 
ATOM      5  N   UNL     1       1.417  -3.939   2.415  0.00  0.00    -0.164 NA
ATOM      6 CL   UNL     1      -1.411  -1.626   3.841  0.00  0.00    -0.062 Cl
ENDROOT
BRANCH   1  12
ATOM      7  C   UNL     1      -0.102   1.496   0.160  0.00  0.00    +0.044 C 
ATOM      8  C   UNL     1      -0.038  -0.008   0.074  0.00  0.00    -0.048 A 
ATOM      9  C   UNL     1      -0.208  -0.637  -1.146  0.00  0.00    +0.004 A 
ATOM     10  C   UNL     1      -0.149  -2.016  -1.229  0.00  0.00    +0.006 A 
ATOM     11  C   UNL     1       0.080  -2.769  -0.094  0.00  0.00    -0.025 A 
ATOM     12  C   UNL     1       0.252  -2.140   1.132  0.00  0.00    +0.070 A 
ATOM     13  C   UNL     1       0.197  -0.754   1.211  0.00  0.00    +0.031 A 
ATOM     14  C   UNL     1       0.144  -4.272  -0.185  0.00  0.00    +0.046 C 
ENDBRANCH   1  12
BRANCH   4  15
ATOM     15  C   UNL     1       2.179  -5.525   4.203  0.00  0.00    +0.392 C 
ATOM     16  F   UNL     1       3.427  -5.544   3.571  0.00  0.00    -0.202 F 
ATOM     17  F   UNL     1       2.354  -5.328   5.577  0.00  0.00    -0.202 F 
ENDBRANCH   4  15
BRANCH   3  18
ATOM     18  C   UNL     1      -0.052  -3.902   5.758  0.00  0.00    +0.148 C 
ATOM     19 CL   UNL     1      -1.387  -5.112   5.824  0.00  0.00    -0.120 Cl
ENDBRANCH   3  18
TORSDOF 3
