REMARK  Name = ZINC38990380
REMARK  8 active torsions:
REMARK  status: ('A' for Active; 'I' for Inactive)
REMARK    1  A    between atoms: C_1  and  C_2
REMARK    2  A    between atoms: C_5  and  C_8
REMARK    3  A    between atoms: C_10  and  C_14
REMARK    4  A    between atoms: C_18  and  S_22
REMARK    5  A    between atoms: N_20  and  N_21
REMARK    6  A    between atoms: S_22  and  C_23
REMARK    7  A    between atoms: C_23  and  C_24
REMARK    8  A    between atoms: N_26  and  C_27
REMARK                            x       y       z     vdW  Elec       q    Type
REMARK                         _______ _______ _______ _____ _____    ______ ____
ROOT
ATOM      1  C   UNL     1       1.349  -7.185   0.945  0.00  0.00    +0.185 C 
ATOM      2  N   UNL     1       1.373  -7.318   2.426  0.00  0.00    -0.234 NA
ATOM      3  N   UNL     1       2.257  -8.475   2.641  0.00  0.00    -0.228 NA
ATOM      4  C   UNL     1       1.924  -9.405   1.538  0.00  0.00    +0.214 C 
ATOM      5  N   UNL     1       1.347  -8.582   0.452  0.00  0.00    -0.197 NA
ATOM      6  H   UNL     1       0.448  -7.497   2.788  0.00  0.00    +0.143 HD
ATOM      7  H   UNL     1       2.082  -8.901   3.538  0.00  0.00    +0.143 HD
ENDROOT
BRANCH   1  10
ATOM      8  C   UNL     1       0.048  -4.270  -0.071  0.00  0.00    +0.091 C 
ATOM      9  C   UNL     1       0.057  -5.038   1.036  0.00  0.00    +0.034 C 
ATOM     10  C   UNL     1       0.081  -6.456   0.494  0.00  0.00    +0.187 C 
ATOM     11  N   UNL     1       0.083  -6.259  -0.965  0.00  0.00    -0.176 NA
ATOM     12  N   UNL     1       0.058  -5.046  -1.187  0.00  0.00    -0.154 NA
BRANCH   8  17
ATOM     13  C   UNL     1      -0.046   1.488  -0.075  0.00  0.00    +0.044 C 
ATOM     14  C   UNL     1      -0.022  -0.019  -0.074  0.00  0.00    -0.050 A 
ATOM     15  C   UNL     1      -0.012  -0.708  -1.273  0.00  0.00    +0.004 A 
ATOM     16  C   UNL     1       0.011  -2.088  -1.278  0.00  0.00    +0.010 A 
ATOM     17  C   UNL     1       0.024  -2.787  -0.072  0.00  0.00    +0.002 A 
ATOM     18  C   UNL     1       0.014  -2.087   1.133  0.00  0.00    +0.010 A 
ATOM     19  C   UNL     1      -0.003  -0.707   1.126  0.00  0.00    +0.004 A 
ENDBRANCH   8  17
ENDBRANCH   1  10
BRANCH   5  20
ATOM     20  N   UNL     1      -0.001  -9.018   0.127  0.00  0.00    -0.264 NA
ATOM     21  H   UNL     1      -0.002  -9.970  -0.209  0.00  0.00    +0.137 HD
ATOM     22  H   UNL     1      -0.615  -8.915   0.921  0.00  0.00    +0.137 HD
ENDBRANCH   5  20
BRANCH   4  23
ATOM     23  S   UNL     1       3.426 -10.238   0.953  0.00  0.00    -0.115 S 
BRANCH  23  24
ATOM     24  C   UNL     1       4.510  -8.878   0.436  0.00  0.00    +0.168 C 
BRANCH  24  25
ATOM     25  C   UNL     1       5.810  -9.440  -0.077  0.00  0.00    +0.227 C 
ATOM     26  O   UNL     1       5.988 -10.640  -0.094  0.00  0.00    -0.275 OA
ATOM     27  N   UNL     1       6.775  -8.610  -0.519  0.00  0.00    -0.285 N 
ATOM     28  H   UNL     1       6.608  -7.655  -0.569  0.00  0.00    +0.155 HD
BRANCH  27  29
ATOM     29  C   UNL     1       8.018  -9.124  -0.906  0.00  0.00    +0.035 A 
ATOM     30  C   UNL     1       9.177  -8.399  -0.661  0.00  0.00    +0.025 A 
ATOM     31  C   UNL     1      10.403  -8.908  -1.043  0.00  0.00    +0.023 A 
ATOM     32  C   UNL     1      10.478 -10.140  -1.669  0.00  0.00    +0.059 A 
ATOM     33  C   UNL     1       9.324 -10.865  -1.914  0.00  0.00    +0.061 A 
ATOM     34  C   UNL     1       8.095 -10.362  -1.529  0.00  0.00    +0.044 A 
ATOM     35 CL   UNL     1       9.421 -12.410  -2.700  0.00  0.00    -0.082 Cl
ATOM     36 CL   UNL     1      12.020 -10.777  -2.147  0.00  0.00    -0.082 Cl
ENDBRANCH  27  29
ENDBRANCH  24  25
ENDBRANCH  23  24
ENDBRANCH   4  23
TORSDOF 7
