REMARK  Name = ZINC01040360
REMARK  3 active torsions:
REMARK  status: ('A' for Active; 'I' for Inactive)
REMARK    1  A    between atoms: C_4  and  N_12
REMARK    2  A    between atoms: N_15  and  S_18
REMARK    3  A    between atoms: S_18  and  C_21
REMARK                            x       y       z     vdW  Elec       q    Type
REMARK                         _______ _______ _______ _____ _____    ______ ____
ROOT
ATOM      1  N   UNL     1       3.628   3.519  -0.013  0.00  0.00    -0.327 N 
ATOM      2  C   UNL     1       3.661   4.261   1.255  0.00  0.00    +0.122 C 
ATOM      3  C   UNL     1       4.875   5.198   1.244  0.00  0.00    +0.128 C 
ATOM      4  N   UNL     1       4.873   5.953  -0.017  0.00  0.00    -0.173 NA
ATOM      5  C   UNL     1       4.840   5.212  -1.286  0.00  0.00    +0.128 C 
ATOM      6  C   UNL     1       3.632   4.274  -1.275  0.00  0.00    +0.122 C 
ENDROOT
BRANCH   1  10
ATOM      7  C   UNL     1      -0.017   1.389   0.010  0.00  0.00    +0.021 A 
ATOM      8  C   UNL     1       1.144   2.103   0.002  0.00  0.00    +0.013 A 
ATOM      9  C   UNL     1       2.372   1.428  -0.013  0.00  0.00    +0.019 A 
ATOM     10  C   UNL     1       3.600   2.133  -0.020  0.00  0.00    +0.040 A 
ATOM     11  C   UNL     1       4.772   1.394  -0.035  0.00  0.00    +0.041 A 
ATOM     12  C   UNL     1       4.711   0.007  -0.042  0.00  0.00    +0.085 A 
ATOM     13  N   UNL     1       3.566  -0.636  -0.036  0.00  0.00    -0.361 N 
ATOM     14  C   UNL     1       2.396   0.013  -0.021  0.00  0.00    +0.050 A 
ATOM     15  C   UNL     1       1.180  -0.690  -0.013  0.00  0.00    +0.046 A 
ATOM     16  C   UNL     1       0.002  -0.004   0.002  0.00  0.00    +0.043 A 
ATOM     17 CL   UNL     1      -1.497  -0.879   0.012  0.00  0.00    -0.083 Cl
ATOM     18  H   UNL     1       3.569  -1.606  -0.041  0.00  0.00    +0.165 HD
ENDBRANCH   1  10
BRANCH   4  19
ATOM     19  S   UNL     1       4.907   7.608  -0.009  0.00  0.00    +0.067 S 
ATOM     20  O   UNL     1       4.348   8.032  -1.245  0.00  0.00    -0.152 OA
ATOM     21  O   UNL     1       4.382   8.019   1.246  0.00  0.00    -0.152 OA
BRANCH  19  22
ATOM     22  C   UNL     1       6.601   8.095  -0.029  0.00  0.00    +0.144 A 
ATOM     23  C   UNL     1       7.405   8.341  -1.092  0.00  0.00    +0.037 A 
ATOM     24  C   UNL     1       8.717   8.714  -0.867  0.00  0.00    +0.025 A 
ATOM     25  C   UNL     1       9.160   8.823   0.410  0.00  0.00    +0.057 A 
ATOM     26  S   UNL     1       7.699   8.398   1.345  0.00  0.00    -0.062 S 
ATOM     27 BR   UNL     1      10.877   9.306   1.038  0.00  0.00    -0.043 Br
ENDBRANCH  19  22
ENDBRANCH   4  19
TORSDOF 3
