REMARK  Name = ZINC09234492
REMARK  9 active torsions:
REMARK  status: ('A' for Active; 'I' for Inactive)
REMARK    1  A    between atoms: C_1  and  O_2
REMARK    2  A    between atoms: O_2  and  C_3
REMARK    3  A    between atoms: C_8  and  N_9
REMARK    4  A    between atoms: C_10  and  C_12
REMARK    5  A    between atoms: C_12  and  C_29
REMARK    6  A    between atoms: C_13  and  C_14
REMARK    7  A    between atoms: C_17  and  C_19
REMARK    8  A    between atoms: C_21  and  C_27
REMARK    9  A    between atoms: C_23  and  C_25
REMARK                            x       y       z     vdW  Elec       q    Type
REMARK                         _______ _______ _______ _____ _____    ______ ____
ROOT
ATOM      1  C   UNL     1       3.664   2.006  -0.053  0.00  0.00    +0.130 A 
ATOM      2  C   UNL     1       4.938   1.458  -0.073  0.00  0.00    +0.050 A 
ATOM      3  C   UNL     1       5.835   2.525  -0.087  0.00  0.00    +0.050 A 
ATOM      4  C   UNL     1       5.087   3.683  -0.075  0.00  0.00    +0.136 A 
ATOM      5  O   UNL     1       3.784   3.351  -0.060  0.00  0.00    -0.455 OA
ENDROOT
BRANCH   4   6
ATOM      6  C   UNL     1       5.626   5.057  -0.084  0.00  0.00    +0.019 A 
ATOM      7  C   UNL     1       7.006   5.265  -0.100  0.00  0.00    +0.026 A 
ATOM      8  C   UNL     1       7.514   6.563  -0.114  0.00  0.00    +0.065 A 
ATOM      9  C   UNL     1       6.645   7.654  -0.100  0.00  0.00    +0.030 A 
ATOM     10  C   UNL     1       5.266   7.446  -0.078  0.00  0.00    +0.065 A 
ATOM     11  C   UNL     1       4.756   6.148  -0.070  0.00  0.00    +0.026 A 
BRANCH  10  12
ATOM     12  C   UNL     1       4.345   8.601  -0.064  0.00  0.00    +0.387 C 
ATOM     13  O   UNL     1       3.144   8.420  -0.044  0.00  0.00    -0.241 OA
ATOM     14  O   UNL     1       4.837   9.855  -0.071  0.00  0.00    -0.241 OA
ENDBRANCH  10  12
BRANCH   8  15
ATOM     15  C   UNL     1       8.975   6.784  -0.137  0.00  0.00    +0.387 C 
ATOM     16  O   UNL     1       9.733   5.835  -0.148  0.00  0.00    -0.241 OA
ATOM     17  O   UNL     1       9.467   8.038  -0.144  0.00  0.00    -0.241 OA
ENDBRANCH   8  15
ENDBRANCH   4   6
BRANCH   1  19
ATOM     18  C   UNL     1       1.246   1.965  -0.015  0.00  0.00    +0.117 C 
ATOM     19  C   UNL     1       2.458   1.287  -0.034  0.00  0.00    +0.070 C 
BRANCH  18  21
ATOM     20  N   UNL     1      -1.191   1.871   0.018  0.00  0.00    -0.278 N 
ATOM     21  C   UNL     1      -0.014   1.213   0.005  0.00  0.00    +0.259 C 
ATOM     22  O   UNL     1       0.003  -0.004   0.005  0.00  0.00    -0.269 OA
ATOM     23  H   UNL     1      -1.205   2.837   0.099  0.00  0.00    +0.155 HD
BRANCH  20  29
ATOM     24  C   UNL     1      -3.571   1.701   0.420  0.00  0.00    +0.141 A 
ATOM     25  C   UNL     1      -4.757   0.993   0.314  0.00  0.00    +0.047 A 
ATOM     26  C   UNL     1      -4.768  -0.250  -0.293  0.00  0.00    +0.004 A 
ATOM     27  C   UNL     1      -3.598  -0.789  -0.795  0.00  0.00    +0.002 A 
ATOM     28  C   UNL     1      -2.412  -0.086  -0.698  0.00  0.00    +0.027 A 
ATOM     29  C   UNL     1      -2.392   1.159  -0.086  0.00  0.00    +0.076 A 
BRANCH  24  31
ATOM     30  C   UNL     1      -4.805   3.417   1.511  0.00  0.00    +0.277 C 
ATOM     31  O   UNL     1      -3.559   2.924   1.016  0.00  0.00    -0.493 OA
ENDBRANCH  24  31
ENDBRANCH  20  29
ENDBRANCH  18  21
BRANCH  18  32
ATOM     32  C   UNL     1       1.226   3.397  -0.015  0.00  0.00    +0.104 C 
ATOM     33  N   UNL     1       1.211   4.532  -0.014  0.00  0.00    -0.191 NA
ENDBRANCH  18  32
ENDBRANCH   1  19
TORSDOF 8
