REMARK  Name = ZINC59264588
REMARK  6 active torsions:
REMARK  status: ('A' for Active; 'I' for Inactive)
REMARK    1  A    between atoms: C_1  and  C_2
REMARK    2  A    between atoms: C_7  and  N_8
REMARK    3  A    between atoms: N_11  and  C_12
REMARK    4  A    between atoms: C_12  and  C_13
REMARK    5  A    between atoms: C_13  and  C_15
REMARK    6  A    between atoms: C_13  and  N_20
REMARK                            x       y       z     vdW  Elec       q    Type
REMARK                         _______ _______ _______ _____ _____    ______ ____
ROOT
ATOM      1  N   UNL     1       2.448  -3.464   5.380  0.00  0.00    -0.269 N 
ATOM      2  C   UNL     1       1.448  -2.579   5.202  0.00  0.00    +0.304 C 
ATOM      3  O   UNL     1       0.674  -2.715   4.274  0.00  0.00    -0.253 OA
ATOM      4  N   UNL     1       1.305  -1.543   6.052  0.00  0.00    -0.300 N 
ATOM      5  H   UNL     1       3.022  -3.397   6.159  0.00  0.00    +0.156 HD
ATOM      6  H   UNL     1       1.923  -1.435   6.793  0.00  0.00    +0.150 HD
ENDROOT
BRANCH   1  13
ATOM      7  C   UNL     1       5.123  -4.295   4.877  0.00  0.00    +0.045 C 
ATOM      8  C   UNL     1       3.949  -4.916   4.165  0.00  0.00    -0.029 A 
ATOM      9  C   UNL     1       4.154  -5.922   3.241  0.00  0.00    +0.006 A 
ATOM     10  C   UNL     1       3.077  -6.493   2.587  0.00  0.00    +0.015 A 
ATOM     11  C   UNL     1       1.791  -6.058   2.856  0.00  0.00    +0.020 A 
ATOM     12  C   UNL     1       1.580  -5.051   3.779  0.00  0.00    +0.039 A 
ATOM     13  C   UNL     1       2.659  -4.480   4.441  0.00  0.00    +0.039 A 
ATOM     14 BR   UNL     1       0.322  -6.840   1.960  0.00  0.00    -0.050 Br
ENDBRANCH   1  13
BRANCH   4  15
ATOM     15  C   UNL     1       0.218  -0.581   5.859  0.00  0.00    +0.095 C 
BRANCH  15  16
ATOM     16  C   UNL     1       0.354   0.553   6.877  0.00  0.00    -0.013 C 
BRANCH  16  17
ATOM     17  N   UNL     1      -0.661   1.580   6.604  0.00  0.00    +0.386 N 
ATOM     18  C   UNL     1      -0.430   2.770   7.463  0.00  0.00    -0.078 C 
ATOM     19  C   UNL     1      -1.157   3.905   6.699  0.00  0.00    -0.020 C 
ATOM     20  C   UNL     1      -0.872   3.563   5.219  0.00  0.00    -0.020 C 
ATOM     21  C   UNL     1      -0.539   2.060   5.210  0.00  0.00    -0.078 C 
ATOM     22  H   UNL     1      -1.585   1.208   6.764  0.00  0.00    -0.081 HD
ENDBRANCH  16  17
BRANCH  16  23
ATOM     23  C   UNL     1       0.154   0.008   8.267  0.00  0.00    -0.022 A 
ATOM     24  C   UNL     1       1.084  -0.316   9.198  0.00  0.00    +0.009 A 
ATOM     25  C   UNL     1       0.666  -0.805  10.422  0.00  0.00    +0.008 A 
ATOM     26  C   UNL     1      -0.662  -0.947  10.654  0.00  0.00    +0.045 A 
ATOM     27  S   UNL     1      -1.369  -0.373   9.118  0.00  0.00    -0.103 S 
ENDBRANCH  16  23
ENDBRANCH  15  16
ENDBRANCH   4  15
TORSDOF 5
