REMARK  Name = ZINC58915508
REMARK  11 active torsions:
REMARK  status: ('A' for Active; 'I' for Inactive)
REMARK    1  A    between atoms: C_1  and  C_2
REMARK    2  A    between atoms: C_5  and  N_8
REMARK    3  A    between atoms: C_9  and  C_32
REMARK    4  A    between atoms: C_11  and  C_14
REMARK    5  A    between atoms: C_12  and  C_13
REMARK    6  A    between atoms: N_15  and  N_16
REMARK    7  A    between atoms: C_17  and  C_19
REMARK    8  A    between atoms: C_19  and  N_20
REMARK    9  A    between atoms: N_20  and  C_21
REMARK   10  A    between atoms: N_20  and  S_28
REMARK   11  A    between atoms: S_28  and  C_31
REMARK                            x       y       z     vdW  Elec       q    Type
REMARK                         _______ _______ _______ _____ _____    ______ ____
ROOT
ATOM      1  N   UNL     1       3.482  -8.394   1.528  0.00  0.00    -0.206 N 
ATOM      2  C   UNL     1       4.694  -8.231   2.095  0.00  0.00    +0.251 C 
ATOM      3  O   UNL     1       5.120  -7.115   2.307  0.00  0.00    -0.272 OA
ATOM      4  H   UNL     1       3.142  -9.286   1.359  0.00  0.00    +0.177 HD
ENDROOT
BRANCH   1   6
ATOM      5  C   UNL     1       1.548  -7.431   0.636  0.00  0.00    +0.140 C 
ATOM      6  N   UNL     1       2.715  -7.274   1.182  0.00  0.00    -0.188 NA
BRANCH   5  10
ATOM      7  N   UNL     1       0.059  -4.172  -0.021  0.00  0.00    -0.317 N 
ATOM      8  C   UNL     1      -0.945  -4.966  -0.498  0.00  0.00    +0.022 A 
ATOM      9  C   UNL     1      -0.589  -6.255  -0.347  0.00  0.00    +0.032 A 
ATOM     10  C   UNL     1       0.740  -6.253   0.272  0.00  0.00    +0.016 A 
ATOM     11  C   UNL     1       1.081  -4.941   0.441  0.00  0.00    +0.030 A 
ATOM     12  C   UNL     1       2.369  -4.434   1.038  0.00  0.00    +0.064 C 
ATOM     13  C   UNL     1      -2.240  -4.478  -1.095  0.00  0.00    +0.064 C 
BRANCH   7  18
ATOM     14  C   UNL     1      -0.018   1.503   0.010  0.00  0.00    +0.044 C 
ATOM     15  C   UNL     1       0.002  -0.004   0.002  0.00  0.00    -0.050 A 
ATOM     16  C   UNL     1       0.006  -0.688  -1.200  0.00  0.00    +0.005 A 
ATOM     17  C   UNL     1       0.025  -2.068  -1.211  0.00  0.00    +0.026 A 
ATOM     18  C   UNL     1       0.040  -2.771  -0.013  0.00  0.00    +0.047 A 
ATOM     19  C   UNL     1       0.037  -2.082   1.192  0.00  0.00    +0.026 A 
ATOM     20  C   UNL     1       0.023  -0.700   1.196  0.00  0.00    +0.005 A 
ENDBRANCH   7  18
ENDBRANCH   5  10
ENDBRANCH   1   6
BRANCH   2  21
ATOM     21  C   UNL     1       5.520  -9.435   2.467  0.00  0.00    +0.228 C 
BRANCH  21  22
ATOM     22  N   UNL     1       6.785  -8.995   3.062  0.00  0.00    -0.199 N 
BRANCH  22  23
ATOM     23  C   UNL     1       6.849  -8.698   4.425  0.00  0.00    +0.052 A 
ATOM     24  C   UNL     1       7.813  -7.818   4.901  0.00  0.00    +0.025 A 
ATOM     25  C   UNL     1       7.874  -7.526   6.249  0.00  0.00    +0.003 A 
ATOM     26  C   UNL     1       6.977  -8.108   7.126  0.00  0.00    +0.015 A 
ATOM     27  C   UNL     1       6.015  -8.984   6.656  0.00  0.00    +0.020 A 
ATOM     28  C   UNL     1       5.945  -9.276   5.307  0.00  0.00    +0.040 A 
ATOM     29 BR   UNL     1       4.791  -9.777   7.859  0.00  0.00    -0.050 Br
ENDBRANCH  22  23
BRANCH  22  30
ATOM     30  S   UNL     1       8.138  -8.851   2.118  0.00  0.00    +0.043 S 
ATOM     31  O   UNL     1       9.222  -9.120   2.996  0.00  0.00    -0.155 OA
ATOM     32  O   UNL     1       7.889  -9.688   0.997  0.00  0.00    -0.155 OA
ATOM     33  C   UNL     1       8.166  -7.111   1.606  0.00  0.00    +0.218 C 
ENDBRANCH  22  30
ENDBRANCH  21  22
ENDBRANCH   2  21
TORSDOF 7
