REMARK  Name = ZINC40323706
REMARK  6 active torsions:
REMARK  status: ('A' for Active; 'I' for Inactive)
REMARK    1  A    between atoms: C_1  and  C_2
REMARK    2  A    between atoms: C_2  and  C_4
REMARK    3  A    between atoms: C_2  and  N_11
REMARK    4  A    between atoms: N_11  and  S_12
REMARK    5  A    between atoms: S_12  and  C_15
REMARK    6  A    between atoms: C_20  and  N_21
REMARK                            x       y       z     vdW  Elec       q    Type
REMARK                         _______ _______ _______ _____ _____    ______ ____
ROOT
ATOM      1  S   UNL     1      -0.263  -0.853   2.682  0.00  0.00    +0.061 S 
ATOM      2  O   UNL     1       0.752  -1.141   3.634  0.00  0.00    -0.153 OA
ATOM      3  O   UNL     1      -1.251   0.145   2.900  0.00  0.00    -0.153 OA
ENDROOT
BRANCH   1   4
ATOM      4  C   UNL     1      -1.126  -2.361   2.394  0.00  0.00    +0.127 A 
ATOM      5  C   UNL     1      -2.506  -2.392   2.458  0.00  0.00    +0.045 A 
ATOM      6  C   UNL     1      -3.184  -3.576   2.232  0.00  0.00    +0.020 A 
ATOM      7  C   UNL     1      -2.484  -4.734   1.942  0.00  0.00    +0.017 A 
ATOM      8  C   UNL     1      -1.105  -4.710   1.878  0.00  0.00    +0.026 A 
ATOM      9  C   UNL     1      -0.421  -3.520   2.098  0.00  0.00    +0.051 A 
ATOM     10 BR   UNL     1      -5.073  -3.613   2.321  0.00  0.00    -0.050 Br
BRANCH   9  11
ATOM     11  N   UNL     1       0.974  -3.492   2.027  0.00  0.00    -0.356 N 
ATOM     12  H   UNL     1       1.455  -2.680   2.252  0.00  0.00    +0.142 HD
ATOM     13  H   UNL     1       1.462  -4.284   1.752  0.00  0.00    +0.142 HD
ENDBRANCH   9  11
ENDBRANCH   1   4
BRANCH   1  14
ATOM     14  N   UNL     1       0.509  -0.454   1.272  0.00  0.00    -0.183 NA
ATOM     15  H   UNL     1       1.479  -0.432   1.240  0.00  0.00    +0.149 HD
BRANCH  14  17
ATOM     16  C   UNL     1       0.141   1.242  -0.451  0.00  0.00    +0.031 C 
ATOM     17  C   UNL     1      -0.271  -0.135   0.074  0.00  0.00    +0.105 C 
BRANCH  17  18
ATOM     18  C   UNL     1      -0.013  -1.175  -0.985  0.00  0.00    -0.011 A 
ATOM     19  C   UNL     1       1.177  -1.878  -0.988  0.00  0.00    +0.006 A 
ATOM     20  C   UNL     1       1.414  -2.832  -1.960  0.00  0.00    +0.000 A 
ATOM     21  C   UNL     1       0.461  -3.084  -2.929  0.00  0.00    +0.001 A 
ATOM     22  C   UNL     1      -0.729  -2.382  -2.927  0.00  0.00    +0.020 A 
ATOM     23  C   UNL     1      -0.969  -1.431  -1.951  0.00  0.00    +0.046 A 
ATOM     24 CL   UNL     1      -2.467  -0.553  -1.944  0.00  0.00    -0.083 Cl
ENDBRANCH  17  18
ENDBRANCH  14  17
ENDBRANCH   1  14
TORSDOF 5
