REMARK  Name = ZINC20617556
REMARK  6 active torsions:
REMARK  status: ('A' for Active; 'I' for Inactive)
REMARK    1  A    between atoms: C_1  and  C_2
REMARK    2  A    between atoms: C_6  and  C_17
REMARK    3  A    between atoms: N_8  and  C_9
REMARK    4  A    between atoms: N_19  and  C_20
REMARK    5  A    between atoms: C_27  and  C_30
REMARK    6  A    between atoms: C_30  and  O_31
REMARK                            x       y       z     vdW  Elec       q    Type
REMARK                         _______ _______ _______ _____ _____    ______ ____
ROOT
ATOM      1  C   UNL     1       5.585   1.784   1.003  0.00  0.00    +0.069 C 
ATOM      2  C   UNL     1       5.422   3.175   1.560  0.00  0.00    +0.081 A 
ATOM      3  C   UNL     1       4.410   3.995   1.083  0.00  0.00    +0.159 A 
ATOM      4  C   UNL     1       4.277   5.290   1.621  0.00  0.00    +0.027 A 
ATOM      5  C   UNL     1       3.212   6.170   1.135  0.00  0.00    +0.030 A 
ATOM      6  C   UNL     1       2.224   5.599   0.363  0.00  0.00    +0.098 A 
ATOM      7  C   UNL     1       2.326   4.150   0.097  0.00  0.00    +0.212 A 
ATOM      8  N   UNL     1       1.253   3.432  -0.152  0.00  0.00    -0.325 N 
ATOM      9  O   UNL     1       3.557   3.577   0.123  0.00  0.00    -0.437 OA
ATOM     10  C   UNL     1       5.175   5.698   2.614  0.00  0.00    +0.007 A 
ATOM     11  C   UNL     1       6.151   4.813   3.023  0.00  0.00    +0.117 A 
ATOM     12  N   UNL     1       6.243   3.605   2.497  0.00  0.00    -0.256 NA
ATOM     13  H   UNL     1       0.274   3.924  -0.252  0.00  0.00    +0.169 HD
ENDROOT
BRANCH   8  14
ATOM     14  C   UNL     1       1.354   2.075  -0.286  0.00  0.00    +0.042 A 
ATOM     15  C   UNL     1       1.311   1.253   0.843  0.00  0.00    +0.028 A 
ATOM     16  C   UNL     1       1.413  -0.115   0.701  0.00  0.00    +0.040 A 
ATOM     17  C   UNL     1       1.558  -0.675  -0.558  0.00  0.00    +0.124 A 
ATOM     18  C   UNL     1       1.601   0.135  -1.682  0.00  0.00    +0.040 A 
ATOM     19  C   UNL     1       1.500   1.504  -1.553  0.00  0.00    +0.028 A 
ATOM     20  F   UNL     1       1.657  -2.016  -0.691  0.00  0.00    -0.205 F 
ENDBRANCH   8  14
BRANCH   6  21
ATOM     21  C   UNL     1       1.111   6.402  -0.175  0.00  0.00    +0.253 C 
ATOM     22  O   UNL     1       1.052   7.594   0.059  0.00  0.00    -0.270 OA
ATOM     23  N   UNL     1       0.159   5.815  -0.927  0.00  0.00    -0.281 N 
ATOM     24  H   UNL     1       0.165   4.724  -1.070  0.00  0.00    +0.155 HD
BRANCH  23  25
ATOM     25  C   UNL     1      -0.837   6.593  -1.526  0.00  0.00    +0.034 A 
ATOM     26  C   UNL     1      -2.115   6.076  -1.696  0.00  0.00    +0.024 A 
ATOM     27  C   UNL     1      -3.099   6.849  -2.283  0.00  0.00    +0.017 A 
ATOM     28  C   UNL     1      -2.808   8.132  -2.712  0.00  0.00    +0.018 A 
ATOM     29  C   UNL     1      -1.534   8.647  -2.549  0.00  0.00    +0.017 A 
ATOM     30  C   UNL     1      -0.549   7.881  -1.958  0.00  0.00    +0.024 A 
ATOM     31 BR   UNL     1      -4.155   9.184  -3.521  0.00  0.00    -0.050 Br
ENDBRANCH  23  25
ENDBRANCH   6  21
BRANCH  10  32
ATOM     32  C   UNL     1       5.079   7.074   3.221  0.00  0.00    +0.193 C 
BRANCH  32  33
ATOM     33  O   UNL     1       6.106   7.235   4.202  0.00  0.00    -0.390 OA
ATOM     34  H   UNL     1       6.194   8.181   4.756  0.00  0.00    +0.210 HD
ENDBRANCH  32  33
ENDBRANCH  10  32
TORSDOF 5
