REMARK  Name = ZINC13079232
REMARK  9 active torsions:
REMARK  status: ('A' for Active; 'I' for Inactive)
REMARK    1  A    between atoms: C_1  and  C_2
REMARK    2  A    between atoms: C_4  and  C_30
REMARK    3  A    between atoms: C_6  and  S_9
REMARK    4  A    between atoms: C_7  and  C_8
REMARK    5  A    between atoms: S_9  and  N_12
REMARK    6  A    between atoms: N_12  and  C_13
REMARK    7  A    between atoms: C_16  and  N_19
REMARK    8  A    between atoms: N_19  and  S_20
REMARK    9  A    between atoms: S_20  and  C_23
REMARK                            x       y       z     vdW  Elec       q    Type
REMARK                         _______ _______ _______ _____ _____    ______ ____
ROOT
ATOM      1  C   UNL     1       4.089  -1.841  -4.192  0.00  0.00    +0.048 A 
ATOM      2  C   UNL     1       3.442  -3.069  -4.158  0.00  0.00    +0.026 A 
ATOM      3  C   UNL     1       2.459  -3.306  -3.217  0.00  0.00    +0.026 A 
ATOM      4  C   UNL     1       2.117  -2.316  -2.306  0.00  0.00    +0.048 A 
ATOM      5  C   UNL     1       2.759  -1.085  -2.344  0.00  0.00    +0.026 A 
ATOM      6  C   UNL     1       3.747  -0.851  -3.281  0.00  0.00    +0.026 A 
ENDROOT
BRANCH   1   7
ATOM      7  N   UNL     1       5.086  -1.601  -5.145  0.00  0.00    -0.216 N 
ATOM      8  H   UNL     1       5.777  -2.264  -5.301  0.00  0.00    +0.174 HD
BRANCH   7   9
ATOM      9  S   UNL     1       5.087  -0.186  -6.005  0.00  0.00    +0.073 S 
ATOM     10  O   UNL     1       5.013   0.867  -5.054  0.00  0.00    -0.150 OA
ATOM     11  O   UNL     1       6.143  -0.286  -6.950  0.00  0.00    -0.150 OA
BRANCH   9  17
ATOM     12  C   UNL     1       1.904  -2.113  -9.675  0.00  0.00    +0.044 C 
ATOM     13  C   UNL     1       2.164  -1.065  -8.624  0.00  0.00    -0.045 A 
ATOM     14  C   UNL     1       1.230  -0.076  -8.392  0.00  0.00    +0.018 A 
ATOM     15  C   UNL     1       1.474   0.895  -7.419  0.00  0.00    +0.065 A 
ATOM     16  C   UNL     1       2.662   0.857  -6.686  0.00  0.00    +0.044 A 
ATOM     17  C   UNL     1       3.587  -0.137  -6.928  0.00  0.00    +0.112 A 
ATOM     18  C   UNL     1       3.342  -1.093  -7.899  0.00  0.00    -0.021 A 
ATOM     19  C   UNL     1       4.360  -2.172  -8.162  0.00  0.00    +0.046 C 
BRANCH  15  20
ATOM     20  C   UNL     1       0.479   1.957  -7.165  0.00  0.00    +0.387 C 
ATOM     21  O   UNL     1       0.693   2.800  -6.317  0.00  0.00    -0.241 OA
ATOM     22  O   UNL     1      -0.666   1.990  -7.873  0.00  0.00    -0.241 OA
ENDBRANCH  15  20
ENDBRANCH   9  17
ENDBRANCH   7   9
ENDBRANCH   1   7
BRANCH   4  23
ATOM     23  N   UNL     1       1.120  -2.556  -1.353  0.00  0.00    -0.216 N 
ATOM     24  H   UNL     1       0.250  -2.136  -1.444  0.00  0.00    +0.174 HD
BRANCH  23  25
ATOM     25  S   UNL     1       1.426  -3.555  -0.068  0.00  0.00    +0.072 S 
ATOM     26  O   UNL     1       2.002  -4.739  -0.604  0.00  0.00    -0.150 OA
ATOM     27  O   UNL     1       0.246  -3.572   0.723  0.00  0.00    -0.150 OA
BRANCH  25  28
ATOM     28  C   UNL     1       2.676  -2.784   0.906  0.00  0.00    +0.109 A 
ATOM     29  C   UNL     1       2.328  -1.841   1.855  0.00  0.00    +0.031 A 
ATOM     30  C   UNL     1       3.307  -1.236   2.620  0.00  0.00    +0.040 A 
ATOM     31  C   UNL     1       4.636  -1.573   2.435  0.00  0.00    +0.124 A 
ATOM     32  C   UNL     1       4.984  -2.518   1.484  0.00  0.00    +0.040 A 
ATOM     33  C   UNL     1       4.003  -3.122   0.720  0.00  0.00    +0.031 A 
ATOM     34  F   UNL     1       5.594  -0.982   3.181  0.00  0.00    -0.205 F 
ENDBRANCH  25  28
ENDBRANCH  23  25
ENDBRANCH   4  23
TORSDOF 7
