REMARK  Name = ZINC12649373
REMARK  6 active torsions:
REMARK  status: ('A' for Active; 'I' for Inactive)
REMARK    1  A    between atoms: C_3  and  S_28
REMARK    2  A    between atoms: C_6  and  N_7
REMARK    3  A    between atoms: C_8  and  C_10
REMARK    4  A    between atoms: C_11  and  N_25
REMARK    5  A    between atoms: N_13  and  C_15
REMARK    6  A    between atoms: S_28  and  N_31
REMARK                            x       y       z     vdW  Elec       q    Type
REMARK                         _______ _______ _______ _____ _____    ______ ____
ROOT
ATOM      1  C   UNL     1       0.002  -0.004   0.009  0.00  0.00    +0.177 A 
ATOM      2  C   UNL     1       1.361  -0.398  -0.007  0.00  0.00    +0.176 A 
ATOM      3  C   UNL     1       2.072   0.754   0.002  0.00  0.00    +0.142 A 
ATOM      4  N   UNL     1       1.185   1.772   0.022  0.00  0.00    -0.262 N 
ATOM      5  N   UNL     1      -0.016   1.314   0.026  0.00  0.00    -0.164 NA
ENDROOT
BRANCH   4   6
ATOM      6  C   UNL     1       1.540   3.193   0.037  0.00  0.00    +0.064 C 
ATOM      7  C   UNL     1       2.644   3.453  -0.989  0.00  0.00    +0.033 C 
ATOM      8  C   UNL     1       3.015   4.937  -0.973  0.00  0.00    -0.008 C 
ATOM      9  C   UNL     1       1.784   5.774  -1.326  0.00  0.00    +0.007 C 
ATOM     10  C   UNL     1       0.680   5.514  -0.300  0.00  0.00    -0.008 C 
ATOM     11  C   UNL     1       0.309   4.030  -0.316  0.00  0.00    +0.033 C 
ATOM     12  C   UNL     1       1.177   5.901   1.094  0.00  0.00    +0.007 C 
ATOM     13  C   UNL     1       2.408   5.064   1.447  0.00  0.00    -0.008 C 
ATOM     14  C   UNL     1       3.513   5.324   0.421  0.00  0.00    +0.007 C 
ATOM     15  C   UNL     1       2.037   3.579   1.431  0.00  0.00    +0.033 C 
ENDBRANCH   4   6
BRANCH   1  17
ATOM     16  N   UNL     1      -2.416  -0.379   0.022  0.00  0.00    -0.280 N 
ATOM     17  C   UNL     1      -1.173  -0.899   0.006  0.00  0.00    +0.271 C 
ATOM     18  O   UNL     1      -1.018  -2.105  -0.011  0.00  0.00    -0.268 OA
ATOM     19  H   UNL     1      -2.540   0.580   0.103  0.00  0.00    +0.155 HD
BRANCH  16  25
ATOM     20  C   UNL     1      -4.663  -0.798  -0.757  0.00  0.00    +0.025 A 
ATOM     21  C   UNL     1      -5.757  -1.634  -0.858  0.00  0.00    +0.030 A 
ATOM     22  C   UNL     1      -5.727  -2.888  -0.275  0.00  0.00    +0.105 A 
ATOM     23  C   UNL     1      -4.601  -3.311   0.406  0.00  0.00    +0.030 A 
ATOM     24  C   UNL     1      -3.501  -2.481   0.506  0.00  0.00    +0.025 A 
ATOM     25  C   UNL     1      -3.528  -1.222  -0.078  0.00  0.00    +0.034 A 
BRANCH  22  26
ATOM     26  S   UNL     1      -7.128  -3.950  -0.402  0.00  0.00    +0.056 S 
ATOM     27  O   UNL     1      -7.850  -3.535  -1.553  0.00  0.00    -0.153 OA
ATOM     28  O   UNL     1      -6.647  -5.277  -0.241  0.00  0.00    -0.153 OA
BRANCH  26  29
ATOM     29  N   UNL     1      -8.099  -3.637   0.903  0.00  0.00    -0.204 NA
ATOM     30  H   UNL     1      -9.059  -3.753   0.832  0.00  0.00    +0.144 HD
ATOM     31  H   UNL     1      -7.707  -3.338   1.738  0.00  0.00    +0.144 HD
ENDBRANCH  26  29
ENDBRANCH  22  26
ENDBRANCH  16  25
ENDBRANCH   1  17
BRANCH   2  32
ATOM     32  N   UNL     1       1.893  -1.779  -0.029  0.00  0.00    +0.060 N 
ATOM     33  O   UNL     1       3.096  -1.968  -0.041  0.00  0.00    -0.126 OA
ATOM     34  O   UNL     1       1.128  -2.727  -0.035  0.00  0.00    -0.126 OA
ENDBRANCH   2  32
TORSDOF 6
