REMARK  Name = ZINC20035202
REMARK  11 active torsions:
REMARK  status: ('A' for Active; 'I' for Inactive)
REMARK    1  A    between atoms: C_1  and  C_2
REMARK    2  A    between atoms: C_5  and  C_8
REMARK    3  A    between atoms: N_10  and  CA_11
REMARK    4  A    between atoms: CA_11  and  C_19
REMARK    5  A    between atoms: CB_12  and  CG_13
REMARK    6  A    between atoms: N_21  and  CA_22
REMARK    7  A    between atoms: CA_22  and  CB_24
REMARK    8  A    between atoms: CA_22  and  C_28
REMARK    9  A    between atoms: CB_24  and  CG_25
REMARK   10  A    between atoms: CG_25  and  CD1_26
REMARK   11  A    between atoms: CG_25  and  CD2_27
REMARK                            x       y       z     vdW  Elec       q    Type
REMARK                         _______ _______ _______ _____ _____    ______ ____
ROOT
ATOM      1  CA  PHE A   1       2.572  -3.744  -0.023  0.00  0.00    +0.097 C 
ATOM      2  CB  PHE A   1       1.439  -4.382  -0.397  0.00  0.00    +0.036 C 
ENDROOT
BRANCH   2   3
ATOM      3  CG  PHE A   1       1.520  -5.656  -1.129  0.00  0.00    -0.023 A 
ATOM      4  CD2 PHE A   1       0.634  -5.920  -2.179  0.00  0.00    +0.008 A 
ATOM      5  CE2 PHE A   1       0.720  -7.114  -2.864  0.00  0.00    +0.001 A 
ATOM      6  CZ  PHE A   1       1.672  -8.054  -2.508  0.00  0.00    +0.000 A 
ATOM      7  CE1 PHE A   1       2.548  -7.801  -1.467  0.00  0.00    +0.001 A 
ATOM      8  CD1 PHE A   1       2.479  -6.610  -0.776  0.00  0.00    +0.008 A 
ENDBRANCH   2   3
BRANCH   1  11
ATOM      9  C   UNK A   0       3.625  -1.967   1.154  0.00  0.00    +0.248 C 
ATOM     10  O   UNK A   0       4.709  -2.397   0.811  0.00  0.00    -0.270 OA
ATOM     11  N   PHE A   1       2.500  -2.624   0.811  0.00  0.00    -0.277 N 
ATOM     12  H   PHE A   1       1.525  -2.280   1.187  0.00  0.00    +0.155 HD
BRANCH   9  17
ATOM     13  C   UNK A   0       3.298   2.876   4.245  0.00  0.00    +0.044 C 
ATOM     14  C   UNK A   0       3.384   1.608   3.436  0.00  0.00    -0.050 A 
ATOM     15  C   UNK A   0       4.619   1.121   3.047  0.00  0.00    +0.004 A 
ATOM     16  C   UNK A   0       4.705  -0.040   2.306  0.00  0.00    +0.013 A 
ATOM     17  C   UNK A   0       3.541  -0.723   1.948  0.00  0.00    +0.037 A 
ATOM     18  C   UNK A   0       2.298  -0.227   2.344  0.00  0.00    +0.013 A 
ATOM     19  C   UNK A   0       2.226   0.935   3.085  0.00  0.00    +0.004 A 
ENDBRANCH   9  17
ENDBRANCH   1  11
BRANCH   1  20
ATOM     20  C   PHE A   1       3.878  -4.229  -0.493  0.00  0.00    +0.259 C 
ATOM     21  O   PHE A   1       4.565  -4.924   0.231  0.00  0.00    -0.269 OA
ATOM     22  N   LEU A   2       4.314  -3.902  -1.725  0.00  0.00    -0.297 N 
ATOM     23  H   LEU A   2       3.734  -3.205  -2.347  0.00  0.00    +0.150 HD
BRANCH  22  24
ATOM     24  CA  LEU A   2       5.562  -4.475  -2.237  0.00  0.00    +0.187 C 
BRANCH  24  25
ATOM     25  C   LEU A   2       6.731  -3.682  -1.713  0.00  0.00    +0.376 C 
ATOM     26  O   LEU A   2       6.542  -2.734  -0.988  0.00  0.00    -0.244 OA
ATOM     27  OXT LEU A   2       7.983  -4.027  -2.053  0.00  0.00    -0.244 OA
ENDBRANCH  24  25
BRANCH  24  28
ATOM     28  CB  LEU A   2       5.556  -4.427  -3.766  0.00  0.00    +0.037 C 
BRANCH  28  29
ATOM     29  CG  LEU A   2       4.478  -5.371  -4.302  0.00  0.00    -0.015 C 
ATOM     30  CD1 LEU A   2       4.388  -5.231  -5.823  0.00  0.00    +0.007 C 
ATOM     31  CD2 LEU A   2       4.841  -6.814  -3.944  0.00  0.00    +0.007 C 
ENDBRANCH  28  29
ENDBRANCH  24  28
ENDBRANCH  22  24
ENDBRANCH   1  20
TORSDOF 8
