REMARK  Name = ZINC04149365
REMARK  4 active torsions:
REMARK  status: ('A' for Active; 'I' for Inactive)
REMARK    1  A    between atoms: C_4  and  C_7
REMARK    2  A    between atoms: C_16  and  C_24
REMARK    3  A    between atoms: C_18  and  C_19
REMARK    4  A    between atoms: C_18  and  C_21
REMARK                            x       y       z     vdW  Elec       q    Type
REMARK                         _______ _______ _______ _____ _____    ______ ____
ROOT
ATOM      1  C   UNL     1      -0.712   1.950   1.285  0.00  0.00    +0.066 C 
ATOM      2  C   UNL     1      -0.927   3.463   1.234  0.00  0.00    +0.027 C 
ATOM      3  C   UNL     1      -1.342   4.025   2.573  0.00  0.00    +0.009 C 
ATOM      4  C   UNL     1      -2.846   4.276   2.647  0.00  0.00    +0.005 C 
ATOM      5  C   UNL     1      -3.230   5.248   1.522  0.00  0.00    +0.027 C 
ATOM      6  C   UNL     1      -2.897   4.585   0.211  0.00  0.00    -0.026 C 
ATOM      7  C   UNL     1      -1.870   3.766   0.108  0.00  0.00    -0.047 C 
ATOM      8  C   UNL     1      -1.607   3.085  -1.188  0.00  0.00    +0.164 C 
ATOM      9  C   UNL     1      -0.759   2.026  -1.219  0.00  0.00    +0.065 C 
ATOM     10  C   UNL     1      -0.039   1.503  -0.013  0.00  0.00    +0.188 C 
ATOM     11  N   UNL     1      -0.551   1.401  -2.417  0.00  0.00    -0.304 NA
ATOM     12  H   UNL     1       0.050   0.641  -2.470  0.00  0.00    +0.186 HD
ENDROOT
BRANCH   1  16
ATOM     13  C   UNL     1      -4.479  -0.022   1.697  0.00  0.00    +0.000 A 
ATOM     14  C   UNL     1      -4.007   0.311   0.442  0.00  0.00    +0.000 A 
ATOM     15  C   UNL     1      -2.788   0.950   0.308  0.00  0.00    +0.004 A 
ATOM     16  C   UNL     1      -2.041   1.254   1.430  0.00  0.00    -0.041 A 
ATOM     17  C   UNL     1      -2.510   0.916   2.686  0.00  0.00    +0.004 A 
ATOM     18  C   UNL     1      -3.731   0.282   2.820  0.00  0.00    +0.000 A 
ENDBRANCH   1  16
BRANCH  10  19
ATOM     19  C   UNL     1      -0.024   0.032  -0.064  0.00  0.00    +0.091 C 
ATOM     20  N   UNL     1      -0.012  -1.104  -0.103  0.00  0.00    -0.195 NA
ENDBRANCH  10  19
BRANCH  10  21
ATOM     21  C   UNL     1       1.348   1.997  -0.031  0.00  0.00    +0.091 C 
ATOM     22  N   UNL     1       2.417   2.379  -0.044  0.00  0.00    -0.195 NA
ENDBRANCH  10  21
BRANCH   8  23
ATOM     23  C   UNL     1      -2.240   3.542  -2.388  0.00  0.00    +0.076 C 
ATOM     24  N   UNL     1      -2.743   3.904  -3.340  0.00  0.00    -0.196 NA
ENDBRANCH   8  23
TORSDOF 4
