REMARK  Name = ZINC39537972
REMARK  3 active torsions:
REMARK  status: ('A' for Active; 'I' for Inactive)
REMARK    1  A    between atoms: N_7  and  C_17
REMARK    2  A    between atoms: C_8  and  C_11
REMARK    3  A    between atoms: C_23  and  C_25
REMARK                            x       y       z     vdW  Elec       q    Type
REMARK                         _______ _______ _______ _____ _____    ______ ____
ROOT
ATOM      1  C   UNL     1       4.242  -2.096  -0.111  0.00  0.00    +0.080 C 
ATOM      2  C   UNL     1       3.649  -2.755  -1.359  0.00  0.00    +0.041 C 
ATOM      3  C   UNL     1       3.953  -4.256  -1.332  0.00  0.00    +0.110 C 
ATOM      4  N   UNL     1       3.464  -4.815  -0.064  0.00  0.00    -0.297 N 
ATOM      5  C   UNL     1       3.900  -4.197   1.196  0.00  0.00    +0.110 C 
ATOM      6  C   UNL     1       3.597  -2.696   1.140  0.00  0.00    +0.041 C 
ATOM      7  C   UNL     1       2.630  -5.873  -0.057  0.00  0.00    +0.247 C 
ATOM      8  O   UNL     1       2.304  -6.383   0.998  0.00  0.00    -0.270 OA
ENDROOT
BRANCH   7   9
ATOM      9  C   UNL     1       2.112  -6.414  -1.328  0.00  0.00    +0.037 C 
ATOM     10  C   UNL     1       2.901  -7.261  -2.099  0.00  0.00    +0.019 C 
ATOM     11  C   UNL     1       2.277  -7.757  -3.259  0.00  0.00    -0.014 C 
ATOM     12  C   UNL     1       2.748  -8.103  -4.463  0.00  0.00    -0.021 C 
ATOM     13  C   UNL     1       4.188  -8.242  -4.905  0.00  0.00    +0.037 C 
ATOM     14  C   UNL     1       4.202  -9.015  -6.231  0.00  0.00    +0.005 C 
ATOM     15  C   UNL     1       3.243  -8.348  -7.221  0.00  0.00    +0.006 C 
ATOM     16  C   UNL     1       1.796  -8.676  -6.832  0.00  0.00    +0.055 C 
ATOM     17  C   UNL     1       1.611  -8.312  -5.374  0.00  0.00    +0.040 C 
ATOM     18  N   UNL     1       0.484  -8.177  -4.748  0.00  0.00    -0.276 NA
ATOM     19  C   UNL     1       0.773  -7.943  -3.343  0.00  0.00    +0.159 C 
ATOM     20  C   UNL     1       0.122  -6.736  -2.741  0.00  0.00    +0.005 C 
ATOM     21  C   UNL     1       0.759  -6.063  -1.783  0.00  0.00    +0.011 C 
ENDBRANCH   7   9
BRANCH   1  28
ATOM     22  C   UNL     1       0.503   1.542  -0.271  0.00  0.00    +0.019 A 
ATOM     23  C   UNL     1       1.751   2.149  -0.261  0.00  0.00    +0.028 A 
ATOM     24  C   UNL     1       2.881   1.342  -0.220  0.00  0.00    +0.067 A 
ATOM     25  C   UNL     1       2.728  -0.043  -0.190  0.00  0.00    +0.122 A 
ATOM     26  N   UNL     1       1.513  -0.579  -0.202  0.00  0.00    -0.348 N 
ATOM     27  C   UNL     1       0.424   0.165  -0.240  0.00  0.00    +0.084 A 
ATOM     28  N   UNL     1       3.981  -0.654  -0.150  0.00  0.00    -0.291 N 
ATOM     29  C   UNL     1       4.992   0.410  -0.155  0.00  0.00    +0.189 C 
ATOM     30  N   UNL     1       4.242   1.672  -0.200  0.00  0.00    -0.321 N 
ATOM     31  H   UNL     1       4.619   2.565  -0.214  0.00  0.00    +0.148 HD
ATOM     32  H   UNL     1       1.424  -1.544  -0.181  0.00  0.00    +0.167 HD
BRANCH  29  33
ATOM     33  C   UNL     1       5.837   0.341   1.118  0.00  0.00    +0.157 C 
ATOM     34  C   UNL     1       6.816   1.534   1.162  0.00  0.00    +0.037 C 
ATOM     35  C   UNL     1       8.104   0.884   1.736  0.00  0.00    +0.031 C 
ATOM     36  C   UNL     1       8.018  -0.534   1.118  0.00  0.00    +0.160 C 
ATOM     37  O   UNL     1       6.617  -0.861   1.119  0.00  0.00    -0.373 OA
ENDBRANCH  29  33
ENDBRANCH   1  28
TORSDOF 3
