REMARK  Name = ZINC49203358
REMARK  3 active torsions:
REMARK  status: ('A' for Active; 'I' for Inactive)
REMARK    1  A    between atoms: C_6  and  N_7
REMARK    2  A    between atoms: N_10  and  C_11
REMARK    3  A    between atoms: C_15  and  C_17
REMARK                            x       y       z     vdW  Elec       q    Type
REMARK                         _______ _______ _______ _____ _____    ______ ____
ROOT
ATOM      1  N   UNL     1      -1.184  -0.721  -0.154  0.00  0.00    -0.269 N 
ATOM      2  C   UNL     1      -1.182  -2.064  -0.266  0.00  0.00    +0.308 C 
ATOM      3  O   UNL     1      -0.135  -2.659  -0.434  0.00  0.00    -0.252 OA
ATOM      4  N   UNL     1      -2.341  -2.748  -0.193  0.00  0.00    -0.269 N 
ATOM      5  H   UNL     1      -2.007  -0.253   0.055  0.00  0.00    +0.156 HD
ATOM      6  H   UNL     1      -3.183  -2.270  -0.134  0.00  0.00    +0.156 HD
ENDROOT
BRANCH   1  12
ATOM      7  C   UNL     1       0.956  -0.453  -1.241  0.00  0.00    +0.024 A 
ATOM      8  C   UNL     1       2.126   0.259  -1.421  0.00  0.00    +0.016 A 
ATOM      9  C   UNL     1       2.349   1.420  -0.702  0.00  0.00    +0.013 A 
ATOM     10  C   UNL     1       1.401   1.871   0.199  0.00  0.00    +0.016 A 
ATOM     11  C   UNL     1       0.229   1.163   0.383  0.00  0.00    +0.024 A 
ATOM     12  C   UNL     1       0.003  -0.002  -0.338  0.00  0.00    +0.035 A 
ATOM     13  I   UNL     1       4.125   2.496  -0.978  0.00  0.00    -0.044 I 
ENDBRANCH   1  12
BRANCH   4  14
ATOM     14  C   UNL     1      -2.330  -4.148  -0.201  0.00  0.00    +0.036 A 
ATOM     15  C   UNL     1      -3.370  -4.847  -0.801  0.00  0.00    +0.025 A 
ATOM     16  C   UNL     1      -3.365  -6.229  -0.812  0.00  0.00    +0.023 A 
ATOM     17  C   UNL     1      -2.325  -6.925  -0.227  0.00  0.00    +0.058 A 
ATOM     18  C   UNL     1      -1.274  -6.231   0.380  0.00  0.00    +0.072 A 
ATOM     19  C   UNL     1      -1.279  -4.835   0.385  0.00  0.00    +0.043 A 
ATOM     20 CL   UNL     1      -2.324  -8.661  -0.243  0.00  0.00    -0.082 Cl
BRANCH  18  21
ATOM     21  C   UNL     1      -0.195  -6.948   0.988  0.00  0.00    +0.101 C 
ATOM     22  N   UNL     1       0.661  -7.518   1.471  0.00  0.00    -0.191 NA
ENDBRANCH  18  21
ENDBRANCH   4  14
TORSDOF 3
