REMARK  Name = ZINC39962475
REMARK  9 active torsions:
REMARK  status: ('A' for Active; 'I' for Inactive)
REMARK    1  A    between atoms: C_1  and  C_2
REMARK    2  A    between atoms: C_2  and  C_3
REMARK    3  A    between atoms: C_3  and  C_4
REMARK    4  A    between atoms: C_9  and  S_11
REMARK    5  A    between atoms: S_11  and  C_12
REMARK    6  A    between atoms: C_12  and  C_13
REMARK    7  A    between atoms: N_15  and  C_16
REMARK    8  A    between atoms: C_19  and  C_22
REMARK    9  A    between atoms: C_28  and  C_32
REMARK                            x       y       z     vdW  Elec       q    Type
REMARK                         _______ _______ _______ _____ _____    ______ ____
ROOT
ATOM      1  C   UNL     1       1.350  -9.506  -3.761  0.00  0.00    +0.033 A 
ATOM      2  C   UNL     1       2.115  -8.836  -4.707  0.00  0.00    +0.023 A 
ATOM      3  C   UNL     1       2.859  -9.552  -5.624  0.00  0.00    +0.008 A 
ATOM      4  C   UNL     1       2.842 -10.935  -5.602  0.00  0.00    -0.017 A 
ATOM      5  C   UNL     1       2.080 -11.605  -4.662  0.00  0.00    +0.008 A 
ATOM      6  C   UNL     1       1.339 -10.895  -3.738  0.00  0.00    +0.023 A 
ENDROOT
BRANCH   4   7
ATOM      7  C   UNL     1       3.655 -11.713  -6.604  0.00  0.00    +0.164 C 
ATOM      8  N   UNL     1       3.065 -13.036  -6.850  0.00  0.00    -0.327 N 
ATOM      9  C   UNL     1       3.831 -14.154  -6.523  0.00  0.00    +0.042 A 
ATOM     10  C   UNL     1       3.435 -15.493  -6.686  0.00  0.00    +0.024 A 
ATOM     11  C   UNL     1       4.267 -16.530  -6.331  0.00  0.00    +0.005 A 
ATOM     12  C   UNL     1       5.521 -16.290  -5.801  0.00  0.00    -0.049 A 
ATOM     13  C   UNL     1       5.937 -14.980  -5.629  0.00  0.00    +0.020 A 
ATOM     14  C   UNL     1       5.104 -13.944  -5.985  0.00  0.00    +0.031 A 
ATOM     15  S   UNL     1       5.292 -12.176  -5.911  0.00  0.00    -0.096 S 
ATOM     16  C   UNL     1       6.421 -17.436  -5.416  0.00  0.00    +0.044 C 
ATOM     17  H   UNL     1       2.175 -13.128  -7.226  0.00  0.00    +0.147 HD
ENDBRANCH   4   7
BRANCH   1  20
ATOM     18  C   UNL     1       0.447  -9.250  -1.575  0.00  0.00    +0.227 C 
ATOM     19  O   UNL     1       0.897 -10.336  -1.274  0.00  0.00    -0.275 OA
ATOM     20  N   UNL     1       0.595  -8.783  -2.830  0.00  0.00    -0.285 N 
ATOM     21  H   UNL     1       0.178  -7.947  -3.089  0.00  0.00    +0.155 HD
BRANCH  18  22
ATOM     22  C   UNL     1      -0.277  -8.423  -0.544  0.00  0.00    +0.173 C 
BRANCH  22  23
ATOM     23  S   UNL     1      -0.309  -9.317   1.034  0.00  0.00    -0.077 S 
BRANCH  23  29
ATOM     24  C   UNL     1      -2.022  -7.814   4.223  0.00  0.00    +0.049 A 
ATOM     25  C   UNL     1      -2.497  -6.593   3.780  0.00  0.00    +0.095 A 
ATOM     26  C   UNL     1      -2.273  -6.234   2.451  0.00  0.00    +0.274 A 
ATOM     27  O   UNL     1      -2.721  -5.047   1.976  0.00  0.00    -0.266 OA
ATOM     28  N   UNL     1      -1.616  -7.072   1.659  0.00  0.00    -0.183 NA
ATOM     29  C   UNL     1      -1.177  -8.234   2.120  0.00  0.00    +0.192 A 
ATOM     30  N   UNL     1      -1.370  -8.599   3.379  0.00  0.00    -0.227 NA
BRANCH  24  31
ATOM     31  C   UNL     1      -2.240  -8.243   5.651  0.00  0.00    +0.055 C 
BRANCH  31  33
ATOM     32  C   UNL     1      -3.156 -10.041   7.123  0.00  0.00    +0.004 C 
ATOM     33  C   UNL     1      -2.936  -9.605   5.673  0.00  0.00    +0.003 C 
ENDBRANCH  31  33
ENDBRANCH  24  31
ENDBRANCH  23  29
ENDBRANCH  22  23
ENDBRANCH  18  22
ENDBRANCH   1  20
TORSDOF 7
