REMARK  Name = ZINC65623653
REMARK  4 active torsions:
REMARK  status: ('A' for Active; 'I' for Inactive)
REMARK    1  A    between atoms: C_3  and  N_22
REMARK    2  A    between atoms: N_6  and  C_8
REMARK    3  A    between atoms: C_8  and  C_9
REMARK    4  A    between atoms: N_11  and  C_12
REMARK                            x       y       z     vdW  Elec       q    Type
REMARK                         _______ _______ _______ _____ _____    ______ ____
ROOT
ATOM      1  C   UNL     1       2.239  -3.417   1.030  0.00  0.00    +0.237 C 
ATOM      2  O   UNL     1       3.267  -3.236   1.647  0.00  0.00    -0.274 OA
ATOM      3  N   UNL     1       1.178  -3.982   1.638  0.00  0.00    -0.282 N 
ATOM      4  H   UNL     1       0.333  -4.060   1.167  0.00  0.00    +0.155 HD
ENDROOT
BRANCH   3   5
ATOM      5  C   UNL     1       1.294  -4.457   2.950  0.00  0.00    +0.073 A 
ATOM      6  C   UNL     1       0.995  -3.623   4.021  0.00  0.00    +0.082 A 
ATOM      7  C   UNL     1       1.111  -4.095   5.316  0.00  0.00    +0.063 A 
ATOM      8  C   UNL     1       1.523  -5.396   5.546  0.00  0.00    +0.043 A 
ATOM      9  C   UNL     1       1.821  -6.228   4.482  0.00  0.00    +0.063 A 
ATOM     10  C   UNL     1       1.702  -5.764   3.184  0.00  0.00    +0.082 A 
ATOM     11 CL   UNL     1       2.069  -6.811   1.849  0.00  0.00    -0.080 Cl
ATOM     12 CL   UNL     1       2.339  -7.859   4.775  0.00  0.00    -0.082 Cl
ATOM     13 CL   UNL     1       0.738  -3.054   6.655  0.00  0.00    -0.082 Cl
ATOM     14 CL   UNL     1       0.478  -1.991   3.734  0.00  0.00    -0.080 Cl
ENDBRANCH   3   5
BRANCH   1  15
ATOM     15  C   UNL     1       2.149  -3.009  -0.418  0.00  0.00    +0.220 C 
BRANCH  15  21
ATOM     16  C   UNL     1       4.794  -0.524  -1.094  0.00  0.00    +0.020 A 
ATOM     17  C   UNL     1       5.812  -1.323  -1.633  0.00  0.00    +0.040 A 
ATOM     18  C   UNL     1       5.608  -2.665  -1.764  0.00  0.00    +0.190 A 
ATOM     19  C   UNL     1       4.382  -3.218  -1.356  0.00  0.00    +0.282 A 
ATOM     20  O   UNL     1       4.186  -4.417  -1.467  0.00  0.00    -0.265 OA
ATOM     21  N   UNL     1       3.423  -2.424  -0.841  0.00  0.00    -0.305 N 
ATOM     22  C   UNL     1       3.624  -1.088  -0.711  0.00  0.00    +0.090 A 
BRANCH  18  23
ATOM     23  N   UNL     1       6.667  -3.531  -2.330  0.00  0.00    +0.062 N 
ATOM     24  O   UNL     1       7.719  -3.049  -2.679  0.00  0.00    -0.126 OA
ATOM     25  O   UNL     1       6.479  -4.720  -2.443  0.00  0.00    -0.126 OA
ENDBRANCH  18  23
ENDBRANCH  15  21
ENDBRANCH   1  15
TORSDOF 4
