REMARK  Name = ZINC53993747
REMARK  7 active torsions:
REMARK  status: ('A' for Active; 'I' for Inactive)
REMARK    1  A    between atoms: C_1  and  C_2
REMARK    2  A    between atoms: C_4  and  C_32
REMARK    3  A    between atoms: C_11  and  S_15
REMARK    4  A    between atoms: S_15  and  S_16
REMARK    5  A    between atoms: S_16  and  C_17
REMARK    6  A    between atoms: C_21  and  C_28
REMARK    7  A    between atoms: C_23  and  C_27
REMARK                            x       y       z     vdW  Elec       q    Type
REMARK                         _______ _______ _______ _____ _____    ______ ____
ROOT
ATOM      1  S   UNL     1       0.085  -1.929   6.248  0.00  0.00    -0.029 S 
ENDROOT
BRANCH   1  12
ATOM      2  C   UNL     1      -0.018   1.503   0.010  0.00  0.00    +0.044 C 
ATOM      3  C   UNL     1       0.002  -0.004   0.002  0.00  0.00    -0.037 A 
ATOM      4  C   UNL     1       0.006  -0.697  -1.188  0.00  0.00    +0.027 A 
ATOM      5  C   UNL     1       0.024  -2.082  -1.191  0.00  0.00    +0.040 A 
ATOM      6  N   UNL     1       0.039  -2.751  -0.054  0.00  0.00    -0.245 NA
ATOM      7  C   UNL     1       0.036  -2.130   1.107  0.00  0.00    +0.111 A 
ATOM      8  C   UNL     1       0.023  -0.728   1.216  0.00  0.00    +0.037 A 
ATOM      9  C   UNL     1       0.029  -0.187   2.587  0.00  0.00    +0.092 A 
ATOM     10  C   UNL     1       0.051  -1.132   3.618  0.00  0.00    +0.073 A 
ATOM     11  S   UNL     1       0.051  -2.699   2.790  0.00  0.00    -0.064 S 
ATOM     12  C   UNL     1       0.058  -0.736   4.951  0.00  0.00    +0.125 A 
ATOM     13  N   UNL     1       0.043   0.571   5.222  0.00  0.00    -0.227 NA
ATOM     14  C   UNL     1       0.022   1.449   4.237  0.00  0.00    +0.223 A 
ATOM     15  N   UNL     1       0.014   1.111   2.972  0.00  0.00    -0.234 NA
ATOM     16  C   UNL     1       0.027  -2.829  -2.500  0.00  0.00    +0.065 C 
ENDBRANCH   1  12
BRANCH   1  17
ATOM     17  S   UNL     1       2.082  -2.238   6.595  0.00  0.00    -0.029 S 
BRANCH  17  18
ATOM     18  C   UNL     1       2.525  -0.950   7.713  0.00  0.00    +0.125 A 
ATOM     19  C   UNL     1       2.969   0.282   7.243  0.00  0.00    +0.073 A 
ATOM     20  C   UNL     1       3.320   1.304   8.130  0.00  0.00    +0.092 A 
ATOM     21  C   UNL     1       3.777   2.564   7.513  0.00  0.00    +0.037 A 
ATOM     22  C   UNL     1       4.189   3.747   8.168  0.00  0.00    -0.037 A 
ATOM     23  C   UNL     1       4.584   4.827   7.410  0.00  0.00    +0.027 A 
ATOM     24  C   UNL     1       4.575   4.750   6.027  0.00  0.00    +0.040 A 
ATOM     25  N   UNL     1       4.189   3.642   5.423  0.00  0.00    -0.245 NA
ATOM     26  C   UNL     1       3.804   2.586   6.107  0.00  0.00    +0.111 A 
ATOM     27  S   UNL     1       3.236   0.971   5.633  0.00  0.00    -0.064 S 
ATOM     28  C   UNL     1       5.009   5.938   5.208  0.00  0.00    +0.065 C 
ATOM     29  C   UNL     1       4.196   3.825   9.673  0.00  0.00    +0.044 C 
ATOM     30  N   UNL     1       3.201   1.017   9.447  0.00  0.00    -0.234 NA
ATOM     31  C   UNL     1       2.779  -0.154   9.855  0.00  0.00    +0.223 A 
ATOM     32  N   UNL     1       2.438  -1.129   9.033  0.00  0.00    -0.227 NA
ENDBRANCH  17  18
ENDBRANCH   1  17
TORSDOF 3
