REMARK  Name = ZINC26112904
REMARK  4 active torsions:
REMARK  status: ('A' for Active; 'I' for Inactive)
REMARK    1  A    between atoms: C_1  and  N_2
REMARK    2  A    between atoms: C_11  and  S_12
REMARK    3  A    between atoms: S_12  and  C_13
REMARK    4  A    between atoms: C_13  and  C_14
REMARK                            x       y       z     vdW  Elec       q    Type
REMARK                         _______ _______ _______ _____ _____    ______ ____
ROOT
ATOM      1  C   UNL     1       3.795   3.006  -0.193  0.00  0.00    +0.143 A 
ATOM      2  N   UNL     1       4.377   1.819  -0.200  0.00  0.00    -0.216 NA
ATOM      3  C   UNL     1       3.694   0.699  -0.031  0.00  0.00    +0.128 A 
ATOM      4  C   UNL     1       2.287   0.769   0.165  0.00  0.00    +0.051 A 
ATOM      5  C   UNL     1       1.337  -0.330   0.373  0.00  0.00    -0.025 A 
ATOM      6  C   UNL     1       0.042   0.011   0.531  0.00  0.00    -0.004 A 
ATOM      7  S   UNL     1       0.009   1.782   0.422  0.00  0.00    -0.073 S 
ATOM      8  C   UNL     1       1.739   2.066   0.159  0.00  0.00    +0.114 A 
ATOM      9  N   UNL     1       2.494   3.134  -0.017  0.00  0.00    -0.224 NA
ATOM     10  C   UNL     1      -1.127  -0.901   0.738  0.00  0.00    +0.043 C 
ATOM     11  C   UNL     1      -0.797  -1.906   1.850  0.00  0.00    +0.005 C 
ATOM     12  C   UNL     1      -0.148  -3.130   1.212  0.00  0.00    +0.001 C 
ATOM     13  C   UNL     1       0.675  -2.711  -0.004  0.00  0.00    +0.005 C 
ATOM     14  C   UNL     1       1.808  -1.781   0.413  0.00  0.00    +0.037 C 
ATOM     15  N   UNL     1       4.340  -0.525  -0.045  0.00  0.00    -0.343 N 
ATOM     16  H   UNL     1       3.764  -1.452   0.096  0.00  0.00    +0.144 HD
ATOM     17  H   UNL     1       5.428  -0.571  -0.198  0.00  0.00    +0.144 HD
ENDROOT
BRANCH   1  18
ATOM     18  C   UNL     1       4.636   4.240  -0.392  0.00  0.00    +0.153 C 
BRANCH  18  19
ATOM     19  S   UNL     1       4.734   4.627  -2.157  0.00  0.00    -0.080 S 
BRANCH  19  30
ATOM     20  C   UNL     1       5.580   6.156  -4.549  0.00  0.00    +0.154 C 
ATOM     21  N   UNL     1       6.068   6.686  -3.274  0.00  0.00    -0.290 N 
ATOM     22  C   UNL     1       6.840   7.800  -3.244  0.00  0.00    +0.269 A 
ATOM     23  O   UNL     1       7.143   8.378  -4.275  0.00  0.00    -0.266 OA
ATOM     24  C   UNL     1       7.283   8.262  -2.008  0.00  0.00    +0.102 A 
ATOM     25  C   UNL     1       6.943   7.606  -0.811  0.00  0.00    +0.086 A 
ATOM     26  C   UNL     1       7.457   8.182   0.359  0.00  0.00    +0.036 A 
ATOM     27  C   UNL     1       8.224   9.291   0.291  0.00  0.00    +0.048 A 
ATOM     28  S   UNL     1       8.283   9.621  -1.463  0.00  0.00    -0.090 S 
ATOM     29  N   UNL     1       6.156   6.496  -0.936  0.00  0.00    -0.223 NA
ATOM     30  C   UNL     1       5.745   6.069  -2.099  0.00  0.00    +0.172 A 
ENDBRANCH  19  30
ENDBRANCH  18  19
ENDBRANCH   1  18
TORSDOF 3
