REMARK  Name = ZINC37725527
REMARK  12 active torsions:
REMARK  status: ('A' for Active; 'I' for Inactive)
REMARK    1  A    between atoms: C_1  and  C_2
REMARK    2  A    between atoms: C_2  and  C_3
REMARK    3  A    between atoms: C_3  and  N_4
REMARK    4  A    between atoms: C_5  and  C_7
REMARK    5  A    between atoms: C_7  and  C_9
REMARK    6  A    between atoms: C_7  and  O_10
REMARK    7  A    between atoms: O_10  and  C_11
REMARK    8  A    between atoms: C_16  and  C_17
REMARK    9  A    between atoms: C_17  and  C_18
REMARK   10  A    between atoms: C_18  and  C_20
REMARK   11  A    between atoms: C_18  and  N_22
REMARK   12  A    between atoms: C_20  and  C_21
REMARK                            x       y       z     vdW  Elec       q    Type
REMARK                         _______ _______ _______ _____ _____    ______ ____
ROOT
ATOM      1  C   UNL     1       1.546  -5.835  -3.937  0.00  0.00    +0.125 A 
ATOM      2  C   UNL     1       0.586  -6.550  -3.236  0.00  0.00    +0.047 A 
ATOM      3  C   UNL     1       0.221  -7.813  -3.659  0.00  0.00    +0.019 A 
ATOM      4  C   UNL     1       0.813  -8.366  -4.781  0.00  0.00    +0.018 A 
ATOM      5  C   UNL     1       1.771  -7.654  -5.481  0.00  0.00    +0.022 A 
ATOM      6  C   UNL     1       2.134  -6.388  -5.065  0.00  0.00    -0.006 A 
ATOM      7 BR   UNL     1       0.312 -10.095  -5.359  0.00  0.00    -0.050 Br
ENDROOT
BRANCH   1   8
ATOM      8  O   UNL     1       1.906  -4.592  -3.522  0.00  0.00    -0.480 OA
BRANCH   8   9
ATOM      9  C   UNL     1       1.172  -4.034  -2.430  0.00  0.00    +0.255 C 
ATOM     10  C   UNL     1       1.775  -4.518  -1.110  0.00  0.00    +0.062 C 
BRANCH   9  12
ATOM     11  N   UNL     1       0.537  -1.785  -1.619  0.00  0.00    -0.312 N 
ATOM     12  C   UNL     1       1.242  -2.530  -2.493  0.00  0.00    +0.254 C 
ATOM     13  O   UNL     1       1.933  -1.990  -3.330  0.00  0.00    -0.272 OA
ATOM     14  H   UNL     1      -0.016  -2.217  -0.949  0.00  0.00    +0.149 HD
BRANCH  11  15
ATOM     15  C   UNL     1       0.605  -0.323  -1.680  0.00  0.00    +0.104 C 
BRANCH  15  17
ATOM     16  C   UNL     1      -0.210   1.802  -0.650  0.00  0.00    +0.005 C 
ATOM     17  C   UNL     1      -0.281   0.275  -0.586  0.00  0.00    +0.015 C 
ENDBRANCH  15  17
ENDBRANCH  11  15
ENDBRANCH   9  12
ENDBRANCH   8   9
ENDBRANCH   1   8
BRANCH   6  18
ATOM     18  C   UNL     1       3.172  -5.611  -5.832  0.00  0.00    +0.022 C 
BRANCH  18  19
ATOM     19  C   UNL     1       4.545  -5.824  -5.192  0.00  0.00    -0.071 C 
BRANCH  19  20
ATOM     20  N   UNL     1       4.550  -5.249  -3.840  0.00  0.00    +0.380 N 
ATOM     21  H   UNL     1       3.843  -5.702  -3.280  0.00  0.00    -0.090 HD
ATOM     22  H   UNL     1       5.455  -5.390  -3.418  0.00  0.00    -0.090 HD
ATOM     23  H   UNL     1       4.353  -4.261  -3.894  0.00  0.00    -0.090 HD
ENDBRANCH  19  20
BRANCH  19  24
ATOM     24  C   UNL     1       5.616  -5.137  -6.042  0.00  0.00    -0.019 C 
ATOM     25  C   UNL     1       7.000  -5.454  -5.471  0.00  0.00    +0.002 C 
ENDBRANCH  19  24
ENDBRANCH  18  19
ENDBRANCH   6  18
TORSDOF 9
