REMARK  Name = ZINC21465816
REMARK  19 active torsions:
REMARK  status: ('A' for Active; 'I' for Inactive)
REMARK    1  A    between atoms: C_1  and  C_2
REMARK    2  A    between atoms: C_2  and  C_3
REMARK    3  A    between atoms: C_2  and  C_4
REMARK    4  A    between atoms: C_4  and  N_5
REMARK    5  A    between atoms: N_5  and  C_6
REMARK    6  A    between atoms: C_6  and  C_7
REMARK    7  A    between atoms: C_7  and  C_8
REMARK    8  A    between atoms: C_7  and  C_9
REMARK    9  A    between atoms: C_10  and  C_12
REMARK   10  A    between atoms: C_12  and  O_13
REMARK   11  A    between atoms: O_13  and  C_14
REMARK   12  A    between atoms: C_14  and  C_16
REMARK   13  A    between atoms: C_17  and  C_18
REMARK   14  A    between atoms: C_20  and  O_28
REMARK   15  A    between atoms: C_21  and  O_26
REMARK   16  A    between atoms: C_23  and  O_24
REMARK   17  A    between atoms: O_24  and  C_25
REMARK   18  A    between atoms: O_26  and  C_27
REMARK   19  A    between atoms: O_28  and  C_29
REMARK                            x       y       z     vdW  Elec       q    Type
REMARK                         _______ _______ _______ _____ _____    ______ ____
ROOT
ATOM      1  C   UNL     1       1.477   0.071   8.516  0.00  0.00    +0.332 C 
ATOM      2  O   UNL     1       2.479  -0.618   8.552  0.00  0.00    -0.246 OA
ENDROOT
BRANCH   1   3
ATOM      3  C   UNL     1       0.923   0.450   7.270  0.00  0.00    +0.092 C 
ATOM      4  C   UNL     1       1.508   0.047   6.118  0.00  0.00    +0.018 C 
BRANCH   4   5
ATOM      5  C   UNL     1       0.935   0.440   4.827  0.00  0.00    +0.021 A 
ATOM      6  C   UNL     1      -0.220   1.234   4.782  0.00  0.00    +0.061 A 
ATOM      7  C   UNL     1      -0.755   1.600   3.566  0.00  0.00    +0.162 A 
ATOM      8  C   UNL     1      -0.149   1.182   2.379  0.00  0.00    +0.165 A 
ATOM      9  C   UNL     1       0.990   0.393   2.415  0.00  0.00    +0.095 A 
ATOM     10  C   UNL     1       1.540   0.023   3.630  0.00  0.00    +0.131 A 
BRANCH  10  11
ATOM     11  O   UNL     1       2.658  -0.747   3.664  0.00  0.00    -0.494 OA
ATOM     12  C   UNL     1       3.218  -1.133   2.408  0.00  0.00    +0.277 C 
ENDBRANCH  10  11
BRANCH   8  13
ATOM     13  O   UNL     1      -0.682   1.547   1.184  0.00  0.00    -0.491 OA
ATOM     14  C   UNL     1      -0.013   1.086   0.008  0.00  0.00    +0.277 C 
ENDBRANCH   8  13
BRANCH   7  15
ATOM     15  O   UNL     1      -1.875   2.370   3.521  0.00  0.00    -0.491 OA
ATOM     16  C   UNL     1      -2.443   2.762   4.772  0.00  0.00    +0.277 C 
ENDBRANCH   7  15
ENDBRANCH   4   5
ENDBRANCH   1   3
BRANCH   1  17
ATOM     17  O   UNL     1       0.893   0.473   9.664  0.00  0.00    -0.452 OA
BRANCH  17  18
ATOM     18  C   UNL     1       1.506   0.053  10.885  0.00  0.00    +0.328 C 
BRANCH  18  20
ATOM     19  N   UNL     1       1.115   0.324  13.313  0.00  0.00    -0.298 N 
ATOM     20  C   UNL     1       0.721   0.594  12.053  0.00  0.00    +0.253 C 
ATOM     21  O   UNL     1      -0.266   1.272  11.858  0.00  0.00    -0.272 OA
BRANCH  19  22
ATOM     22  C   UNL     1       0.353   0.849  14.448  0.00  0.00    +0.110 C 
BRANCH  22  24
ATOM     23  C   UNL     1      -0.072  -1.438  15.357  0.00  0.00    +0.009 C 
ATOM     24  C   UNL     1      -0.730  -0.157  14.844  0.00  0.00    +0.000 C 
ATOM     25  C   UNL     1      -1.605   0.444  15.946  0.00  0.00    +0.009 C 
ENDBRANCH  22  24
ENDBRANCH  19  22
BRANCH  19  26
ATOM     26  C   UNL     1       2.307  -0.495  13.547  0.00  0.00    +0.110 C 
BRANCH  26  27
ATOM     27  C   UNL     1       3.539   0.408  13.628  0.00  0.00    +0.000 C 
ATOM     28  C   UNL     1       3.425   1.318  14.853  0.00  0.00    +0.009 C 
ATOM     29  C   UNL     1       4.797  -0.454  13.748  0.00  0.00    +0.009 C 
ENDBRANCH  26  27
ENDBRANCH  19  26
ENDBRANCH  18  20
ENDBRANCH  17  18
ENDBRANCH   1  17
TORSDOF 12
