REMARK  Name = ZINC34787421
REMARK  4 active torsions:
REMARK  status: ('A' for Active; 'I' for Inactive)
REMARK    1  A    between atoms: C_6  and  C_7
REMARK    2  A    between atoms: N_16  and  C_17
REMARK    3  A    between atoms: C_17  and  C_18
REMARK    4  A    between atoms: C_26  and  C_28
REMARK                            x       y       z     vdW  Elec       q    Type
REMARK                         _______ _______ _______ _____ _____    ______ ____
ROOT
ATOM      1  C   UNL     1       0.710  -1.727   2.495  0.00  0.00    +0.020 C 
ENDROOT
BRANCH   1  10
ATOM      2  C   UNL     1       1.058  -1.053   0.224  0.00  0.00    -0.005 C 
ATOM      3  C   UNL     1       1.053  -1.535  -1.223  0.00  0.00    -0.047 A 
ATOM      4  C   UNL     1       1.627  -0.833  -2.280  0.00  0.00    +0.010 A 
ATOM      5  C   UNL     1       1.577  -1.339  -3.535  0.00  0.00    +0.045 A 
ATOM      6  S   UNL     1       0.694  -2.872  -3.280  0.00  0.00    -0.101 S 
ATOM      7  C   UNL     1       0.458  -2.721  -1.532  0.00  0.00    -0.010 A 
ATOM      8  C   UNL     1      -0.225  -3.646  -0.579  0.00  0.00    +0.024 C 
ATOM      9  C   UNL     1      -0.444  -2.877   0.736  0.00  0.00    -0.072 C 
ATOM     10  N   UNL     1       0.806  -2.198   1.107  0.00  0.00    +0.393 N 
ATOM     11  H   UNL     1       1.571  -2.851   1.030  0.00  0.00    -0.080 HD
BRANCH   2  17
ATOM     12  C   UNL     1       2.557   0.925   0.550  0.00  0.00    +0.004 A 
ATOM     13  C   UNL     1       3.787   1.480   0.851  0.00  0.00    +0.020 A 
ATOM     14  C   UNL     1       4.860   0.660   1.152  0.00  0.00    +0.041 A 
ATOM     15  C   UNL     1       4.701  -0.714   1.153  0.00  0.00    +0.020 A 
ATOM     16  C   UNL     1       3.471  -1.268   0.853  0.00  0.00    +0.004 A 
ATOM     17  C   UNL     1       2.399  -0.449   0.551  0.00  0.00    -0.057 A 
ATOM     18 CL   UNL     1       6.405   1.356   1.529  0.00  0.00    -0.084 Cl
ENDBRANCH   2  17
ENDBRANCH   1  10
BRANCH   1  19
ATOM     19  C   UNL     1       0.574  -2.910   3.418  0.00  0.00    +0.199 C 
ATOM     20  O   UNL     1       0.558  -4.035   2.965  0.00  0.00    -0.278 OA
ATOM     21  N   UNL     1       0.470  -2.718   4.748  0.00  0.00    -0.300 N 
ATOM     22  C   UNL     1       0.481  -1.361   5.311  0.00  0.00    +0.126 C 
ATOM     23  C   UNL     1      -0.782  -1.172   6.160  0.00  0.00    +0.127 C 
ATOM     24  N   UNL     1      -0.910  -2.316   7.074  0.00  0.00    -0.295 N 
ATOM     25  C   UNL     1      -0.921  -3.674   6.511  0.00  0.00    +0.127 C 
ATOM     26  C   UNL     1       0.337  -3.862   5.661  0.00  0.00    +0.126 C 
ATOM     27  C   UNL     1      -1.014  -2.124   8.404  0.00  0.00    +0.247 C 
ATOM     28  O   UNL     1      -1.188  -3.074   9.143  0.00  0.00    -0.270 OA
BRANCH  27  29
ATOM     29  C   UNL     1      -0.917  -0.761   8.963  0.00  0.00    +0.037 A 
ATOM     30  C   UNL     1      -1.709   0.267   8.447  0.00  0.00    +0.016 A 
ATOM     31  C   UNL     1      -1.615   1.537   8.972  0.00  0.00    +0.039 A 
ATOM     32  C   UNL     1      -0.734   1.797  10.011  0.00  0.00    +0.123 A 
ATOM     33  C   UNL     1       0.055   0.780  10.528  0.00  0.00    +0.039 A 
ATOM     34  C   UNL     1      -0.036  -0.495  10.014  0.00  0.00    +0.016 A 
ATOM     35  F   UNL     1      -0.645   3.044  10.522  0.00  0.00    -0.205 F 
ENDBRANCH  27  29
ENDBRANCH   1  19
TORSDOF 4
