REMARK  Name = ZINC02111216
REMARK  14 active torsions:
REMARK  status: ('A' for Active; 'I' for Inactive)
REMARK    1  A    between atoms: C_1  and  C_2
REMARK    2  A    between atoms: C_3  and  C_34
REMARK    3  A    between atoms: C_9  and  C_33
REMARK    4  A    between atoms: C_10  and  C_16
REMARK    5  A    between atoms: C_16  and  C_17
REMARK    6  A    between atoms: C_17  and  C_18
REMARK    7  A    between atoms: N_20  and  C_21
REMARK    8  A    between atoms: C_21  and  C_22
REMARK    9  A    between atoms: N_24  and  CA_25
REMARK   10  A    between atoms: CA_25  and  CB_27
REMARK   11  A    between atoms: CA_25  and  C_31
REMARK   12  A    between atoms: CB_27  and  CG_28
REMARK   13  A    between atoms: CG_28  and  CD1_29
REMARK   14  A    between atoms: CG_28  and  CD2_30
REMARK                            x       y       z     vdW  Elec       q    Type
REMARK                         _______ _______ _______ _____ _____    ______ ____
ROOT
ATOM      1  C   UNK A   0       8.234   0.426   2.344  0.00  0.00    +0.052 C 
ENDROOT
BRANCH   1  11
ATOM      2  C   UNK A   0      13.064  -6.208   2.037  0.00  0.00    +0.048 C 
ATOM      3  C   UNK A   0      12.866  -5.498   3.352  0.00  0.00    -0.002 A 
ATOM      4  C   UNK A   0      13.403  -5.828   4.533  0.00  0.00    +0.106 A 
ATOM      5  O   UNK A   0      13.002  -4.967   5.484  0.00  0.00    -0.460 OA
ATOM      6  C   UNK A   0      12.181  -4.028   4.971  0.00  0.00    +0.139 A 
ATOM      7  C   UNK A   0      12.044  -4.304   3.595  0.00  0.00    +0.024 A 
ATOM      8  C   UNK A   0      11.250  -3.498   2.792  0.00  0.00    +0.023 A 
ATOM      9  C   UNK A   0      10.586  -2.411   3.359  0.00  0.00    +0.022 A 
ATOM     10  C   UNK A   0       9.738  -1.539   2.540  0.00  0.00    -0.030 A 
ATOM     11  C   UNK A   0       9.116  -0.496   3.145  0.00  0.00    +0.041 A 
ATOM     12  C   UNK A   0       9.301  -0.274   4.527  0.00  0.00    +0.341 A 
ATOM     13  O   UNK A   0       8.741   0.669   5.056  0.00  0.00    -0.245 OA
ATOM     14  O   UNK A   0      10.074  -1.077   5.273  0.00  0.00    -0.422 OA
ATOM     15  C   UNK A   0      10.723  -2.135   4.735  0.00  0.00    +0.143 A 
ATOM     16  C   UNK A   0      11.518  -2.944   5.528  0.00  0.00    +0.093 A 
ATOM     17  C   UNK A   0       9.562  -1.795   1.065  0.00  0.00    +0.045 C 
ATOM     18  C   UNK A   0      14.323  -6.999   4.763  0.00  0.00    +0.086 C 
ENDBRANCH   1  11
BRANCH   1  19
ATOM     19  C   UNK A   0       6.798  -0.103   2.355  0.00  0.00    +0.100 C 
BRANCH  19  20
ATOM     20  C   UNK A   0       5.917   0.819   1.553  0.00  0.00    +0.214 C 
ATOM     21  O   UNK A   0       6.389   1.803   1.025  0.00  0.00    -0.276 OA
ATOM     22  N   UNK A   0       4.602   0.550   1.423  0.00  0.00    -0.307 N 
ATOM     23  H   UNK A   0       4.224  -0.237   1.845  0.00  0.00    +0.149 HD
BRANCH  22  24
ATOM     24  C   UNK A   0       3.745   1.447   0.644  0.00  0.00    +0.200 C 
BRANCH  24  25
ATOM     25  C   UNK A   0       2.331   0.926   0.654  0.00  0.00    +0.231 C 
ATOM     26  O   UNK A   0       2.066  -0.095   1.254  0.00  0.00    -0.274 OA
ATOM     27  N   LEU A   1       1.362   1.593  -0.002  0.00  0.00    -0.301 N 
ATOM     28  H   LEU A   1       1.574   2.409  -0.482  0.00  0.00    +0.150 HD
BRANCH  27  29
ATOM     29  CA  LEU A   1      -0.013   1.086   0.008  0.00  0.00    +0.186 C 
BRANCH  29  30
ATOM     30  C   LEU A   1      -0.718   1.572   1.248  0.00  0.00    +0.376 C 
ATOM     31  O   LEU A   1      -0.133   2.270   2.041  0.00  0.00    -0.244 OA
ATOM     32  OXT LEU A   1      -1.997   1.229   1.471  0.00  0.00    -0.244 OA
ENDBRANCH  29  30
BRANCH  29  33
ATOM     33  CB  LEU A   1      -0.753   1.593  -1.232  0.00  0.00    +0.037 C 
BRANCH  33  34
ATOM     34  CG  LEU A   1      -0.111   0.998  -2.487  0.00  0.00    -0.015 C 
ATOM     35  CD1 LEU A   1      -0.308  -0.519  -2.490  0.00  0.00    +0.007 C 
ATOM     36  CD2 LEU A   1      -0.769   1.601  -3.730  0.00  0.00    +0.007 C 
ENDBRANCH  33  34
ENDBRANCH  29  33
ENDBRANCH  27  29
ENDBRANCH  24  25
ENDBRANCH  22  24
ENDBRANCH  19  20
ENDBRANCH   1  19
TORSDOF 9
