REMARK  Name = ZINC66165525
REMARK  13 active torsions:
REMARK  status: ('A' for Active; 'I' for Inactive)
REMARK    1  A    between atoms: C_1  and  C_2
REMARK    2  A    between atoms: C_2  and  C_3
REMARK    3  A    between atoms: C_3  and  C_4
REMARK    4  A    between atoms: C_4  and  O_5
REMARK    5  A    between atoms: O_5  and  C_6
REMARK    6  A    between atoms: C_9  and  N_12
REMARK    7  A    between atoms: N_12  and  C_13
REMARK    8  A    between atoms: C_13  and  C_14
REMARK    9  A    between atoms: C_17  and  O_20
REMARK   10  A    between atoms: O_20  and  C_21
REMARK   11  A    between atoms: C_21  and  C_22
REMARK   12  A    between atoms: C_22  and  O_23
REMARK   13  A    between atoms: O_23  and  C_24
REMARK                            x       y       z     vdW  Elec       q    Type
REMARK                         _______ _______ _______ _____ _____    ______ ____
ROOT
ATOM      1  C   UNL     1       2.498 -10.010  -4.220  0.00  0.00    -0.030 A 
ATOM      2  C   UNL     1       3.527 -10.689  -3.594  0.00  0.00    +0.009 A 
ATOM      3  C   UNL     1       3.512 -12.069  -3.538  0.00  0.00    +0.046 A 
ATOM      4  C   UNL     1       2.463 -12.774  -4.111  0.00  0.00    +0.121 A 
ATOM      5  C   UNL     1       1.432 -12.091  -4.738  0.00  0.00    +0.046 A 
ATOM      6  C   UNL     1       1.449 -10.710  -4.787  0.00  0.00    +0.009 A 
ENDROOT
BRANCH   1   7
ATOM      7  C   UNL     1       2.517  -8.504  -4.280  0.00  0.00    +0.137 C 
BRANCH   7   8
ATOM      8  N   UNL     1       1.839  -7.960  -3.102  0.00  0.00    -0.340 N 
ATOM      9  H   UNL     1       1.465  -8.560  -2.437  0.00  0.00    +0.146 HD
BRANCH   8  13
ATOM     10  C   UNL     1       1.514  -3.834  -2.603  0.00  0.00    +0.121 A 
ATOM     11  C   UNL     1       0.979  -4.691  -1.653  0.00  0.00    +0.047 A 
ATOM     12  C   UNL     1       1.086  -6.059  -1.817  0.00  0.00    +0.026 A 
ATOM     13  C   UNL     1       1.729  -6.575  -2.934  0.00  0.00    +0.028 A 
ATOM     14  C   UNL     1       2.264  -5.716  -3.886  0.00  0.00    +0.026 A 
ATOM     15  C   UNL     1       2.151  -4.349  -3.723  0.00  0.00    +0.047 A 
BRANCH  10  16
ATOM     16  O   UNL     1       1.408  -2.488  -2.441  0.00  0.00    -0.492 OA
BRANCH  16  17
ATOM     17  C   UNL     1       0.739  -2.027  -1.265  0.00  0.00    +0.229 C 
BRANCH  17  18
ATOM     18  C   UNL     1       0.718  -0.497  -1.257  0.00  0.00    +0.041 C 
BRANCH  18  20
ATOM     19  C   UNL     1      -0.019   1.526   0.010  0.00  0.00    +0.004 C 
ATOM     20  C   UNL     1       0.002  -0.004   0.002  0.00  0.00    -0.000 C 
ENDBRANCH  18  20
ENDBRANCH  17  18
ENDBRANCH  16  17
ENDBRANCH  10  16
ENDBRANCH   8  13
ENDBRANCH   7   8
ENDBRANCH   1   7
BRANCH   4  21
ATOM     21  O   UNL     1       2.447 -14.132  -4.057  0.00  0.00    -0.489 OA
BRANCH  21  22
ATOM     22  C   UNL     1       1.336 -14.791  -4.668  0.00  0.00    +0.270 C 
BRANCH  22  23
ATOM     23  C   UNL     1       1.491 -16.305  -4.508  0.00  0.00    +0.270 C 
BRANCH  23  24
ATOM     24  O   UNL     1       1.419 -16.648  -3.123  0.00  0.00    -0.489 OA
BRANCH  24  25
ATOM     25  C   UNL     1       1.540 -17.964  -2.805  0.00  0.00    +0.121 A 
ATOM     26  C   UNL     1       1.729 -18.905  -3.807  0.00  0.00    +0.045 A 
ATOM     27  C   UNL     1       1.852 -20.242  -3.482  0.00  0.00    +0.004 A 
ATOM     28  C   UNL     1       1.786 -20.642  -2.160  0.00  0.00    +0.000 A 
ATOM     29  C   UNL     1       1.597 -19.706  -1.160  0.00  0.00    +0.004 A 
ATOM     30  C   UNL     1       1.479 -18.367  -1.479  0.00  0.00    +0.045 A 
ENDBRANCH  24  25
ENDBRANCH  23  24
ENDBRANCH  22  23
ENDBRANCH  21  22
ENDBRANCH   4  21
TORSDOF 12
