REMARK  Name = ZINC14922654
REMARK  12 active torsions:
REMARK  status: ('A' for Active; 'I' for Inactive)
REMARK    1  A    between atoms: C_1  and  C_2
REMARK    2  A    between atoms: C_2  and  N_62
REMARK    3  A    between atoms: C_3  and  C_4
REMARK    4  A    between atoms: C_3  and  N_62
REMARK    5  A    between atoms: N_6  and  C_7
REMARK    6  A    between atoms: C_10  and  N_13
REMARK    7  A    between atoms: C_14  and  C_16
REMARK    8  A    between atoms: C_17  and  C_19
REMARK    9  A    between atoms: C_17  and  C_20
REMARK   10  A    between atoms: C_17  and  N_62
REMARK   11  A    between atoms: N_22  and  C_23
REMARK   12  A    between atoms: C_24  and  C_31
REMARK                            x       y       z     vdW  Elec       q    Type
REMARK                         _______ _______ _______ _____ _____    ______ ____
ROOT
ATOM      1  N   UNL     1      -6.600   7.366   0.214  0.00  0.00    +0.393 N 
ATOM      2  H   UNL     1      -6.078   7.726  -0.593  0.00  0.00    -0.080 HD
ENDROOT
BRANCH   1   4
ATOM      3  C   UNL     1      -4.465   7.843   1.306  0.00  0.00    -0.017 C 
ATOM      4  C   UNL     1      -5.987   7.889   1.454  0.00  0.00    -0.081 C 
ENDBRANCH   1   4
BRANCH   1   5
ATOM      5  C   UNL     1      -8.005   7.814   0.117  0.00  0.00    +0.017 C 
ATOM      6  C   UNL     1      -8.768   7.469   1.397  0.00  0.00    -0.004 C 
BRANCH   5   7
ATOM      7  C   UNL     1      -8.025   9.307  -0.093  0.00  0.00    +0.204 C 
ATOM      8  O   UNL     1      -6.984   9.927  -0.139  0.00  0.00    -0.277 OA
ATOM      9  N   UNL     1      -9.200   9.952  -0.231  0.00  0.00    -0.281 N 
ATOM     10  H   UNL     1     -10.033   9.456  -0.195  0.00  0.00    +0.155 HD
BRANCH   9  11
ATOM     11  C   UNL     1      -9.219  11.325  -0.424  0.00  0.00    +0.084 A 
ATOM     12  C   UNL     1     -10.314  12.155  -0.590  0.00  0.00    +0.068 A 
ATOM     13  C   UNL     1     -10.059  13.583  -0.775  0.00  0.00    -0.023 A 
ATOM     14  C   UNL     1      -8.761  13.937  -0.772  0.00  0.00    -0.004 A 
ATOM     15  S   UNL     1      -7.879  12.415  -0.524  0.00  0.00    -0.077 S 
ATOM     16  C   UNL     1      -8.579  15.417  -0.970  0.00  0.00    +0.043 C 
ATOM     17  C   UNL     1      -9.967  16.024  -0.667  0.00  0.00    +0.010 C 
ATOM     18  C   UNL     1     -10.903  14.841  -0.987  0.00  0.00    +0.037 C 
BRANCH  12  19
ATOM     19  C   UNL     1     -11.680  11.623  -0.578  0.00  0.00    +0.244 C 
ATOM     20  O   UNL     1     -12.295  11.549   0.470  0.00  0.00    -0.270 OA
ATOM     21  N   UNL     1     -12.256  11.216  -1.726  0.00  0.00    -0.325 N 
ATOM     22  H   UNL     1     -11.766  11.275  -2.562  0.00  0.00    +0.145 HD
ATOM     23  H   UNL     1     -13.159  10.864  -1.718  0.00  0.00    +0.145 HD
ENDBRANCH  12  19
ENDBRANCH   9  11
ENDBRANCH   5   7
ENDBRANCH   1   5
BRANCH   1  24
ATOM     24  C   UNL     1      -6.539   5.889   0.205  0.00  0.00    +0.020 C 
BRANCH  24  25
ATOM     25  C   UNL     1      -6.715   5.408  -1.212  0.00  0.00    +0.201 C 
ATOM     26  O   UNL     1      -6.782   6.209  -2.121  0.00  0.00    -0.278 OA
ATOM     27  N   UNL     1      -6.798   4.088  -1.470  0.00  0.00    -0.287 N 
ATOM     28  H   UNL     1      -6.668   3.445  -0.755  0.00  0.00    +0.155 HD
BRANCH  27  29
ATOM     29  C   UNL     1      -7.070   3.644  -2.770  0.00  0.00    +0.033 A 
ATOM     30  C   UNL     1      -6.526   2.450  -3.225  0.00  0.00    +0.025 A 
ATOM     31  C   UNL     1      -6.795   2.012  -4.506  0.00  0.00    +0.025 A 
ATOM     32  C   UNL     1      -7.610   2.766  -5.340  0.00  0.00    +0.033 A 
ATOM     33  C   UNL     1      -8.149   3.963  -4.888  0.00  0.00    +0.025 A 
ATOM     34  C   UNL     1      -7.885   4.397  -3.605  0.00  0.00    +0.025 A 
BRANCH  32  35
ATOM     35  N   UNL     1      -7.884   2.321  -6.641  0.00  0.00    -0.286 N 
ATOM     36  C   UNL     1      -8.022   1.004  -6.887  0.00  0.00    +0.214 C 
ATOM     37  O   UNL     1      -7.829   0.197  -6.002  0.00  0.00    -0.276 OA
ATOM     38  C   UNL     1      -8.417   0.532  -8.263  0.00  0.00    +0.109 C 
ATOM     39  H   UNL     1      -7.970   2.962  -7.364  0.00  0.00    +0.155 HD
ENDBRANCH  32  35
ENDBRANCH  27  29
ENDBRANCH  24  25
ENDBRANCH   1  24
TORSDOF 9
