REMARK  Name = ZINC67544841
REMARK  2 active torsions:
REMARK  status: ('A' for Active; 'I' for Inactive)
REMARK    1  A    between atoms: C_4  and  N_18
REMARK    2  A    between atoms: C_5  and  N_7
REMARK                            x       y       z     vdW  Elec       q    Type
REMARK                         _______ _______ _______ _____ _____    ______ ____
ROOT
ATOM      1  C   UNL     1       0.045   1.363  -0.521  0.00  0.00    +0.002 A 
ATOM      2  C   UNL     1       1.156   2.089  -0.132  0.00  0.00    +0.002 A 
ATOM      3  C   UNL     1       2.296   1.437   0.299  0.00  0.00    +0.025 A 
ATOM      4  C   UNL     1       2.328   0.051   0.341  0.00  0.00    +0.052 A 
ATOM      5  C   UNL     1       1.208  -0.681  -0.052  0.00  0.00    +0.056 A 
ATOM      6  C   UNL     1       0.069  -0.018  -0.482  0.00  0.00    +0.025 A 
ENDROOT
BRANCH   5   7
ATOM      7  N   UNL     1       1.234  -2.082  -0.012  0.00  0.00    -0.268 N 
ATOM      8  C   UNL     1       0.082  -2.775   0.088  0.00  0.00    +0.307 C 
ATOM      9  O   UNL     1      -0.983  -2.187   0.093  0.00  0.00    -0.252 OA
ATOM     10  N   UNL     1       0.110  -4.119   0.181  0.00  0.00    -0.282 N 
ATOM     11  C   UNL     1       1.396  -4.812   0.281  0.00  0.00    +0.132 C 
ATOM     12  C   UNL     1       1.501  -5.502   1.645  0.00  0.00    +0.185 C 
ATOM     13  S   UNL     1       0.106  -6.652   1.829  0.00  0.00    -0.028 S 
ATOM     14  O   UNL     1       0.065  -7.099   3.178  0.00  0.00    -0.174 OA
ATOM     15  O   UNL     1       0.170  -7.611   0.783  0.00  0.00    -0.174 OA
ATOM     16  C   UNL     1      -1.323  -5.568   1.536  0.00  0.00    +0.185 C 
ATOM     17  C   UNL     1      -1.146  -4.871   0.189  0.00  0.00    +0.132 C 
ATOM     18  H   UNL     1       2.081  -2.553  -0.056  0.00  0.00    +0.156 HD
ENDBRANCH   5   7
BRANCH   4  19
ATOM     19  N   UNL     1       3.481  -0.612   0.776  0.00  0.00    -0.324 N 
ATOM     20  C   UNL     1       4.533  -0.986  -0.181  0.00  0.00    +0.110 C 
ATOM     21  C   UNL     1       5.804  -0.194   0.164  0.00  0.00    +0.061 C 
ATOM     22  C   UNL     1       5.988  -0.209   1.647  0.00  0.00    -0.004 A 
ATOM     23  C   UNL     1       5.072  -0.527   2.601  0.00  0.00    -0.020 A 
ATOM     24  C   UNL     1       5.497  -0.453   3.926  0.00  0.00    +0.013 A 
ATOM     25  C   UNL     1       6.767  -0.086   4.210  0.00  0.00    +0.046 A 
ATOM     26  S   UNL     1       7.445   0.183   2.579  0.00  0.00    -0.101 S 
ATOM     27  C   UNL     1       3.662  -0.938   2.197  0.00  0.00    +0.141 C 
ENDBRANCH   4  19
TORSDOF 2
