REMARK  Name = ZINC00626057
REMARK  4 active torsions:
REMARK  status: ('A' for Active; 'I' for Inactive)
REMARK    1  A    between atoms: C_4  and  C_7
REMARK    2  A    between atoms: C_12  and  C_20
REMARK    3  A    between atoms: C_14  and  C_18
REMARK    4  A    between atoms: C_15  and  N_17
REMARK                            x       y       z     vdW  Elec       q    Type
REMARK                         _______ _______ _______ _____ _____    ______ ____
ROOT
ATOM      1  C   UNL     1      -1.789   7.665  -3.328  0.00  0.00    +0.034 C 
ATOM      2  C   UNL     1      -2.789   7.027  -2.361  0.00  0.00    +0.083 C 
ATOM      3  C   UNL     1      -2.065   6.542  -1.127  0.00  0.00    +0.115 C 
ATOM      4  C   UNL     1      -0.792   6.115  -1.202  0.00  0.00    +0.046 C 
ATOM      5  C   UNL     1      -0.074   5.619   0.030  0.00  0.00    +0.101 C 
ATOM      6  C   UNL     1      -0.778   6.102   1.267  0.00  0.00    +0.098 C 
ATOM      7  C   UNL     1      -2.060   6.539   1.200  0.00  0.00    +0.198 C 
ATOM      8  O   UNL     1      -2.736   6.547   0.040  0.00  0.00    -0.445 OA
ATOM      9  C   UNL     1      -0.089   6.118  -2.422  0.00  0.00    +0.164 C 
ATOM     10  O   UNL     1       1.055   5.709  -2.453  0.00  0.00    -0.292 OA
ATOM     11  C   UNL     1      -0.728   6.619  -3.688  0.00  0.00    +0.088 C 
ENDROOT
BRANCH   5  12
ATOM     12  C   UNL     1      -0.054   4.112   0.023  0.00  0.00    -0.034 A 
ATOM     13  C   UNL     1       1.153   3.438   0.009  0.00  0.00    +0.007 A 
ATOM     14  C   UNL     1       1.173   2.056   0.002  0.00  0.00    +0.038 A 
ATOM     15  C   UNL     1      -0.016   1.347   0.009  0.00  0.00    +0.123 A 
ATOM     16  C   UNL     1      -1.224   2.023   0.019  0.00  0.00    +0.038 A 
ATOM     17  C   UNL     1      -1.242   3.405   0.031  0.00  0.00    +0.007 A 
ATOM     18  F   UNL     1       0.002  -0.004   0.002  0.00  0.00    -0.205 F 
ENDBRANCH   5  12
BRANCH   1  22
ATOM     19  C   UNL     1      -3.818   8.931  -6.867  0.00  0.00    +0.000 A 
ATOM     20  C   UNL     1      -3.147   9.854  -6.087  0.00  0.00    +0.000 A 
ATOM     21  C   UNL     1      -2.490   9.444  -4.942  0.00  0.00    +0.004 A 
ATOM     22  C   UNL     1      -2.505   8.111  -4.576  0.00  0.00    -0.043 A 
ATOM     23  C   UNL     1      -3.172   7.187  -5.359  0.00  0.00    +0.004 A 
ATOM     24  C   UNL     1      -3.832   7.598  -6.502  0.00  0.00    +0.000 A 
ENDBRANCH   1  22
BRANCH   7  25
ATOM     25  N   UNL     1      -2.679   6.982   2.341  0.00  0.00    -0.328 N 
ATOM     26  H   UNL     1      -2.200   6.981   3.185  0.00  0.00    +0.145 HD
ATOM     27  H   UNL     1      -3.596   7.297   2.305  0.00  0.00    +0.145 HD
ENDBRANCH   7  25
BRANCH   6  28
ATOM     28  C   UNL     1      -0.091   6.102   2.523  0.00  0.00    +0.101 C 
ATOM     29  N   UNL     1       0.454   6.102   3.520  0.00  0.00    -0.191 NA
ENDBRANCH   6  28
TORSDOF 4
