REMARK  Name = ZINC09128846
REMARK  9 active torsions:
REMARK  status: ('A' for Active; 'I' for Inactive)
REMARK    1  A    between atoms: C_1  and  O_2
REMARK    2  A    between atoms: O_2  and  C_3
REMARK    3  A    between atoms: C_6  and  O_27
REMARK    4  A    between atoms: C_7  and  N_9
REMARK    5  A    between atoms: C_10  and  C_12
REMARK    6  A    between atoms: C_12  and  S_13
REMARK    7  A    between atoms: S_13  and  C_14
REMARK    8  A    between atoms: N_16  and  C_20
REMARK    9  A    between atoms: O_27  and  C_28
REMARK                            x       y       z     vdW  Elec       q    Type
REMARK                         _______ _______ _______ _____ _____    ______ ____
ROOT
ATOM      1  C   UNL     1      -0.021   1.072   0.008  0.00  0.00    +0.172 C 
ENDROOT
BRANCH   1   3
ATOM      2  N   UNL     1      -0.288   1.272  -2.443  0.00  0.00    -0.282 N 
ATOM      3  C   UNL     1      -0.744   1.582  -1.213  0.00  0.00    +0.228 C 
ATOM      4  O   UNL     1      -1.734   2.270  -1.088  0.00  0.00    -0.275 OA
ATOM      5  H   UNL     1       0.547   0.790  -2.544  0.00  0.00    +0.155 HD
BRANCH   2  10
ATOM      6  C   UNL     1      -3.114   2.228  -4.603  0.00  0.00    +0.122 A 
ATOM      7  C   UNL     1      -2.471   2.388  -5.822  0.00  0.00    +0.049 A 
ATOM      8  C   UNL     1      -1.109   2.178  -5.920  0.00  0.00    +0.051 A 
ATOM      9  C   UNL     1      -0.381   1.808  -4.802  0.00  0.00    +0.141 A 
ATOM     10  C   UNL     1      -1.022   1.647  -3.576  0.00  0.00    +0.079 A 
ATOM     11  C   UNL     1      -2.391   1.853  -3.481  0.00  0.00    +0.072 A 
BRANCH   6  13
ATOM     12  C   UNL     1      -5.137   2.815  -5.705  0.00  0.00    +0.277 C 
ATOM     13  O   UNL     1      -4.454   2.435  -4.509  0.00  0.00    -0.495 OA
ENDBRANCH   6  13
BRANCH   9  14
ATOM     14  O   UNL     1       0.961   1.602  -4.900  0.00  0.00    -0.493 OA
ATOM     15  C   UNL     1       1.553   1.785  -6.187  0.00  0.00    +0.277 C 
ENDBRANCH   9  14
ENDBRANCH   2  10
ENDBRANCH   1   3
BRANCH   1  16
ATOM     16  S   UNL     1      -0.870   1.654   1.497  0.00  0.00    -0.088 S 
BRANCH  16  17
ATOM     17  C   UNL     1       0.157   0.933   2.735  0.00  0.00    +0.158 A 
ATOM     18  N   UNL     1       0.051   1.005   4.038  0.00  0.00    -0.151 NA
ATOM     19  N   UNL     1       0.959   0.363   4.848  0.00  0.00    -0.217 N 
ATOM     20  C   UNL     1       1.968  -0.335   4.269  0.00  0.00    +0.150 A 
ATOM     21  S   UNL     1       3.237  -1.221   5.001  0.00  0.00    -0.023 S 
ATOM     22  S   UNL     1       1.615  -0.079   2.537  0.00  0.00    -0.034 S 
BRANCH  19  23
ATOM     23  C   UNL     1       0.847   0.433   6.242  0.00  0.00    +0.067 A 
ATOM     24  C   UNL     1       1.197  -0.660   7.024  0.00  0.00    +0.030 A 
ATOM     25  C   UNL     1       1.090  -0.587   8.398  0.00  0.00    +0.040 A 
ATOM     26  C   UNL     1       0.625   0.572   8.997  0.00  0.00    +0.124 A 
ATOM     27  C   UNL     1       0.270   1.661   8.219  0.00  0.00    +0.040 A 
ATOM     28  C   UNL     1       0.380   1.594   6.845  0.00  0.00    +0.030 A 
ATOM     29  F   UNL     1       0.516   0.639  10.342  0.00  0.00    -0.205 F 
ENDBRANCH  19  23
ENDBRANCH  16  17
ENDBRANCH   1  16
TORSDOF 7
