REMARK  Name = ZINC36646176
REMARK  7 active torsions:
REMARK  status: ('A' for Active; 'I' for Inactive)
REMARK    1  A    between atoms: C_3  and  S_27
REMARK    2  A    between atoms: C_6  and  N_7
REMARK    3  A    between atoms: C_8  and  C_10
REMARK    4  A    between atoms: C_10  and  S_11
REMARK    5  A    between atoms: S_11  and  C_12
REMARK    6  A    between atoms: N_25  and  N_26
REMARK    7  A    between atoms: S_27  and  N_30
REMARK                            x       y       z     vdW  Elec       q    Type
REMARK                         _______ _______ _______ _____ _____    ______ ____
ROOT
ATOM      1  S   UNL     1      -2.124  -4.603  -0.337  0.00  0.00    -0.077 S 
ENDROOT
BRANCH   1   2
ATOM      2  C   UNL     1      -3.717  -5.347  -0.450  0.00  0.00    +0.190 A 
ATOM      3  N   UNL     1      -4.793  -4.587  -0.429  0.00  0.00    -0.215 NA
ATOM      4  C   UNL     1      -6.006  -5.121  -0.512  0.00  0.00    +0.117 A 
ATOM      5  C   UNL     1      -6.205  -6.507  -0.627  0.00  0.00    +0.077 A 
ATOM      6  C   UNL     1      -7.599  -6.948  -0.709  0.00  0.00    -0.023 A 
ATOM      7  C   UNL     1      -8.547  -5.991  -0.667  0.00  0.00    -0.004 A 
ATOM      8  S   UNL     1      -7.655  -4.466  -0.519  0.00  0.00    -0.073 S 
ATOM      9  C   UNL     1     -10.032  -6.180  -0.733  0.00  0.00    +0.043 C 
ATOM     10  C   UNL     1     -10.317  -7.605  -1.228  0.00  0.00    +0.005 C 
ATOM     11  C   UNL     1      -9.448  -8.584  -0.433  0.00  0.00    +0.005 C 
ATOM     12  C   UNL     1      -7.982  -8.420  -0.834  0.00  0.00    +0.037 C 
ATOM     13  C   UNL     1      -5.019  -7.308  -0.648  0.00  0.00    +0.280 A 
ATOM     14  O   UNL     1      -5.094  -8.521  -0.745  0.00  0.00    -0.265 OA
ATOM     15  N   UNL     1      -3.820  -6.703  -0.564  0.00  0.00    -0.209 N 
BRANCH  15  16
ATOM     16  N   UNL     1      -2.684  -7.462  -0.589  0.00  0.00    -0.293 N 
ATOM     17  H   UNL     1      -1.861  -6.883  -0.515  0.00  0.00    +0.163 HD
ATOM     18  H   UNL     1      -2.700  -8.161   0.138  0.00  0.00    +0.163 HD
ENDBRANCH  15  16
ENDBRANCH   1   2
BRANCH   1  19
ATOM     19  C   UNL     1      -2.478  -2.828  -0.204  0.00  0.00    +0.173 C 
BRANCH  19  21
ATOM     20  N   UNL     1      -1.199  -0.722   0.010  0.00  0.00    -0.285 N 
ATOM     21  C   UNL     1      -1.183  -2.065  -0.099  0.00  0.00    +0.227 C 
ATOM     22  O   UNL     1      -0.125  -2.659  -0.113  0.00  0.00    -0.275 OA
ATOM     23  H   UNL     1      -2.044  -0.253   0.098  0.00  0.00    +0.155 HD
BRANCH  20  29
ATOM     24  C   UNL     1       1.072  -0.453  -0.766  0.00  0.00    +0.025 A 
ATOM     25  C   UNL     1       2.256   0.259  -0.778  0.00  0.00    +0.030 A 
ATOM     26  C   UNL     1       2.376   1.416  -0.032  0.00  0.00    +0.105 A 
ATOM     27  C   UNL     1       1.312   1.866   0.729  0.00  0.00    +0.030 A 
ATOM     28  C   UNL     1       0.126   1.160   0.744  0.00  0.00    +0.025 A 
ATOM     29  C   UNL     1       0.002  -0.004  -0.004  0.00  0.00    +0.034 A 
BRANCH  26  30
ATOM     30  S   UNL     1       3.889   2.320  -0.048  0.00  0.00    +0.056 S 
ATOM     31  O   UNL     1       3.928   3.069   1.159  0.00  0.00    -0.153 OA
ATOM     32  O   UNL     1       4.909   1.398  -0.406  0.00  0.00    -0.153 OA
BRANCH  30  33
ATOM     33  N   UNL     1       3.789   3.419  -1.284  0.00  0.00    -0.204 NA
ATOM     34  H   UNL     1       4.261   4.263  -1.221  0.00  0.00    +0.144 HD
ATOM     35  H   UNL     1       3.258   3.217  -2.070  0.00  0.00    +0.144 HD
ENDBRANCH  30  33
ENDBRANCH  26  30
ENDBRANCH  20  29
ENDBRANCH  19  21
ENDBRANCH   1  19
TORSDOF 7
