REMARK  Name = ZINC10025404
REMARK  12 active torsions:
REMARK  status: ('A' for Active; 'I' for Inactive)
REMARK    1  A    between atoms: C_1  and  C_2
REMARK    2  A    between atoms: C_2  and  C_4
REMARK    3  A    between atoms: C_2  and  N_16
REMARK    4  A    between atoms: C_7  and  C_10
REMARK    5  A    between atoms: C_17  and  C_19
REMARK    6  A    between atoms: C_19  and  N_61
REMARK    7  A    between atoms: C_20  and  N_61
REMARK    8  A    between atoms: C_21  and  C_22
REMARK    9  A    between atoms: C_21  and  N_61
REMARK   10  A    between atoms: N_24  and  C_25
REMARK   11  A    between atoms: C_30  and  S_31
REMARK   12  A    between atoms: S_31  and  C_32
REMARK                            x       y       z     vdW  Elec       q    Type
REMARK                         _______ _______ _______ _____ _____    ______ ____
ROOT
ATOM      1  N   UNL     1       2.202   4.124  -0.841  0.00  0.00    -0.310 N 
ATOM      2  C   UNL     1       2.071   5.343  -1.402  0.00  0.00    +0.197 C 
ATOM      3  O   UNL     1       1.093   6.018  -1.163  0.00  0.00    -0.278 OA
ATOM      4  H   UNL     1       2.985   3.584  -1.032  0.00  0.00    +0.149 HD
ENDROOT
BRANCH   1   6
ATOM      5  C   UNL     1       1.416   4.135   1.475  0.00  0.00    +0.033 C 
ATOM      6  C   UNL     1       1.163   3.616   0.058  0.00  0.00    +0.100 C 
BRANCH   6   7
ATOM      7  C   UNL     1       1.194   2.110   0.061  0.00  0.00    -0.027 A 
ATOM      8  C   UNL     1       0.010   1.396   0.074  0.00  0.00    +0.006 A 
ATOM      9  C   UNL     1       0.033   0.016   0.077  0.00  0.00    +0.009 A 
ATOM     10  C   UNL     1       1.252  -0.658   0.067  0.00  0.00    -0.018 A 
ATOM     11  C   UNL     1       2.442   0.066   0.054  0.00  0.00    +0.009 A 
ATOM     12  C   UNL     1       2.408   1.446   0.051  0.00  0.00    +0.006 A 
BRANCH  10  13
ATOM     13  C   UNL     1       1.283  -2.142   0.070  0.00  0.00    -0.018 A 
ATOM     14  C   UNL     1       0.093  -2.866   0.089  0.00  0.00    +0.008 A 
ATOM     15  C   UNL     1       0.127  -4.246   0.087  0.00  0.00    +0.001 A 
ATOM     16  C   UNL     1       1.341  -4.910   0.076  0.00  0.00    +0.000 A 
ATOM     17  C   UNL     1       2.526  -4.196   0.063  0.00  0.00    +0.001 A 
ATOM     18  C   UNL     1       2.503  -2.816   0.060  0.00  0.00    +0.008 A 
ENDBRANCH  10  13
ENDBRANCH   6   7
ENDBRANCH   1   6
BRANCH   2  19
ATOM     19  C   UNL     1       3.140   5.865  -2.327  0.00  0.00    +0.019 C 
BRANCH  19  21
ATOM     20  C   UNL     1       1.567   7.143  -3.651  0.00  0.00    -0.095 C 
ATOM     21  N   UNL     1       2.759   7.220  -2.780  0.00  0.00    +0.389 N 
ATOM     22  H   UNL     1       2.535   7.795  -1.959  0.00  0.00    -0.081 HD
BRANCH  21  23
ATOM     23  C   UNL     1       3.881   7.843  -3.512  0.00  0.00    +0.019 C 
BRANCH  23  24
ATOM     24  C   UNL     1       3.551   9.290  -3.768  0.00  0.00    +0.201 C 
ATOM     25  O   UNL     1       2.489   9.745  -3.396  0.00  0.00    -0.278 OA
ATOM     26  N   UNL     1       4.434  10.080  -4.410  0.00  0.00    -0.286 N 
ATOM     27  H   UNL     1       5.309   9.735  -4.650  0.00  0.00    +0.155 HD
BRANCH  26  28
ATOM     28  C   UNL     1       4.090  11.400  -4.732  0.00  0.00    +0.047 A 
ATOM     29  C   UNL     1       3.280  12.134  -3.879  0.00  0.00    +0.024 A 
ATOM     30  C   UNL     1       2.946  13.438  -4.196  0.00  0.00    +0.002 A 
ATOM     31  C   UNL     1       3.409  14.010  -5.367  0.00  0.00    +0.001 A 
ATOM     32  C   UNL     1       4.212  13.284  -6.225  0.00  0.00    +0.016 A 
ATOM     33  C   UNL     1       4.557  11.976  -5.913  0.00  0.00    +0.029 A 
BRANCH  33  34
ATOM     34  S   UNL     1       5.580  11.047  -7.006  0.00  0.00    -0.127 S 
ATOM     35  C   UNL     1       5.923  12.195  -8.368  0.00  0.00    +0.090 C 
ENDBRANCH  33  34
ENDBRANCH  26  28
ENDBRANCH  23  24
ENDBRANCH  21  23
ENDBRANCH  19  21
ENDBRANCH   2  19
TORSDOF 9
