REMARK  Name = ZINC11362016
REMARK  9 active torsions:
REMARK  status: ('A' for Active; 'I' for Inactive)
REMARK    1  A    between atoms: C_1  and  C_2
REMARK    2  A    between atoms: C_5  and  C_35
REMARK    3  A    between atoms: C_6  and  S_8
REMARK    4  A    between atoms: S_8  and  N_11
REMARK    5  A    between atoms: N_11  and  C_12
REMARK    6  A    between atoms: C_16  and  C_18
REMARK    7  A    between atoms: N_20  and  C_21
REMARK    8  A    between atoms: C_24  and  N_27
REMARK    9  A    between atoms: C_28  and  C_30
REMARK                            x       y       z     vdW  Elec       q    Type
REMARK                         _______ _______ _______ _____ _____    ______ ____
ROOT
ATOM      1  C   UNL     1       3.445  13.536   0.902  0.00  0.00    +0.049 A 
ATOM      2  C   UNL     1       4.754  13.975   0.740  0.00  0.00    +0.024 A 
ATOM      3  C   UNL     1       5.775  13.064   0.548  0.00  0.00    +0.003 A 
ATOM      4  C   UNL     1       5.503  11.711   0.520  0.00  0.00    +0.013 A 
ATOM      5  C   UNL     1       4.191  11.260   0.676  0.00  0.00    +0.039 A 
ATOM      6  C   UNL     1       3.160  12.179   0.871  0.00  0.00    +0.037 A 
ENDROOT
BRANCH   5   7
ATOM      7  C   UNL     1       3.897   9.812   0.642  0.00  0.00    +0.248 C 
ATOM      8  O   UNL     1       2.754   9.420   0.783  0.00  0.00    -0.270 OA
ATOM      9  N   UNL     1       4.894   8.925   0.454  0.00  0.00    -0.282 N 
ATOM     10  H   UNL     1       5.794   9.239   0.272  0.00  0.00    +0.155 HD
BRANCH   9  11
ATOM     11  C   UNL     1       4.632   7.551   0.520  0.00  0.00    +0.034 A 
ATOM     12  C   UNL     1       5.582   6.688   1.049  0.00  0.00    +0.025 A 
ATOM     13  C   UNL     1       5.324   5.333   1.115  0.00  0.00    +0.025 A 
ATOM     14  C   UNL     1       4.113   4.834   0.652  0.00  0.00    +0.034 A 
ATOM     15  C   UNL     1       3.165   5.697   0.118  0.00  0.00    +0.025 A 
ATOM     16  C   UNL     1       3.421   7.052   0.057  0.00  0.00    +0.025 A 
BRANCH  14  17
ATOM     17  N   UNL     1       3.851   3.461   0.718  0.00  0.00    -0.279 N 
ATOM     18  C   UNL     1       4.313   2.736   1.756  0.00  0.00    +0.284 C 
ATOM     19  O   UNL     1       5.031   3.256   2.590  0.00  0.00    -0.266 OA
ATOM     20  H   UNL     1       3.337   3.031   0.017  0.00  0.00    +0.155 HD
BRANCH  18  21
ATOM     21  C   UNL     1       3.952   1.320   1.881  0.00  0.00    +0.189 A 
ATOM     22  C   UNL     1       4.349   0.475   2.877  0.00  0.00    +0.054 A 
ATOM     23  C   UNL     1       3.772  -0.774   2.601  0.00  0.00    +0.042 A 
ATOM     24  C   UNL     1       3.057  -0.639   1.462  0.00  0.00    +0.196 A 
ATOM     25  O   UNL     1       3.168   0.625   1.031  0.00  0.00    -0.458 OA
ENDBRANCH  18  21
ENDBRANCH  14  17
ENDBRANCH   9  11
ENDBRANCH   5   7
BRANCH   1  26
ATOM     26  N   UNL     1       2.416  14.461   1.097  0.00  0.00    -0.216 N 
ATOM     27  H   UNL     1       1.590  14.380   0.596  0.00  0.00    +0.174 HD
BRANCH  26  28
ATOM     28  S   UNL     1       2.608  15.696   2.183  0.00  0.00    +0.073 S 
ATOM     29  O   UNL     1       3.826  16.346   1.848  0.00  0.00    -0.150 OA
ATOM     30  O   UNL     1       1.367  16.385   2.238  0.00  0.00    -0.150 OA
BRANCH  28  36
ATOM     31  C   UNL     1       5.520  14.797   6.430  0.00  0.00    +0.044 C 
ATOM     32  C   UNL     1       4.224  14.584   5.690  0.00  0.00    -0.049 A 
ATOM     33  C   UNL     1       3.224  13.815   6.254  0.00  0.00    +0.004 A 
ATOM     34  C   UNL     1       2.036  13.620   5.575  0.00  0.00    +0.005 A 
ATOM     35  C   UNL     1       1.846  14.199   4.335  0.00  0.00    -0.024 A 
ATOM     36  C   UNL     1       2.848  14.964   3.768  0.00  0.00    +0.112 A 
ATOM     37  C   UNL     1       4.037  15.159   4.447  0.00  0.00    +0.032 A 
ATOM     38  C   UNL     1       0.548  13.992   3.597  0.00  0.00    +0.046 C 
ENDBRANCH  28  36
ENDBRANCH  26  28
ENDBRANCH   1  26
TORSDOF 7
