REMARK  Name = ZINC02919626
REMARK  4 active torsions:
REMARK  status: ('A' for Active; 'I' for Inactive)
REMARK    1  A    between atoms: C_1  and  C_2
REMARK    2  A    between atoms: C_5  and  C_9
REMARK    3  A    between atoms: C_7  and  C_8
REMARK    4  A    between atoms: C_12  and  C_20
REMARK                            x       y       z     vdW  Elec       q    Type
REMARK                         _______ _______ _______ _____ _____    ______ ____
ROOT
ATOM      1  C   UNL     1       0.059  -4.275  -0.021  0.00  0.00    +0.106 C 
ATOM      2  C   UNL     1      -1.356  -4.806  -0.275  0.00  0.00    +0.059 C 
ATOM      3  C   UNL     1      -1.351  -6.340  -0.230  0.00  0.00    +0.144 C 
ATOM      4  N   UNL     1      -0.263  -6.831  -1.072  0.00  0.00    -0.206 N 
ATOM      5  C   UNL     1       0.796  -6.083  -1.472  0.00  0.00    +0.236 A 
ATOM      6  N   UNL     1       1.555  -6.845  -2.208  0.00  0.00    -0.092 NA
ATOM      7  N   UNL     1       1.047  -8.027  -2.297  0.00  0.00    -0.021 NA
ATOM      8  N   UNL     1      -0.060  -8.093  -1.631  0.00  0.00    -0.042 NA
ATOM      9  N   UNL     1       0.948  -4.753  -1.099  0.00  0.00    -0.305 N 
ATOM     10  H   UNL     1       1.597  -4.171  -1.524  0.00  0.00    +0.150 HD
ENDROOT
BRANCH   1  15
ATOM     11  C   UNL     1      -0.018   1.503   0.010  0.00  0.00    +0.044 C 
ATOM     12  C   UNL     1       0.002  -0.004   0.002  0.00  0.00    -0.048 A 
ATOM     13  C   UNL     1       0.006  -0.689  -1.199  0.00  0.00    +0.004 A 
ATOM     14  C   UNL     1       0.025  -2.071  -1.207  0.00  0.00    +0.006 A 
ATOM     15  C   UNL     1       0.040  -2.768  -0.013  0.00  0.00    -0.027 A 
ATOM     16  C   UNL     1       0.037  -2.084   1.188  0.00  0.00    +0.009 A 
ATOM     17  C   UNL     1       0.023  -0.702   1.195  0.00  0.00    -0.047 A 
ATOM     18  C   UNL     1       0.025   0.045   2.504  0.00  0.00    +0.044 C 
ENDBRANCH   1  15
BRANCH   3  19
ATOM     19  C   UNL     1      -2.667  -6.865  -0.743  0.00  0.00    -0.023 A 
ATOM     20  C   UNL     1      -3.070  -6.577  -2.033  0.00  0.00    +0.007 A 
ATOM     21  C   UNL     1      -4.277  -7.058  -2.504  0.00  0.00    +0.015 A 
ATOM     22  C   UNL     1      -5.081  -7.829  -1.684  0.00  0.00    +0.018 A 
ATOM     23  C   UNL     1      -4.677  -8.117  -0.393  0.00  0.00    +0.015 A 
ATOM     24  C   UNL     1      -3.468  -7.640   0.075  0.00  0.00    +0.007 A 
ATOM     25 BR   UNL     1      -6.733  -8.488  -2.328  0.00  0.00    -0.050 Br
ENDBRANCH   3  19
TORSDOF 2
