REMARK  Name = ZINC05758830
REMARK  11 active torsions:
REMARK  status: ('A' for Active; 'I' for Inactive)
REMARK    1  A    between atoms: C_3  and  O_38
REMARK    2  A    between atoms: C_4  and  O_37
REMARK    3  A    between atoms: C_6  and  C_7
REMARK    4  A    between atoms: C_8  and  C_9
REMARK    5  A    between atoms: C_11  and  O_36
REMARK    6  A    between atoms: C_15  and  C_28
REMARK    7  A    between atoms: C_17  and  C_20
REMARK    8  A    between atoms: C_23  and  O_27
REMARK    9  A    between atoms: C_24  and  O_26
REMARK   10  A    between atoms: C_30  and  O_35
REMARK   11  A    between atoms: C_32  and  O_34
REMARK                            x       y       z     vdW  Elec       q    Type
REMARK                         _______ _______ _______ _____ _____    ______ ____
ROOT
ATOM      1  C   UNL     1       3.062   2.418   0.368  0.00  0.00    -0.014 A 
ATOM      2  C   UNL     1       3.718   1.183   0.377  0.00  0.00    +0.053 A 
ATOM      3  C   UNL     1       2.990   0.023   0.177  0.00  0.00    +0.121 A 
ATOM      4  C   UNL     1       1.621   0.080  -0.034  0.00  0.00    +0.091 A 
ATOM      5  C   UNL     1       0.958   1.305  -0.048  0.00  0.00    +0.129 A 
ATOM      6  C   UNL     1       1.686   2.467   0.160  0.00  0.00    +0.013 A 
ATOM      7  C   UNL     1       0.705   3.622   0.113  0.00  0.00    +0.098 C 
ATOM      8  C   UNL     1      -0.653   2.894   0.249  0.00  0.00    +0.216 C 
ATOM      9  O   UNL     1      -0.360   1.579  -0.253  0.00  0.00    -0.483 OA
ENDROOT
BRANCH   8  10
ATOM     10  C   UNL     1      -1.708   3.568  -0.590  0.00  0.00    -0.003 A 
ATOM     11  C   UNL     1      -1.997   3.085  -1.853  0.00  0.00    +0.011 A 
ATOM     12  C   UNL     1      -2.964   3.699  -2.627  0.00  0.00    +0.049 A 
ATOM     13  C   UNL     1      -3.646   4.801  -2.138  0.00  0.00    +0.158 A 
ATOM     14  C   UNL     1      -3.354   5.288  -0.867  0.00  0.00    +0.159 A 
ATOM     15  C   UNL     1      -2.388   4.664  -0.094  0.00  0.00    +0.056 A 
BRANCH  14  16
ATOM     16  O   UNL     1      -4.021   6.370  -0.383  0.00  0.00    -0.503 OA
ATOM     17  H   UNL     1      -4.828   6.150   0.102  0.00  0.00    +0.292 HD
ENDBRANCH  14  16
BRANCH  13  18
ATOM     18  O   UNL     1      -4.597   5.407  -2.898  0.00  0.00    -0.503 OA
ATOM     19  H   UNL     1      -5.486   5.049  -2.773  0.00  0.00    +0.292 HD
ENDBRANCH  13  18
ENDBRANCH   8  10
BRANCH   7  20
ATOM     20  C   UNL     1       0.794   4.352  -1.203  0.00  0.00    -0.029 A 
ATOM     21  C   UNL     1       0.767   3.643  -2.388  0.00  0.00    +0.050 A 
ATOM     22  C   UNL     1       0.844   4.313  -3.601  0.00  0.00    +0.121 A 
ATOM     23  C   UNL     1       0.961   5.694  -3.622  0.00  0.00    +0.090 A 
ATOM     24  C   UNL     1       0.994   6.403  -2.432  0.00  0.00    +0.121 A 
ATOM     25  C   UNL     1       0.910   5.729  -1.221  0.00  0.00    +0.050 A 
BRANCH  24  26
ATOM     26  O   UNL     1       1.108   7.757  -2.449  0.00  0.00    -0.507 OA
ATOM     27  H   UNL     1       2.021   8.075  -2.434  0.00  0.00    +0.292 HD
ENDBRANCH  24  26
BRANCH  22  28
ATOM     28  O   UNL     1       0.812   3.615  -4.767  0.00  0.00    -0.507 OA
ATOM     29  H   UNL     1       1.682   3.339  -5.085  0.00  0.00    +0.292 HD
ENDBRANCH  22  28
ENDBRANCH   7  20
BRANCH   1  31
ATOM     30  C   UNL     1       5.149   3.612   0.781  0.00  0.00    +0.008 C 
ATOM     31  C   UNL     1       3.823   3.662   0.580  0.00  0.00    +0.009 C 
BRANCH  30  37
ATOM     32  C   UNL     1       5.254   6.089   0.978  0.00  0.00    +0.012 A 
ATOM     33  C   UNL     1       5.968   7.252   1.182  0.00  0.00    +0.050 A 
ATOM     34  C   UNL     1       7.338   7.201   1.390  0.00  0.00    +0.158 A 
ATOM     35  C   UNL     1       8.000   5.974   1.400  0.00  0.00    +0.159 A 
ATOM     36  C   UNL     1       7.292   4.805   1.202  0.00  0.00    +0.057 A 
ATOM     37  C   UNL     1       5.910   4.856   0.993  0.00  0.00    -0.021 A 
BRANCH  35  38
ATOM     38  O   UNL     1       9.344   5.929   1.605  0.00  0.00    -0.503 OA
ATOM     39  H   UNL     1       9.867   5.981   0.793  0.00  0.00    +0.292 HD
ENDBRANCH  35  38
BRANCH  34  40
ATOM     40  O   UNL     1       8.038   8.350   1.584  0.00  0.00    -0.503 OA
ATOM     41  H   UNL     1       8.374   8.748   0.769  0.00  0.00    +0.292 HD
ENDBRANCH  34  40
ENDBRANCH  30  37
ENDBRANCH   1  31
BRANCH   3  42
ATOM     42  O   UNL     1       3.622  -1.181   0.188  0.00  0.00    -0.507 OA
ATOM     43  H   UNL     1       3.941  -1.465  -0.679  0.00  0.00    +0.292 HD
ENDBRANCH   3  42
TORSDOF 11
