REMARK  Name = ZINC45900930
REMARK  7 active torsions:
REMARK  status: ('A' for Active; 'I' for Inactive)
REMARK    1  A    between atoms: C_1  and  C_2
REMARK    2  A    between atoms: C_2  and  N_3
REMARK    3  A    between atoms: C_9  and  C_15
REMARK    4  A    between atoms: N_17  and  C_18
REMARK    5  A    between atoms: C_23  and  S_24
REMARK    6  A    between atoms: S_24  and  C_25
REMARK    7  A    between atoms: C_25  and  C_26
REMARK                            x       y       z     vdW  Elec       q    Type
REMARK                         _______ _______ _______ _____ _____    ______ ____
ROOT
ATOM      1  C   UNL     1       4.604  -2.573   5.830  0.00  0.00    +0.248 C 
ATOM      2  O   UNL     1       3.959  -2.780   6.839  0.00  0.00    -0.270 OA
ATOM      3  N   UNL     1       5.936  -2.780   5.827  0.00  0.00    -0.281 N 
ATOM      4  H   UNL     1       6.441  -2.678   5.005  0.00  0.00    +0.155 HD
ENDROOT
BRANCH   1  11
ATOM      5  N   UNL     1       0.700  -0.542   1.175  0.00  0.00    -0.287 N 
ATOM      6  C   UNL     1       2.036  -0.735   1.120  0.00  0.00    +0.262 A 
ATOM      7  O   UNL     1       2.721  -0.496  -0.012  0.00  0.00    -0.267 OA
ATOM      8  C   UNL     1       2.694  -1.192   2.281  0.00  0.00    +0.065 A 
ATOM      9  C   UNL     1       4.079  -1.414   2.302  0.00  0.00    +0.016 A 
ATOM     10  C   UNL     1       4.678  -1.855   3.442  0.00  0.00    +0.014 A 
ATOM     11  C   UNL     1       3.927  -2.093   4.603  0.00  0.00    +0.039 A 
ATOM     12  C   UNL     1       2.558  -1.882   4.613  0.00  0.00    +0.041 A 
ATOM     13  C   UNL     1       1.922  -1.427   3.449  0.00  0.00    +0.080 A 
ATOM     14  N   UNL     1       0.600  -1.209   3.413  0.00  0.00    -0.222 NA
ATOM     15  C   UNL     1       0.015  -0.775   2.307  0.00  0.00    +0.183 A 
ATOM     16  S   UNL     1      -1.675  -0.507   2.318  0.00  0.00    -0.011 S 
BRANCH   5  18
ATOM     17  C   UNL     1      -0.038   1.462  -0.016  0.00  0.00    +0.027 C 
ATOM     18  C   UNL     1      -0.010  -0.068  -0.015  0.00  0.00    +0.124 C 
ENDBRANCH   5  18
ENDBRANCH   1  11
BRANCH   3  19
ATOM     19  C   UNL     1       6.590  -3.143   7.010  0.00  0.00    +0.047 A 
ATOM     20  C   UNL     1       5.953  -3.955   7.937  0.00  0.00    +0.024 A 
ATOM     21  C   UNL     1       6.601  -4.313   9.104  0.00  0.00    +0.002 A 
ATOM     22  C   UNL     1       7.886  -3.863   9.353  0.00  0.00    +0.001 A 
ATOM     23  C   UNL     1       8.529  -3.054   8.436  0.00  0.00    +0.016 A 
ATOM     24  C   UNL     1       7.888  -2.694   7.259  0.00  0.00    +0.030 A 
BRANCH  24  25
ATOM     25  S   UNL     1       8.708  -1.667   6.084  0.00  0.00    -0.114 S 
BRANCH  25  26
ATOM     26  C   UNL     1      10.329  -1.351   6.834  0.00  0.00    +0.169 C 
BRANCH  26  27
ATOM     27  C   UNL     1      11.143  -0.472   5.919  0.00  0.00    +0.221 C 
ATOM     28  O   UNL     1      10.675  -0.097   4.865  0.00  0.00    -0.275 OA
ATOM     29  N   UNL     1      12.390  -0.104   6.272  0.00  0.00    -0.329 N 
ATOM     30  H   UNL     1      12.764  -0.404   7.115  0.00  0.00    +0.145 HD
ATOM     31  H   UNL     1      12.914   0.462   5.684  0.00  0.00    +0.145 HD
ENDBRANCH  26  27
ENDBRANCH  25  26
ENDBRANCH  24  25
ENDBRANCH   3  19
TORSDOF 6
