REMARK  Name = ZINC39737977
REMARK  3 active torsions:
REMARK  status: ('A' for Active; 'I' for Inactive)
REMARK    1  A    between atoms: C_1  and  C_2
REMARK    2  A    between atoms: C_17  and  C_25
REMARK    3  A    between atoms: C_22  and  O_24
REMARK                            x       y       z     vdW  Elec       q    Type
REMARK                         _______ _______ _______ _____ _____    ______ ____
ROOT
ATOM      1  C   UNL     1      -0.019   1.526   0.010  0.00  0.00    +0.012 C 
ATOM      2  C   UNL     1       0.002  -0.004   0.002  0.00  0.00    -0.026 C 
ATOM      3  C   UNL     1      -1.434  -0.533   0.013  0.00  0.00    +0.012 C 
ATOM      4  C   UNL     1      -2.153  -0.033   1.266  0.00  0.00    +0.065 C 
ATOM      5  C   UNL     1      -1.414  -0.529   2.510  0.00  0.00    +0.170 C 
ATOM      6  C   UNL     1       0.025  -0.013   2.500  0.00  0.00    +0.069 C 
ATOM      7  C   UNL     1       0.742  -0.510   1.241  0.00  0.00    +0.000 C 
ATOM      8  C   UNL     1       2.174   0.030   1.233  0.00  0.00    +0.004 C 
ATOM      9  C   UNL     1       2.890  -0.432  -0.035  0.00  0.00    +0.004 C 
ATOM     10  C   UNL     1       1.953  -1.303  -0.876  0.00  0.00    -0.004 C 
ATOM     11  C   UNL     1       0.712  -0.497  -1.261  0.00  0.00    -0.001 C 
ATOM     12  C   UNL     1      -0.230  -1.422  -2.032  0.00  0.00    +0.005 C 
ATOM     13  C   UNL     1       0.416  -1.914  -3.306  0.00  0.00    +0.010 C 
ATOM     14  C   UNL     1       1.805  -2.493  -3.147  0.00  0.00    -0.003 C 
ATOM     15  C   UNL     1       2.668  -1.787  -2.112  0.00  0.00    +0.001 C 
ATOM     16  C   UNL     1       3.377  -0.648  -2.872  0.00  0.00    +0.007 C 
ATOM     17  C   UNL     1       3.740  -1.347  -4.211  0.00  0.00    +0.032 C 
ATOM     18  C   UNL     1       2.548  -2.293  -4.495  0.00  0.00    +0.121 C 
ATOM     19  C   UNL     1       1.708  -3.986  -2.827  0.00  0.00    +0.014 C 
ATOM     20  O   UNL     1      -2.085  -0.046   3.686  0.00  0.00    -0.346 OA
ATOM     21  C   UNL     1      -2.962  -1.128   4.082  0.00  0.00    +0.191 C 
ATOM     22  C   UNL     1      -2.108  -2.371   3.729  0.00  0.00    +0.191 C 
ATOM     23  O   UNL     1      -1.415  -1.962   2.533  0.00  0.00    -0.346 OA
ENDROOT
BRANCH  18  24
ATOM     24  O   UNL     1       2.995  -3.554  -4.998  0.00  0.00    -0.391 OA
ATOM     25  H   UNL     1       3.468  -3.496  -5.840  0.00  0.00    +0.210 HD
ENDBRANCH  18  24
TORSDOF 1
