REMARK  Name = ZINC13092995
REMARK  11 active torsions:
REMARK  status: ('A' for Active; 'I' for Inactive)
REMARK    1  A    between atoms: C_1  and  C_2
REMARK    2  A    between atoms: C_5  and  C_32
REMARK    3  A    between atoms: C_6  and  S_8
REMARK    4  A    between atoms: S_8  and  C_9
REMARK    5  A    between atoms: C_12  and  N_15
REMARK    6  A    between atoms: C_16  and  C_18
REMARK    7  A    between atoms: C_18  and  S_19
REMARK    8  A    between atoms: S_19  and  C_20
REMARK    9  A    between atoms: C_24  and  C_27
REMARK   10  A    between atoms: C_27  and  C_28
REMARK   11  A    between atoms: C_28  and  C_29
REMARK                            x       y       z     vdW  Elec       q    Type
REMARK                         _______ _______ _______ _____ _____    ______ ____
ROOT
ATOM      1  N   UNL     1       0.018   0.887   7.202  0.00  0.00    -0.285 N 
ATOM      2  C   UNL     1       0.761   0.650   8.301  0.00  0.00    +0.227 C 
ATOM      3  O   UNL     1       1.366  -0.396   8.410  0.00  0.00    -0.275 OA
ATOM      4  H   UNL     1      -0.518   1.694   7.144  0.00  0.00    +0.155 HD
ENDROOT
BRANCH   1   8
ATOM      5  C   UNL     1       0.025  -1.845   4.051  0.00  0.00    +0.013 A 
ATOM      6  C   UNL     1      -0.071  -0.483   3.790  0.00  0.00    +0.017 A 
ATOM      7  C   UNL     1      -0.073   0.420   4.833  0.00  0.00    +0.024 A 
ATOM      8  C   UNL     1       0.020  -0.031   6.143  0.00  0.00    +0.033 A 
ATOM      9  C   UNL     1       0.117  -1.391   6.404  0.00  0.00    +0.024 A 
ATOM     10  C   UNL     1       0.113  -2.296   5.362  0.00  0.00    +0.017 A 
BRANCH   5  11
ATOM     11  S   UNL     1       0.028  -2.999   2.719  0.00  0.00    -0.089 S 
BRANCH  11  17
ATOM     12  C   UNL     1       5.090  -2.012   3.603  0.00  0.00    +0.044 C 
ATOM     13  C   UNL     1       4.043  -2.799   2.858  0.00  0.00    -0.049 A 
ATOM     14  C   UNL     1       4.424  -3.754   1.933  0.00  0.00    +0.004 A 
ATOM     15  C   UNL     1       3.467  -4.479   1.248  0.00  0.00    +0.005 A 
ATOM     16  C   UNL     1       2.125  -4.252   1.485  0.00  0.00    -0.037 A 
ATOM     17  C   UNL     1       1.738  -3.293   2.414  0.00  0.00    +0.016 A 
ATOM     18  C   UNL     1       2.704  -2.570   3.105  0.00  0.00    +0.018 A 
ATOM     19  C   UNL     1       1.082  -5.042   0.737  0.00  0.00    +0.045 C 
ENDBRANCH  11  17
ENDBRANCH   5  11
ENDBRANCH   1   8
BRANCH   2  20
ATOM     20  C   UNL     1       0.841   1.685   9.394  0.00  0.00    +0.173 C 
BRANCH  20  21
ATOM     21  S   UNL     1       1.909   1.075  10.727  0.00  0.00    -0.075 S 
BRANCH  21  22
ATOM     22  C   UNL     1       1.900   2.379  11.911  0.00  0.00    +0.213 A 
ATOM     23  N   UNL     1       2.599   2.252  13.033  0.00  0.00    -0.180 NA
ATOM     24  C   UNL     1       2.588   3.239  13.922  0.00  0.00    +0.296 A 
ATOM     25  O   UNL     1       3.293   3.137  15.076  0.00  0.00    -0.264 OA
ATOM     26  C   UNL     1       1.838   4.382  13.645  0.00  0.00    +0.130 A 
ATOM     27  N   UNL     1       1.164   4.452  12.513  0.00  0.00    -0.146 NA
ATOM     28  N   UNL     1       1.199   3.480  11.669  0.00  0.00    -0.122 NA
BRANCH  26  29
ATOM     29  C   UNL     1       1.799   5.525  14.627  0.00  0.00    +0.074 C 
BRANCH  29  30
ATOM     30  C   UNL     1       2.930   6.506  14.314  0.00  0.00    +0.131 C 
BRANCH  30  31
ATOM     31  C   UNL     1       2.891   7.648  15.297  0.00  0.00    +0.356 C 
ATOM     32  O   UNL     1       2.037   7.675  16.166  0.00  0.00    -0.246 OA
ATOM     33  O   UNL     1       3.713   8.545  15.222  0.00  0.00    -0.246 OA
ENDBRANCH  30  31
ENDBRANCH  29  30
ENDBRANCH  26  29
ENDBRANCH  21  22
ENDBRANCH  20  21
ENDBRANCH   2  20
TORSDOF 9
