REMARK  Name = ZINC37754646
REMARK  3 active torsions:
REMARK  status: ('A' for Active; 'I' for Inactive)
REMARK    1  A    between atoms: C_3  and  N_12
REMARK    2  A    between atoms: C_4  and  C_8
REMARK    3  A    between atoms: C_6  and  N_7
REMARK                            x       y       z     vdW  Elec       q    Type
REMARK                         _______ _______ _______ _____ _____    ______ ____
ROOT
ATOM      1  C   UNL     1       1.185  -0.670   0.176  0.00  0.00    +0.024 A 
ATOM      2  C   UNL     1       2.383   0.017   0.168  0.00  0.00    +0.025 A 
ATOM      3  C   UNL     1       2.393   1.393  -0.012  0.00  0.00    +0.042 A 
ATOM      4  C   UNL     1       1.198   2.079  -0.185  0.00  0.00    +0.077 A 
ATOM      5  C   UNL     1       0.000   1.393  -0.177  0.00  0.00    +0.037 A 
ATOM      6  C   UNL     1      -0.010   0.016   0.003  0.00  0.00    +0.025 A 
ENDROOT
BRANCH   3   7
ATOM      7  N   UNL     1       3.608   2.089  -0.020  0.00  0.00    -0.326 N 
ATOM      8  C   UNL     1       4.303   2.383  -1.283  0.00  0.00    +0.105 C 
ATOM      9  C   UNL     1       5.744   1.877  -1.192  0.00  0.00    +0.019 C 
ATOM     10  C   UNL     1       6.418   2.459   0.055  0.00  0.00    +0.007 C 
ATOM     11  C   UNL     1       5.654   2.005   1.297  0.00  0.00    +0.009 C 
ATOM     12  C   UNL     1       4.219   2.551   1.231  0.00  0.00    +0.077 C 
ATOM     13  C   UNL     1       3.431   2.038   2.435  0.00  0.00    +0.023 C 
ATOM     14  C   UNL     1       4.095   2.545   3.719  0.00  0.00    +0.002 C 
ATOM     15  C   UNL     1       5.538   2.044   3.791  0.00  0.00    +0.000 C 
ATOM     16  C   UNL     1       6.323   2.533   2.566  0.00  0.00    +0.005 C 
ENDBRANCH   3   7
BRANCH   4  17
ATOM     17  C   UNL     1       1.209   3.574  -0.382  0.00  0.00    +0.419 C 
ATOM     18  F   UNL     1      -0.106   4.048  -0.425  0.00  0.00    -0.166 F 
ATOM     19  F   UNL     1       1.889   4.179   0.681  0.00  0.00    -0.166 F 
ATOM     20  F   UNL     1       1.855   3.881  -1.584  0.00  0.00    -0.166 F 
ENDBRANCH   4  17
BRANCH   6  21
ATOM     21  N   UNL     1      -1.224  -0.680   0.011  0.00  0.00    -0.358 N 
ATOM     22  H   UNL     1      -1.231  -1.642   0.137  0.00  0.00    +0.142 HD
ATOM     23  H   UNL     1      -2.059  -0.201  -0.110  0.00  0.00    +0.142 HD
ENDBRANCH   6  21
TORSDOF 3
