REMARK  Name = ZINC28785832
REMARK  4 active torsions:
REMARK  status: ('A' for Active; 'I' for Inactive)
REMARK    1  A    between atoms: C_3  and  N_8
REMARK    2  A    between atoms: N_11  and  C_15
REMARK    3  A    between atoms: C_15  and  N_16
REMARK    4  A    between atoms: N_19  and  C_22
REMARK                            x       y       z     vdW  Elec       q    Type
REMARK                         _______ _______ _______ _____ _____    ______ ____
ROOT
ATOM      1  N   UNL     1       3.605   2.134  -0.060  0.00  0.00    -0.292 N 
ATOM      2  C   UNL     1       4.811   1.453   0.042  0.00  0.00    +0.185 A 
ATOM      3  N   UNL     1       6.022   1.936   0.151  0.00  0.00    -0.146 NA
ATOM      4  N   UNL     1       7.105   1.091   0.242  0.00  0.00    -0.234 N 
ATOM      5  C   UNL     1       6.889  -0.248   0.216  0.00  0.00    +0.146 A 
ATOM      6  S   UNL     1       8.016  -1.533   0.308  0.00  0.00    -0.023 S 
ATOM      7  S   UNL     1       5.110  -0.307   0.066  0.00  0.00    -0.026 S 
ATOM      8  H   UNL     1       3.599   3.101  -0.134  0.00  0.00    +0.154 HD
ENDROOT
BRANCH   1  11
ATOM      9  C   UNL     1       1.089  -0.439   0.688  0.00  0.00    +0.003 A 
ATOM     10  C   UNL     1       2.281   0.259   0.686  0.00  0.00    +0.023 A 
ATOM     11  C   UNL     1       2.401   1.426  -0.057  0.00  0.00    +0.034 A 
ATOM     12  C   UNL     1       1.320   1.888  -0.798  0.00  0.00    +0.038 A 
ATOM     13  C   UNL     1       0.130   1.185  -0.792  0.00  0.00    +0.020 A 
ATOM     14  C   UNL     1       0.015   0.022  -0.050  0.00  0.00    +0.015 A 
ATOM     15 BR   UNL     1      -1.343   1.812  -1.799  0.00  0.00    -0.050 Br
ENDBRANCH   1  11
BRANCH   4  16
ATOM     16  C   UNL     1       8.462   1.627   0.365  0.00  0.00    +0.232 C 
BRANCH  16  17
ATOM     17  N   UNL     1       8.668   2.132   1.728  0.00  0.00    -0.281 NA
ATOM     18  C   UNL     1       8.089   3.473   1.887  0.00  0.00    +0.105 C 
ATOM     19  C   UNL     1       8.163   3.887   3.360  0.00  0.00    +0.120 C 
ATOM     20  N   UNL     1       9.556   3.755   3.813  0.00  0.00    -0.327 N 
ATOM     21  C   UNL     1      10.250   2.482   3.565  0.00  0.00    +0.120 C 
ATOM     22  C   UNL     1      10.094   2.123   2.084  0.00  0.00    +0.105 C 
BRANCH  20  23
ATOM     23  C   UNL     1      10.200   4.806   4.459  0.00  0.00    +0.032 A 
ATOM     24  C   UNL     1       9.507   5.967   4.803  0.00  0.00    +0.040 A 
ATOM     25  C   UNL     1      10.182   6.985   5.442  0.00  0.00    +0.084 A 
ATOM     26  N   UNL     1      11.466   6.870   5.729  0.00  0.00    -0.367 N 
ATOM     27  C   UNL     1      12.156   5.789   5.421  0.00  0.00    +0.084 A 
ATOM     28  C   UNL     1      11.553   4.723   4.785  0.00  0.00    +0.040 A 
ATOM     29  H   UNL     1      11.914   7.603   6.180  0.00  0.00    +0.165 HD
ENDBRANCH  20  23
ENDBRANCH  16  17
ENDBRANCH   4  16
TORSDOF 4
