REMARK  Name = ZINC39708768
REMARK  6 active torsions:
REMARK  status: ('A' for Active; 'I' for Inactive)
REMARK    1  A    between atoms: C_7  and  C_10
REMARK    2  A    between atoms: N_11  and  N_12
REMARK    3  A    between atoms: C_13  and  C_15
REMARK    4  A    between atoms: C_18  and  C_21
REMARK    5  A    between atoms: C_24  and  N_27
REMARK    6  A    between atoms: N_27  and  C_28
REMARK                            x       y       z     vdW  Elec       q    Type
REMARK                         _______ _______ _______ _____ _____    ______ ____
ROOT
ATOM      1  C   UNL     1      -0.201  -7.842  -0.042  0.00  0.00    +0.038 A 
ATOM      2  C   UNL     1      -1.580  -7.618  -0.033  0.00  0.00    +0.014 A 
ATOM      3  C   UNL     1      -2.451  -8.684  -0.031  0.00  0.00    +0.010 A 
ATOM      4  C   UNL     1      -1.956  -9.991  -0.037  0.00  0.00    -0.003 A 
ATOM      5  C   UNL     1      -0.577 -10.215  -0.046  0.00  0.00    +0.010 A 
ATOM      6  C   UNL     1       0.294  -9.149  -0.055  0.00  0.00    +0.014 A 
ENDROOT
BRANCH   4   7
ATOM      7  C   UNL     1      -2.890 -11.135  -0.034  0.00  0.00    +0.056 C 
ATOM      8  C   UNL     1      -2.370 -12.565  -0.041  0.00  0.00    +0.128 C 
ATOM      9  S   UNL     1      -3.920 -13.469  -0.477  0.00  0.00    -0.109 S 
ATOM     10  C   UNL     1      -5.071 -12.099  -0.019  0.00  0.00    +0.249 C 
ATOM     11  N   UNL     1      -4.146 -10.947  -0.020  0.00  0.00    -0.254 NA
BRANCH  10  12
ATOM     12  N   UNL     1      -6.125 -11.936  -1.024  0.00  0.00    -0.314 N 
ATOM     13  H   UNL     1      -6.081 -11.204  -1.658  0.00  0.00    +0.149 HD
BRANCH  12  14
ATOM     14  C   UNL     1      -7.194 -12.836  -1.067  0.00  0.00    +0.029 A 
ATOM     15  C   UNL     1      -7.260 -13.881  -0.155  0.00  0.00    +0.024 A 
ATOM     16  C   UNL     1      -8.318 -14.768  -0.200  0.00  0.00    +0.022 A 
ATOM     17  C   UNL     1      -9.310 -14.617  -1.152  0.00  0.00    +0.041 A 
ATOM     18  C   UNL     1      -9.246 -13.576  -2.062  0.00  0.00    +0.022 A 
ATOM     19  C   UNL     1      -8.194 -12.683  -2.018  0.00  0.00    +0.024 A 
ATOM     20 CL   UNL     1     -10.637 -15.735  -1.206  0.00  0.00    -0.084 Cl
ENDBRANCH  12  14
ENDBRANCH  10  12
ENDBRANCH   4   7
BRANCH   1  22
ATOM     21  N   UNL     1       0.256  -5.438  -0.032  0.00  0.00    -0.203 N 
ATOM     22  C   UNL     1       0.734  -6.698  -0.044  0.00  0.00    +0.263 C 
ATOM     23  O   UNL     1       1.933  -6.893  -0.057  0.00  0.00    -0.268 OA
ATOM     24  H   UNL     1      -0.702  -5.282  -0.022  0.00  0.00    +0.178 HD
BRANCH  21  26
ATOM     25  C   UNL     1       0.678  -3.128  -0.022  0.00  0.00    +0.136 C 
ATOM     26  N   UNL     1       1.142  -4.352  -0.034  0.00  0.00    -0.188 NA
BRANCH  25  33
ATOM     27  C   UNL     1      -0.016   1.353   0.009  0.00  0.00    +0.001 A 
ATOM     28  C   UNL     1       1.164   2.102   0.002  0.00  0.00    +0.002 A 
ATOM     29  C   UNL     1       2.384   1.513  -0.013  0.00  0.00    +0.026 A 
ATOM     30  C   UNL     1       2.485   0.097  -0.022  0.00  0.00    +0.043 A 
ATOM     31  N   UNL     1       3.531  -0.702  -0.037  0.00  0.00    -0.380 N 
ATOM     32  C   UNL     1       3.076  -2.096  -0.040  0.00  0.00    +0.150 C 
ATOM     33  C   UNL     1       1.564  -2.042  -0.024  0.00  0.00    +0.000 C 
ATOM     34  C   UNL     1       1.238  -0.688  -0.013  0.00  0.00    +0.004 A 
ATOM     35  C   UNL     1       0.002  -0.004   0.002  0.00  0.00    +0.010 A 
ATOM     36  H   UNL     1       4.457  -0.414  -0.045  0.00  0.00    +0.160 HD
ENDBRANCH  25  33
ENDBRANCH  21  26
ENDBRANCH   1  22
TORSDOF 6
