REMARK  Name = ZINC13474058
REMARK  10 active torsions:
REMARK  status: ('A' for Active; 'I' for Inactive)
REMARK    1  A    between atoms: C_1  and  C_2
REMARK    2  A    between atoms: C_4  and  O_19
REMARK    3  A    between atoms: C_6  and  O_9
REMARK    4  A    between atoms: O_9  and  C_10
REMARK    5  A    between atoms: C_12  and  C_17
REMARK    6  A    between atoms: C_15  and  N_16
REMARK    7  A    between atoms: O_19  and  C_20
REMARK    8  A    between atoms: C_24  and  N_26
REMARK    9  A    between atoms: N_26  and  C_27
REMARK   10  A    between atoms: N_26  and  C_28
REMARK                            x       y       z     vdW  Elec       q    Type
REMARK                         _______ _______ _______ _____ _____    ______ ____
ROOT
ATOM      1  C   UNL     1      -6.862   3.456   7.009  0.00  0.00    +0.050 C 
ATOM      2  C   UNL     1      -6.527   3.539   5.542  0.00  0.00    +0.030 A 
ATOM      3  C   UNL     1      -5.225   3.778   5.125  0.00  0.00    +0.191 A 
ATOM      4  C   UNL     1      -4.952   3.849   3.764  0.00  0.00    +0.260 A 
ATOM      5  N   UNL     1      -5.917   3.696   2.872  0.00  0.00    -0.172 NA
ATOM      6  C   UNL     1      -7.167   3.461   3.236  0.00  0.00    +0.260 A 
ATOM      7  C   UNL     1      -7.512   3.379   4.580  0.00  0.00    +0.191 A 
ATOM      8  F   UNL     1      -8.792   3.145   4.944  0.00  0.00    -0.200 F 
ATOM      9  F   UNL     1      -4.236   3.940   6.030  0.00  0.00    -0.200 F 
ENDROOT
BRANCH   6  10
ATOM     10  O   UNL     1      -8.125   3.305   2.286  0.00  0.00    -0.434 OA
BRANCH  10  11
ATOM     11  C   UNL     1      -7.785   2.661   1.137  0.00  0.00    +0.152 A 
ATOM     12  C   UNL     1      -6.474   2.288   0.916  0.00  0.00    +0.059 A 
ATOM     13  C   UNL     1      -6.129   1.624  -0.263  0.00  0.00    +0.016 A 
ATOM     14  C   UNL     1      -7.109   1.347  -1.218  0.00  0.00    +0.013 A 
ATOM     15  C   UNL     1      -8.415   1.725  -0.996  0.00  0.00    +0.027 A 
ATOM     16  C   UNL     1      -8.761   2.383   0.179  0.00  0.00    +0.068 A 
BRANCH  13  17
ATOM     17  C   UNL     1      -4.727   1.218  -0.501  0.00  0.00    +0.094 C 
ATOM     18  N   UNL     1      -4.365   0.669  -1.713  0.00  0.00    -0.345 N 
ATOM     19  H   UNL     1      -2.877   1.208   0.351  0.00  0.00    +0.157 HD
ATOM     20  H   UNL     1      -5.010   0.621  -2.435  0.00  0.00    +0.144 HD
ATOM     21  H   UNL     1      -3.465   0.332  -1.843  0.00  0.00    +0.144 HD
ATOM     22  N   UNL     1      -3.869   1.402   0.492  0.00  0.00    -0.387 N 
ATOM     23  H   UNL     1      -4.202   1.740   1.402  0.00  0.00    +0.157 HD
ENDBRANCH  13  17
BRANCH  16  24
ATOM     24  N   UNL     1     -10.084   2.765   0.400  0.00  0.00    -0.355 N 
ATOM     25  H   UNL     1     -10.325   3.223   1.220  0.00  0.00    +0.142 HD
ATOM     26  H   UNL     1     -10.762   2.571  -0.266  0.00  0.00    +0.142 HD
ENDBRANCH  16  24
ENDBRANCH  10  11
ENDBRANCH   6  10
BRANCH   4  27
ATOM     27  O   UNL     1      -3.682   4.082   3.346  0.00  0.00    -0.436 OA
BRANCH  27  28
ATOM     28  C   UNL     1      -3.498   4.958   2.323  0.00  0.00    +0.132 A 
ATOM     29  C   UNL     1      -4.594   5.491   1.659  0.00  0.00    +0.046 A 
ATOM     30  C   UNL     1      -4.409   6.381   0.619  0.00  0.00    +0.005 A 
ATOM     31  C   UNL     1      -3.132   6.743   0.235  0.00  0.00    +0.023 A 
ATOM     32  C   UNL     1      -2.031   6.214   0.896  0.00  0.00    +0.033 A 
ATOM     33  C   UNL     1      -2.215   5.316   1.939  0.00  0.00    +0.069 A 
BRANCH  32  34
ATOM     34  N   UNL     1      -0.740   6.580   0.508  0.00  0.00    -0.336 N 
ATOM     35  C   UNL     1      -0.547   7.523  -0.596  0.00  0.00    +0.129 C 
ATOM     36  C   UNL     1       0.421   6.021   1.206  0.00  0.00    +0.129 C 
ENDBRANCH  32  34
ENDBRANCH  27  28
ENDBRANCH   4  27
TORSDOF 7
