REMARK  Name = ZINC12605883
REMARK  9 active torsions:
REMARK  status: ('A' for Active; 'I' for Inactive)
REMARK    1  A    between atoms: C_1  and  C_2
REMARK    2  A    between atoms: C_6  and  N_8
REMARK    3  A    between atoms: N_8  and  S_9
REMARK    4  A    between atoms: S_9  and  C_12
REMARK    5  A    between atoms: C_16  and  C_18
REMARK    6  A    between atoms: N_20  and  C_21
REMARK    7  A    between atoms: C_21  and  C_22
REMARK    8  A    between atoms: C_22  and  N_23
REMARK    9  A    between atoms: N_23  and  C_24
REMARK                            x       y       z     vdW  Elec       q    Type
REMARK                         _______ _______ _______ _____ _____    ______ ____
ROOT
ATOM      1  C   UNL     1      -2.288  -0.073  -2.432  0.00  0.00    +0.109 A 
ATOM      2  C   UNL     1      -1.706   1.025  -3.041  0.00  0.00    +0.029 A 
ATOM      3  C   UNL     1      -1.491   1.032  -4.407  0.00  0.00    +0.003 A 
ATOM      4  C   UNL     1      -1.864  -0.052  -5.174  0.00  0.00    +0.013 A 
ATOM      5  C   UNL     1      -2.456  -1.161  -4.567  0.00  0.00    +0.039 A 
ATOM      6  C   UNL     1      -2.666  -1.164  -3.187  0.00  0.00    +0.041 A 
ENDROOT
BRANCH   5   7
ATOM      7  C   UNL     1      -2.860  -2.326  -5.382  0.00  0.00    +0.244 C 
ATOM      8  O   UNL     1      -3.375  -3.291  -4.851  0.00  0.00    -0.270 OA
ATOM      9  N   UNL     1      -2.656  -2.320  -6.714  0.00  0.00    -0.310 N 
ATOM     10  H   UNL     1      -2.244  -1.551  -7.138  0.00  0.00    +0.149 HD
BRANCH   9  11
ATOM     11  C   UNL     1      -3.055  -3.475  -7.522  0.00  0.00    +0.123 C 
BRANCH  11  12
ATOM     12  C   UNL     1      -2.715  -3.213  -8.991  0.00  0.00    +0.121 C 
BRANCH  12  13
ATOM     13  N   UNL     1      -3.115  -4.368  -9.798  0.00  0.00    -0.329 N 
ATOM     14  H   UNL     1      -3.526  -5.137  -9.374  0.00  0.00    +0.147 HD
BRANCH  13  15
ATOM     15  C   UNL     1      -2.905  -4.361 -11.172  0.00  0.00    +0.096 A 
ATOM     16  C   UNL     1      -2.314  -3.254 -11.774  0.00  0.00    +0.041 A 
ATOM     17  C   UNL     1      -2.111  -3.261 -13.142  0.00  0.00    +0.005 A 
ATOM     18  C   UNL     1      -2.506  -4.379 -13.865  0.00  0.00    +0.018 A 
ATOM     19  C   UNL     1      -3.086  -5.442 -13.203  0.00  0.00    +0.084 A 
ATOM     20  N   UNL     1      -3.296  -5.473 -11.860  0.00  0.00    -0.350 N 
ATOM     21  H   UNL     1      -3.722  -6.281 -11.393  0.00  0.00    +0.166 HD
ENDBRANCH  13  15
ENDBRANCH  12  13
ENDBRANCH  11  12
ENDBRANCH   9  11
ENDBRANCH   5   7
BRANCH   1  22
ATOM     22  S   UNL     1      -2.552  -0.075  -0.690  0.00  0.00    +0.072 S 
ATOM     23  O   UNL     1      -3.612  -0.989  -0.441  0.00  0.00    -0.150 OA
ATOM     24  O   UNL     1      -2.609   1.286  -0.286  0.00  0.00    -0.150 OA
BRANCH  22  25
ATOM     25  N   UNL     1      -1.197  -0.721   0.010  0.00  0.00    -0.215 N 
ATOM     26  H   UNL     1      -1.265  -1.528   0.544  0.00  0.00    +0.174 HD
BRANCH  25  32
ATOM     27  C   UNL     1       1.448   3.392  -0.487  0.00  0.00    +0.044 C 
ATOM     28  C   UNL     1       1.355   1.889  -0.412  0.00  0.00    -0.049 A 
ATOM     29  C   UNL     1       2.500   1.121  -0.521  0.00  0.00    +0.004 A 
ATOM     30  C   UNL     1       2.420  -0.258  -0.454  0.00  0.00    +0.017 A 
ATOM     31  C   UNL     1       1.195  -0.872  -0.278  0.00  0.00    +0.040 A 
ATOM     32  C   UNL     1       0.043  -0.103  -0.168  0.00  0.00    +0.062 A 
ATOM     33  C   UNL     1       0.128   1.282  -0.236  0.00  0.00    +0.029 A 
ATOM     34 BR   UNL     1       1.087  -2.758  -0.185  0.00  0.00    -0.048 Br
ENDBRANCH  25  32
ENDBRANCH  22  25
ENDBRANCH   1  22
TORSDOF 8
