REMARK  Name = ZINC20224360
REMARK  5 active torsions:
REMARK  status: ('A' for Active; 'I' for Inactive)
REMARK    1  A    between atoms: C_3  and  N_9
REMARK    2  A    between atoms: C_6  and  C_7
REMARK    3  A    between atoms: C_7  and  N_8
REMARK    4  A    between atoms: N_9  and  S_10
REMARK    5  A    between atoms: S_10  and  C_13
REMARK                            x       y       z     vdW  Elec       q    Type
REMARK                         _______ _______ _______ _____ _____    ______ ____
ROOT
ATOM      1  N   UNL     1       1.110  -2.869  -1.546  0.00  0.00    -0.216 N 
ATOM      2  H   UNL     1       0.121  -2.397  -1.632  0.00  0.00    +0.174 HD
ENDROOT
BRANCH   1   5
ATOM      3  C   UNL     1       3.466  -3.151  -4.352  0.00  0.00    +0.003 A 
ATOM      4  C   UNL     1       2.470  -3.466  -3.448  0.00  0.00    +0.025 A 
ATOM      5  C   UNL     1       2.117  -2.555  -2.461  0.00  0.00    +0.048 A 
ATOM      6  C   UNL     1       2.763  -1.327  -2.391  0.00  0.00    +0.025 A 
ATOM      7  C   UNL     1       3.761  -1.021  -3.295  0.00  0.00    +0.003 A 
ATOM      8  C   UNL     1       4.111  -1.930  -4.276  0.00  0.00    -0.065 A 
BRANCH   8   9
ATOM      9  C   UNL     1       5.197  -1.591  -5.264  0.00  0.00    -0.051 C 
BRANCH   9  10
ATOM     10  N   UNL     1       4.605  -0.928  -6.434  0.00  0.00    +0.381 N 
ATOM     11  H   UNL     1       5.398  -0.680  -7.155  0.00  0.00    -0.090 HD
ATOM     12  H   UNL     1       4.098  -0.005  -6.115  0.00  0.00    -0.090 HD
ATOM     13  H   UNL     1       3.876  -1.602  -6.907  0.00  0.00    -0.090 HD
ENDBRANCH   9  10
ENDBRANCH   8   9
ENDBRANCH   1   5
BRANCH   1  14
ATOM     14  S   UNL     1       1.406  -3.955  -0.330  0.00  0.00    +0.072 S 
ATOM     15  O   UNL     1       1.970  -5.107  -0.943  0.00  0.00    -0.150 OA
ATOM     16  O   UNL     1       0.226  -4.012   0.459  0.00  0.00    -0.150 OA
BRANCH  14  17
ATOM     17  C   UNL     1       2.663  -3.262   0.692  0.00  0.00    +0.109 A 
ATOM     18  C   UNL     1       2.325  -2.377   1.698  0.00  0.00    +0.031 A 
ATOM     19  C   UNL     1       3.310  -1.833   2.501  0.00  0.00    +0.040 A 
ATOM     20  C   UNL     1       4.636  -2.175   2.296  0.00  0.00    +0.124 A 
ATOM     21  C   UNL     1       4.973  -3.061   1.288  0.00  0.00    +0.040 A 
ATOM     22  C   UNL     1       3.987  -3.604   0.487  0.00  0.00    +0.031 A 
ATOM     23  F   UNL     1       5.599  -1.643   3.080  0.00  0.00    -0.205 F 
ENDBRANCH  14  17
ENDBRANCH   1  14
TORSDOF 5
