REMARK  Name = ZINC67124411
REMARK  7 active torsions:
REMARK  status: ('A' for Active; 'I' for Inactive)
REMARK    1  A    between atoms: C_1  and  C_2
REMARK    2  A    between atoms: C_2  and  N_3
REMARK    3  A    between atoms: N_6  and  C_7
REMARK    4  A    between atoms: C_11  and  N_13
REMARK    5  A    between atoms: N_13  and  S_14
REMARK    6  A    between atoms: S_14  and  C_17
REMARK    7  A    between atoms: C_20  and  C_23
REMARK                            x       y       z     vdW  Elec       q    Type
REMARK                         _______ _______ _______ _____ _____    ______ ____
ROOT
ATOM      1  C   UNL     1      -3.046  -3.691   0.102  0.00  0.00    +0.037 A 
ATOM      2  C   UNL     1      -1.944  -4.533   0.188  0.00  0.00    +0.023 A 
ATOM      3  C   UNL     1      -2.122  -5.900   0.272  0.00  0.00    +0.004 A 
ATOM      4  C   UNL     1      -3.396  -6.435   0.270  0.00  0.00    +0.027 A 
ATOM      5  C   UNL     1      -4.503  -5.599   0.183  0.00  0.00    +0.076 A 
ATOM      6  C   UNL     1      -4.327  -4.224   0.105  0.00  0.00    +0.050 A 
ENDROOT
BRANCH   1  10
ATOM      7  N   UNL     1      -3.516  -0.145   0.613  0.00  0.00    -0.299 N 
ATOM      8  C   UNL     1      -3.740  -1.474   0.615  0.00  0.00    +0.304 C 
ATOM      9  O   UNL     1      -4.733  -1.922   1.156  0.00  0.00    -0.253 OA
ATOM     10  N   UNL     1      -2.865  -2.306   0.017  0.00  0.00    -0.269 N 
ATOM     11  H   UNL     1      -2.724   0.213   0.181  0.00  0.00    +0.150 HD
ATOM     12  H   UNL     1      -2.109  -1.945  -0.472  0.00  0.00    +0.156 HD
BRANCH   7  14
ATOM     13  C   UNL     1      -3.980   2.203   1.118  0.00  0.00    +0.024 C 
ATOM     14  C   UNL     1      -4.467   0.760   1.264  0.00  0.00    +0.102 C 
ENDBRANCH   7  14
ENDBRANCH   1  10
BRANCH   5  15
ATOM     15  N   UNL     1      -5.790  -6.141   0.181  0.00  0.00    -0.098 NA
BRANCH  15  16
ATOM     16  S   UNL     1      -5.998  -7.781   0.281  0.00  0.00    +0.092 S 
ATOM     17  O   UNL     1      -5.467  -8.331  -0.917  0.00  0.00    -0.148 OA
ATOM     18  O   UNL     1      -5.540  -8.171   1.568  0.00  0.00    -0.148 OA
BRANCH  16  19
ATOM     19  C   UNL     1      -7.733  -8.088   0.249  0.00  0.00    +0.110 A 
ATOM     20  C   UNL     1      -8.450  -8.126   1.431  0.00  0.00    +0.029 A 
ATOM     21  C   UNL     1      -9.811  -8.367   1.406  0.00  0.00    +0.014 A 
ATOM     22  C   UNL     1     -10.455  -8.570   0.200  0.00  0.00    +0.055 A 
ATOM     23  C   UNL     1      -9.739  -8.531  -0.981  0.00  0.00    +0.014 A 
ATOM     24  C   UNL     1      -8.379  -8.286  -0.957  0.00  0.00    +0.029 A 
BRANCH  22  25
ATOM     25  C   UNL     1     -11.939  -8.834   0.174  0.00  0.00    +0.417 C 
ATOM     26  F   UNL     1     -12.626  -7.620   0.070  0.00  0.00    -0.166 F 
ATOM     27  F   UNL     1     -12.249  -9.641  -0.926  0.00  0.00    -0.166 F 
ATOM     28  F   UNL     1     -12.318  -9.485   1.352  0.00  0.00    -0.166 F 
ENDBRANCH  22  25
ENDBRANCH  16  19
ENDBRANCH  15  16
ENDBRANCH   5  15
TORSDOF 6
