REMARK  Name = ZINC09237476
REMARK  6 active torsions:
REMARK  status: ('A' for Active; 'I' for Inactive)
REMARK    1  A    between atoms: C_1  and  C_2
REMARK    2  A    between atoms: C_5  and  N_9
REMARK    3  A    between atoms: C_6  and  C_8
REMARK    4  A    between atoms: C_10  and  C_12
REMARK    5  A    between atoms: C_14  and  C_24
REMARK    6  A    between atoms: C_18  and  C_23
REMARK                            x       y       z     vdW  Elec       q    Type
REMARK                         _______ _______ _______ _____ _____    ______ ____
ROOT
ATOM      1  C   UNL     1      -0.336   6.529  -1.390  0.00  0.00    +0.166 C 
ATOM      2  C   UNL     1      -0.077   6.021   0.035  0.00  0.00    +0.140 C 
ATOM      3  N   UNL     1      -1.124   6.497   0.941  0.00  0.00    -0.272 N 
ATOM      4  N   UNL     1      -1.214   7.850   1.010  0.00  0.00    -0.225 N 
ATOM      5  C   UNL     1      -1.760   8.599   2.012  0.00  0.00    +0.148 A 
ATOM      6  N   UNL     1      -1.650   9.852   1.665  0.00  0.00    -0.132 NA
ATOM      7  N   UNL     1      -1.069   9.945   0.519  0.00  0.00    -0.121 NA
ATOM      8  C   UNL     1      -0.778   8.752   0.081  0.00  0.00    +0.209 A 
ATOM      9  S   UNL     1       0.037   8.310  -1.421  0.00  0.00    -0.069 S 
ATOM     10  C   UNL     1      -2.377   8.076   3.283  0.00  0.00    +0.090 C 
ATOM     11  H   UNL     1      -2.017   6.087   0.709  0.00  0.00    +0.167 HD
ENDROOT
BRANCH   2  12
ATOM     12  C   UNL     1      -0.067   4.514   0.032  0.00  0.00    -0.024 A 
ATOM     13  C   UNL     1       1.135   3.832   0.020  0.00  0.00    +0.007 A 
ATOM     14  C   UNL     1       1.145   2.450   0.018  0.00  0.00    +0.020 A 
ATOM     15  C   UNL     1      -0.048   1.749   0.029  0.00  0.00    +0.041 A 
ATOM     16  C   UNL     1      -1.251   2.433   0.035  0.00  0.00    +0.020 A 
ATOM     17  C   UNL     1      -1.260   3.815   0.043  0.00  0.00    +0.007 A 
ATOM     18 CL   UNL     1      -0.036   0.013   0.027  0.00  0.00    -0.084 Cl
ENDBRANCH   2  12
BRANCH   1  20
ATOM     19  N   UNL     1       0.158   5.602  -3.629  0.00  0.00    -0.284 N 
ATOM     20  C   UNL     1       0.562   5.806  -2.360  0.00  0.00    +0.233 C 
ATOM     21  O   UNL     1       1.649   5.407  -1.998  0.00  0.00    -0.274 OA
ATOM     22  H   UNL     1      -0.741   5.849  -3.897  0.00  0.00    +0.155 HD
BRANCH  19  27
ATOM     23  C   UNL     1       3.712   3.301  -7.405  0.00  0.00    +0.044 C 
ATOM     24  C   UNL     1       2.768   3.912  -6.402  0.00  0.00    -0.050 A 
ATOM     25  C   UNL     1       3.270   4.586  -5.303  0.00  0.00    +0.005 A 
ATOM     26  C   UNL     1       2.407   5.147  -4.383  0.00  0.00    +0.024 A 
ATOM     27  C   UNL     1       1.034   5.034  -4.561  0.00  0.00    +0.036 A 
ATOM     28  C   UNL     1       0.534   4.352  -5.661  0.00  0.00    -0.029 A 
ATOM     29  C   UNL     1       1.402   3.798  -6.582  0.00  0.00    +0.008 A 
ATOM     30  C   UNL     1      -0.955   4.221  -5.855  0.00  0.00    +0.045 C 
ENDBRANCH  19  27
ENDBRANCH   1  20
TORSDOF 3
