REMARK  Name = ZINC13252302
REMARK  6 active torsions:
REMARK  status: ('A' for Active; 'I' for Inactive)
REMARK    1  A    between atoms: C_6  and  N_7
REMARK    2  A    between atoms: N_7  and  S_8
REMARK    3  A    between atoms: S_8  and  C_11
REMARK    4  A    between atoms: C_13  and  N_18
REMARK    5  A    between atoms: C_19  and  C_21
REMARK    6  A    between atoms: C_27  and  C_29
REMARK                            x       y       z     vdW  Elec       q    Type
REMARK                         _______ _______ _______ _____ _____    ______ ____
ROOT
ATOM      1  C   UNL     1       1.562   2.080  -6.535  0.00  0.00    +0.130 A 
ATOM      2  C   UNL     1       1.792   2.266  -5.186  0.00  0.00    +0.053 A 
ATOM      3  C   UNL     1       0.812   2.840  -4.388  0.00  0.00    +0.035 A 
ATOM      4  C   UNL     1      -0.401   3.219  -4.948  0.00  0.00    +0.025 A 
ATOM      5  C   UNL     1      -0.625   3.036  -6.298  0.00  0.00    +0.024 A 
ATOM      6  C   UNL     1       0.355   2.464  -7.091  0.00  0.00    +0.068 A 
ATOM      7 CL   UNL     1       0.068   2.228  -8.787  0.00  0.00    -0.082 Cl
ENDROOT
BRANCH   3   8
ATOM      8  N   UNL     1       1.042   3.029  -3.020  0.00  0.00    -0.285 N 
ATOM      9  C   UNL     1       2.284   3.311  -2.579  0.00  0.00    +0.221 C 
ATOM     10  O   UNL     1       3.183   3.492  -3.373  0.00  0.00    -0.275 OA
ATOM     11  H   UNL     1       0.210   2.948  -2.306  0.00  0.00    +0.155 HD
BRANCH   9  12
ATOM     12  C   UNL     1       2.557   3.400  -1.100  0.00  0.00    +0.093 C 
ATOM     13  C   UNL     1       3.574   4.511  -0.830  0.00  0.00    +0.040 C 
ATOM     14  C   UNL     1       4.928   4.106  -1.334  0.00  0.00    -0.030 C 
ATOM     15  C   UNL     1       5.261   2.888  -1.621  0.00  0.00    -0.030 C 
ATOM     16  C   UNL     1       4.339   1.711  -1.487  0.00  0.00    +0.042 C 
ATOM     17  C   UNL     1       3.144   2.073  -0.603  0.00  0.00    +0.118 C 
BRANCH  17  18
ATOM     18  C   UNL     1       2.098   0.992  -0.690  0.00  0.00    +0.360 C 
ATOM     19  O   UNL     1       0.994   1.251  -1.106  0.00  0.00    -0.246 OA
ATOM     20  O   UNL     1       2.393  -0.260  -0.304  0.00  0.00    -0.246 OA
ENDBRANCH  17  18
ENDBRANCH   9  12
ENDBRANCH   3   8
BRANCH   1  21
ATOM     21  S   UNL     1       2.807   1.353  -7.549  0.00  0.00    +0.093 S 
ATOM     22  O   UNL     1       2.934   2.184  -8.694  0.00  0.00    -0.148 OA
ATOM     23  O   UNL     1       3.904   1.058  -6.696  0.00  0.00    -0.148 OA
BRANCH  21  24
ATOM     24  N   UNL     1       2.217  -0.100  -8.081  0.00  0.00    -0.098 NA
BRANCH  24  30
ATOM     25  C   UNL     1       2.764  -1.405  -6.126  0.00  0.00    +0.028 A 
ATOM     26  C   UNL     1       2.437  -2.391  -5.216  0.00  0.00    +0.022 A 
ATOM     27  C   UNL     1       1.245  -3.083  -5.342  0.00  0.00    +0.041 A 
ATOM     28  C   UNL     1       0.376  -2.787  -6.378  0.00  0.00    +0.022 A 
ATOM     29  C   UNL     1       0.696  -1.798  -7.287  0.00  0.00    +0.028 A 
ATOM     30  C   UNL     1       1.891  -1.101  -7.162  0.00  0.00    +0.074 A 
ATOM     31 CL   UNL     1       0.840  -4.327  -4.201  0.00  0.00    -0.084 Cl
ENDBRANCH  24  30
ENDBRANCH  21  24
ENDBRANCH   1  21
TORSDOF 6
