REMARK  Name = ZINC25260027
REMARK  7 active torsions:
REMARK  status: ('A' for Active; 'I' for Inactive)
REMARK    1  A    between atoms: C_3  and  N_18
REMARK    2  A    between atoms: C_5  and  S_7
REMARK    3  A    between atoms: S_7  and  N_10
REMARK    4  A    between atoms: N_10  and  C_11
REMARK    5  A    between atoms: C_19  and  C_21
REMARK    6  A    between atoms: C_21  and  N_22
REMARK    7  A    between atoms: C_23  and  C_25
REMARK                            x       y       z     vdW  Elec       q    Type
REMARK                         _______ _______ _______ _____ _____    ______ ____
ROOT
ATOM      1  C   UNL     1       3.085   3.355  -1.425  0.00  0.00    +0.004 A 
ATOM      2  C   UNL     1       3.833   3.584  -0.286  0.00  0.00    +0.023 A 
ATOM      3  C   UNL     1       3.291   3.318   0.964  0.00  0.00    +0.035 A 
ATOM      4  C   UNL     1       1.996   2.826   1.065  0.00  0.00    +0.052 A 
ATOM      5  C   UNL     1       1.255   2.594  -0.077  0.00  0.00    +0.110 A 
ATOM      6  C   UNL     1       1.798   2.861  -1.321  0.00  0.00    +0.029 A 
ENDROOT
BRANCH   3   7
ATOM      7  N   UNL     1       4.045   3.549   2.119  0.00  0.00    -0.284 N 
ATOM      8  C   UNL     1       4.922   4.572   2.158  0.00  0.00    +0.234 C 
ATOM      9  O   UNL     1       4.990   5.348   1.228  0.00  0.00    -0.274 OA
ATOM     10  H   UNL     1       3.923   2.896   2.996  0.00  0.00    +0.155 HD
BRANCH   8  11
ATOM     11  C   UNL     1       5.819   4.751   3.356  0.00  0.00    +0.200 C 
BRANCH  11  12
ATOM     12  N   UNL     1       6.672   5.925   3.156  0.00  0.00    -0.300 N 
ATOM     13  C   UNL     1       7.561   6.281   4.104  0.00  0.00    +0.280 C 
ATOM     14  O   UNL     1       7.654   5.628   5.127  0.00  0.00    -0.267 OA
ATOM     15  H   UNL     1       6.588   6.515   2.231  0.00  0.00    +0.150 HD
BRANCH  13  16
ATOM     16  C   UNL     1       8.416   7.456   3.904  0.00  0.00    +0.189 A 
ATOM     17  C   UNL     1       9.353   7.925   4.779  0.00  0.00    +0.054 A 
ATOM     18  C   UNL     1       9.928   9.059   4.185  0.00  0.00    +0.042 A 
ATOM     19  C   UNL     1       9.325   9.230   2.988  0.00  0.00    +0.196 A 
ATOM     20  O   UNL     1       8.418   8.259   2.820  0.00  0.00    -0.458 OA
ENDBRANCH  13  16
ENDBRANCH  11  12
ENDBRANCH   8  11
ENDBRANCH   3   7
BRANCH   5  21
ATOM     21  S   UNL     1      -0.386   1.966   0.050  0.00  0.00    +0.072 S 
ATOM     22  O   UNL     1      -1.032   2.264  -1.180  0.00  0.00    -0.150 OA
ATOM     23  O   UNL     1      -0.893   2.404   1.303  0.00  0.00    -0.150 OA
BRANCH  21  24
ATOM     24  N   UNL     1      -0.273   0.316   0.137  0.00  0.00    -0.216 N 
ATOM     25  H   UNL     1      -0.679  -0.307  -0.673  0.00  0.00    +0.174 HD
BRANCH  24  26
ATOM     26  C   UNL     1       0.339  -0.285   1.240  0.00  0.00    +0.048 A 
ATOM     27  C   UNL     1       1.608  -0.836   1.118  0.00  0.00    +0.025 A 
ATOM     28  C   UNL     1       2.212  -1.426   2.211  0.00  0.00    +0.017 A 
ATOM     29  C   UNL     1       1.550  -1.477   3.425  0.00  0.00    +0.018 A 
ATOM     30  C   UNL     1       0.283  -0.933   3.549  0.00  0.00    +0.017 A 
ATOM     31  C   UNL     1      -0.324  -0.338   2.460  0.00  0.00    +0.025 A 
ATOM     32 BR   UNL     1       2.377  -2.290   4.918  0.00  0.00    -0.050 Br
ENDBRANCH  24  26
ENDBRANCH  21  24
ENDBRANCH   5  21
TORSDOF 7
