REMARK  Name = ZINC36809495
REMARK  3 active torsions:
REMARK  status: ('A' for Active; 'I' for Inactive)
REMARK    1  A    between atoms: C_3  and  S_9
REMARK    2  A    between atoms: C_4  and  N_8
REMARK    3  A    between atoms: S_9  and  N_12
REMARK                            x       y       z     vdW  Elec       q    Type
REMARK                         _______ _______ _______ _____ _____    ______ ____
ROOT
ATOM      1  S   UNL     1       3.838   2.277   0.572  0.00  0.00    +0.063 S 
ATOM      2  O   UNL     1       4.746   1.813  -0.417  0.00  0.00    -0.153 OA
ATOM      3  O   UNL     1       3.513   3.653   0.722  0.00  0.00    -0.153 OA
ENDROOT
BRANCH   1   4
ATOM      4  N   UNL     1       4.428   1.769   2.033  0.00  0.00    -0.176 NA
ATOM      5  C   UNL     1       3.948   2.369   3.286  0.00  0.00    +0.110 C 
ATOM      6  C   UNL     1       5.155   2.861   4.090  0.00  0.00    +0.021 C 
ATOM      7  C   UNL     1       6.138   1.705   4.288  0.00  0.00    -0.005 C 
ATOM      8  C   UNL     1       7.334   2.195   5.110  0.00  0.00    +0.004 C 
ATOM      9  C   UNL     1       8.016   3.350   4.373  0.00  0.00    +0.000 C 
ATOM     10  C   UNL     1       8.502   2.868   3.005  0.00  0.00    +0.000 C 
ATOM     11  C   UNL     1       7.310   2.369   2.185  0.00  0.00    +0.005 C 
ATOM     12  C   UNL     1       6.626   1.209   2.924  0.00  0.00    +0.008 C 
ATOM     13  C   UNL     1       5.438   0.704   2.104  0.00  0.00    +0.113 C 
ENDBRANCH   1   4
BRANCH   1  16
ATOM     14  C   UNL     1      -0.063   1.464   0.052  0.00  0.00    +0.017 A 
ATOM     15  C   UNL     1       1.130   2.130   0.267  0.00  0.00    +0.031 A 
ATOM     16  C   UNL     1       2.319   1.428   0.300  0.00  0.00    +0.126 A 
ATOM     17  C   UNL     1       2.316   0.050   0.117  0.00  0.00    +0.052 A 
ATOM     18  C   UNL     1       1.116  -0.616  -0.099  0.00  0.00    +0.040 A 
ATOM     19  C   UNL     1      -0.070   0.093  -0.130  0.00  0.00    +0.020 A 
ATOM     20 BR   UNL     1      -1.704  -0.812  -0.423  0.00  0.00    -0.050 Br
BRANCH  17  21
ATOM     21  N   UNL     1       3.516  -0.663   0.148  0.00  0.00    -0.356 N 
ATOM     22  H   UNL     1       4.361  -0.188   0.190  0.00  0.00    +0.142 HD
ATOM     23  H   UNL     1       3.505  -1.632   0.129  0.00  0.00    +0.142 HD
ENDBRANCH  17  21
ENDBRANCH   1  16
TORSDOF 3
