REMARK  Name = ZINC09210714
REMARK  5 active torsions:
REMARK  status: ('A' for Active; 'I' for Inactive)
REMARK    1  A    between atoms: C_1  and  C_2
REMARK    2  A    between atoms: C_4  and  C_36
REMARK    3  A    between atoms: N_20  and  C_23
REMARK    4  A    between atoms: C_27  and  N_30
REMARK    5  A    between atoms: C_28  and  C_29
REMARK                            x       y       z     vdW  Elec       q    Type
REMARK                         _______ _______ _______ _____ _____    ______ ____
ROOT
ATOM      1  C   UNL     1      -3.792  -3.635   1.377  0.00  0.00    +0.044 C 
ATOM      2  C   UNL     1      -2.488  -3.900   0.670  0.00  0.00    -0.050 A 
ATOM      3  C   UNL     1      -2.310  -5.074  -0.039  0.00  0.00    +0.008 A 
ATOM      4  C   UNL     1      -1.118  -5.321  -0.688  0.00  0.00    -0.029 A 
ATOM      5  C   UNL     1      -0.084  -4.389  -0.634  0.00  0.00    +0.039 A 
ATOM      6  C   UNL     1      -0.276  -3.212   0.082  0.00  0.00    -0.027 A 
ATOM      7  C   UNL     1      -1.466  -2.969   0.729  0.00  0.00    +0.008 A 
ATOM      8  C   UNL     1       1.004  -2.434  -0.054  0.00  0.00    +0.053 C 
ATOM      9  C   UNL     1       1.659  -2.177   1.292  0.00  0.00    +0.089 C 
ATOM     10  C   UNL     1       2.274  -0.756   1.171  0.00  0.00    +0.074 C 
ATOM     11  C   UNL     1       1.945  -0.295  -0.261  0.00  0.00    -0.054 C 
ATOM     12  C   UNL     1      -0.396  -0.463  -0.042  0.00  0.00    -0.076 C 
ATOM     13  C   UNL     1      -0.102   1.049  -0.122  0.00  0.00    -0.020 C 
ATOM     14  C   UNL     1       1.430   1.156  -0.246  0.00  0.00    -0.016 C 
ATOM     15  C   UNL     1       1.469   0.058   2.158  0.00  0.00    +0.228 C 
ATOM     16  O   UNL     1       1.621   1.240   2.381  0.00  0.00    -0.275 OA
ATOM     17  N   UNL     1       0.562  -0.730   2.748  0.00  0.00    -0.210 N 
ATOM     18  C   UNL     1       0.581  -2.003   2.338  0.00  0.00    +0.229 C 
ATOM     19  O   UNL     1      -0.151  -2.881   2.743  0.00  0.00    -0.275 OA
ATOM     20  C   UNL     1       1.895  -3.297  -0.905  0.00  0.00    +0.212 C 
ATOM     21  O   UNL     1       3.027  -3.042  -1.258  0.00  0.00    -0.277 OA
ATOM     22  N   UNL     1       1.193  -4.408  -1.199  0.00  0.00    -0.286 N 
ATOM     23  C   UNL     1      -0.934  -6.604  -1.457  0.00  0.00    +0.045 C 
ATOM     24  H   UNL     1       1.535  -5.137  -1.740  0.00  0.00    +0.155 HD
ATOM     25  N   UNL     1       0.802  -1.100  -0.627  0.00  0.00    +0.395 N 
ATOM     26  H   UNL     1       0.708  -1.162  -1.648  0.00  0.00    -0.079 HD
ENDROOT
BRANCH  17  27
ATOM     27  C   UNL     1      -0.336  -0.259   3.716  0.00  0.00    +0.049 A 
ATOM     28  C   UNL     1      -1.573   0.241   3.333  0.00  0.00    +0.024 A 
ATOM     29  C   UNL     1      -2.455   0.705   4.289  0.00  0.00    +0.004 A 
ATOM     30  C   UNL     1      -2.107   0.672   5.627  0.00  0.00    +0.033 A 
ATOM     31  C   UNL     1      -0.876   0.175   6.012  0.00  0.00    +0.131 A 
ATOM     32  C   UNL     1       0.008  -0.296   5.061  0.00  0.00    +0.002 A 
ATOM     33  C   UNL     1       1.348  -0.844   5.481  0.00  0.00    +0.048 C 
BRANCH  31  34
ATOM     34  N   UNL     1      -0.507   0.142   7.445  0.00  0.00    +0.057 N 
ATOM     35  O   UNL     1      -1.350  -0.116   8.285  0.00  0.00    -0.126 OA
ATOM     36  O   UNL     1       0.640   0.373   7.784  0.00  0.00    -0.126 OA
ENDBRANCH  31  34
ENDBRANCH  17  27
TORSDOF 2
