REMARK  Name = ZINC23901094
REMARK  6 active torsions:
REMARK  status: ('A' for Active; 'I' for Inactive)
REMARK    1  A    between atoms: C_3  and  N_9
REMARK    2  A    between atoms: C_10  and  C_12
REMARK    3  A    between atoms: C_12  and  N_13
REMARK    4  A    between atoms: N_13  and  C_14
REMARK    5  A    between atoms: C_17  and  O_20
REMARK    6  A    between atoms: O_20  and  C_21
REMARK                            x       y       z     vdW  Elec       q    Type
REMARK                         _______ _______ _______ _____ _____    ______ ____
ROOT
ATOM      1  C   UNL     1       2.512  -2.795  -0.055  0.00  0.00    +0.198 C 
ENDROOT
BRANCH   1   3
ATOM      2  N   UNL     1       3.296  -5.141  -0.056  0.00  0.00    -0.283 N 
ATOM      3  C   UNL     1       2.258  -4.281  -0.048  0.00  0.00    +0.234 C 
ATOM      4  O   UNL     1       1.121  -4.702  -0.035  0.00  0.00    -0.274 OA
ATOM      5  H   UNL     1       4.324  -4.762  -0.142  0.00  0.00    +0.155 HD
BRANCH   2   8
ATOM      6  C   UNL     1       1.707  -8.437  -0.437  0.00  0.00    +0.003 A 
ATOM      7  C   UNL     1       1.935  -7.078  -0.538  0.00  0.00    +0.025 A 
ATOM      8  C   UNL     1       3.063  -6.518   0.045  0.00  0.00    +0.053 A 
ATOM      9  C   UNL     1       3.965  -7.328   0.724  0.00  0.00    +0.080 A 
ATOM     10  C   UNL     1       3.729  -8.687   0.827  0.00  0.00    +0.061 A 
ATOM     11  C   UNL     1       2.602  -9.241   0.244  0.00  0.00    +0.021 A 
ATOM     12 CL   UNL     1       4.850  -9.700   1.681  0.00  0.00    -0.082 Cl
ATOM     13 CL   UNL     1       5.382  -6.635   1.449  0.00  0.00    -0.080 Cl
ENDBRANCH   2   8
ENDBRANCH   1   3
BRANCH   1  14
ATOM     14  N   UNL     1       1.233  -2.082  -0.044  0.00  0.00    -0.335 N 
ATOM     15  H   UNL     1       0.288  -2.645  -0.032  0.00  0.00    +0.147 HD
BRANCH  14  16
ATOM     16  C   UNL     1       1.212  -0.682  -0.047  0.00  0.00    +0.028 A 
ATOM     17  C   UNL     1      -0.000  -0.005  -0.037  0.00  0.00    +0.026 A 
ATOM     18  C   UNL     1      -0.020   1.376  -0.040  0.00  0.00    +0.048 A 
ATOM     19  C   UNL     1       1.171   2.086  -0.054  0.00  0.00    +0.130 A 
ATOM     20  C   UNL     1       2.383   1.411  -0.064  0.00  0.00    +0.048 A 
ATOM     21  C   UNL     1       2.404   0.030  -0.061  0.00  0.00    +0.026 A 
BRANCH  19  22
ATOM     22  O   UNL     1       1.151   3.446  -0.057  0.00  0.00    -0.406 OA
BRANCH  22  23
ATOM     23  C   UNL     1       2.415   4.114  -0.071  0.00  0.00    +0.575 C 
ATOM     24  F   UNL     1       3.124   3.745  -1.220  0.00  0.00    -0.133 F 
ATOM     25  F   UNL     1       2.211   5.498  -0.073  0.00  0.00    -0.133 F 
ATOM     26  F   UNL     1       3.146   3.751   1.065  0.00  0.00    -0.133 F 
ENDBRANCH  22  23
ENDBRANCH  19  22
ENDBRANCH  14  16
ENDBRANCH   1  14
TORSDOF 6
