REMARK  Name = ZINC65527870
REMARK  5 active torsions:
REMARK  status: ('A' for Active; 'I' for Inactive)
REMARK    1  A    between atoms: C_1  and  C_2
REMARK    2  A    between atoms: C_7  and  C_10
REMARK    3  A    between atoms: N_12  and  C_13
REMARK    4  A    between atoms: N_12  and  C_14
REMARK    5  A    between atoms: C_14  and  C_15
REMARK                            x       y       z     vdW  Elec       q    Type
REMARK                         _______ _______ _______ _____ _____    ______ ____
ROOT
ATOM      1  C   UNL     1       1.313  -4.992   0.128  0.00  0.00    +0.247 C 
ATOM      2  O   UNL     1       1.171  -6.059   0.699  0.00  0.00    -0.270 OA
ATOM      3  N   UNL     1       2.231  -4.869  -0.850  0.00  0.00    -0.297 N 
ATOM      4  C   UNL     1       2.380  -3.595  -1.559  0.00  0.00    +0.132 C 
ENDROOT
BRANCH   1  10
ATOM      5  C   UNL     1       1.443   1.572   1.362  0.00  0.00    +0.046 C 
ATOM      6  C   UNL     1       1.167   0.111   1.115  0.00  0.00    -0.017 C 
ATOM      7  C   UNL     1      -0.108  -0.362   1.157  0.00  0.00    +0.098 C 
ATOM      8  N   UNL     1      -0.229  -1.707   0.928  0.00  0.00    -0.232 N 
ATOM      9  C   UNL     1       0.706  -2.451   0.055  0.00  0.00    +0.245 C 
ATOM     10  C   UNL     1       0.513  -3.884   0.491  0.00  0.00    +0.073 C 
ATOM     11  C   UNL     1      -0.572  -3.902   1.296  0.00  0.00    +0.100 C 
ATOM     12  N   UNL     1      -1.101  -2.653   1.452  0.00  0.00    -0.269 N 
ATOM     13  N   UNL     1       2.053  -1.958   0.351  0.00  0.00    -0.262 NA
ATOM     14  C   UNL     1       2.230  -0.775   0.834  0.00  0.00    +0.112 C 
ATOM     15  H   UNL     1      -1.955  -2.456   1.866  0.00  0.00    +0.170 HD
ENDBRANCH   1  10
BRANCH   3  16
ATOM     16  C   UNL     1       3.082  -6.008  -1.205  0.00  0.00    +0.154 C 
BRANCH  16  17
ATOM     17  C   UNL     1       2.401  -6.831  -2.300  0.00  0.00    +0.192 C 
ATOM     18  N   UNL     1       2.136  -5.988  -3.473  0.00  0.00    -0.362 N 
ATOM     19  C   UNL     1       0.849  -5.976  -3.664  0.00  0.00    +0.060 A 
ATOM     20  C   UNL     1      -0.006  -5.321  -4.664  0.00  0.00    +0.030 A 
ATOM     21  C   UNL     1      -1.341  -5.494  -4.614  0.00  0.00    +0.040 A 
ATOM     22  C   UNL     1      -1.967  -6.286  -3.630  0.00  0.00    +0.125 A 
ATOM     23  C   UNL     1      -1.274  -6.931  -2.666  0.00  0.00    +0.065 A 
ATOM     24  C   UNL     1       0.188  -6.814  -2.625  0.00  0.00    +0.063 A 
ATOM     25  N   UNL     1       1.095  -7.312  -1.831  0.00  0.00    -0.362 N 
ATOM     26  F   UNL     1      -3.313  -6.405  -3.652  0.00  0.00    -0.205 F 
ATOM     27  H   UNL     1       2.799  -5.524  -4.008  0.00  0.00    +0.162 HD
ATOM     28  H   UNL     1       0.937  -7.892  -1.070  0.00  0.00    +0.162 HD
ENDBRANCH  16  17
ENDBRANCH   3  16
TORSDOF 3
