REMARK  Name = ZINC64045239
REMARK  8 active torsions:
REMARK  status: ('A' for Active; 'I' for Inactive)
REMARK    1  A    between atoms: C_1  and  C_2
REMARK    2  A    between atoms: C_10  and  C_12
REMARK    3  A    between atoms: N_14  and  C_15
REMARK    4  A    between atoms: C_18  and  C_31
REMARK    5  A    between atoms: N_20  and  C_22
REMARK    6  A    between atoms: C_22  and  C_23
REMARK    7  A    between atoms: C_31  and  O_33
REMARK    8  A    between atoms: O_33  and  C_34
REMARK                            x       y       z     vdW  Elec       q    Type
REMARK                         _______ _______ _______ _____ _____    ______ ____
ROOT
ATOM      1  C   UNL     1      -2.632   0.275   3.667  0.00  0.00    +0.089 C 
ATOM      2  C   UNL     1      -2.166   1.152   4.858  0.00  0.00    +0.054 C 
ATOM      3  C   UNL     1      -3.459   1.937   5.193  0.00  0.00    +0.168 C 
ATOM      4  N   UNL     1      -4.086   2.209   3.882  0.00  0.00    -0.284 NA
ATOM      5  C   UNL     1      -3.617   1.195   2.916  0.00  0.00    +0.107 C 
ENDROOT
BRANCH   1   8
ATOM      6  C   UNL     1      -1.568  -1.165   2.014  0.00  0.00    +0.240 C 
ATOM      7  O   UNL     1      -2.570  -1.849   2.007  0.00  0.00    -0.273 OA
ATOM      8  N   UNL     1      -1.498  -0.080   2.809  0.00  0.00    -0.309 N 
ATOM      9  H   UNL     1      -0.697   0.467   2.815  0.00  0.00    +0.149 HD
BRANCH   6  19
ATOM     10  C   UNL     1      -0.294   0.828  -0.184  0.00  0.00    +0.042 C 
ATOM     11  C   UNL     1      -0.404  -0.673  -0.115  0.00  0.00    -0.033 C 
ATOM     12  C   UNL     1      -0.518  -1.528  -1.157  0.00  0.00    +0.001 A 
ATOM     13  C   UNL     1      -0.573  -1.325  -2.609  0.00  0.00    +0.030 A 
ATOM     14  C   UNL     1      -0.694  -2.402  -3.419  0.00  0.00    +0.042 A 
ATOM     15  C   UNL     1      -0.768  -3.705  -2.906  0.00  0.00    +0.022 A 
ATOM     16  C   UNL     1      -0.724  -3.972  -1.583  0.00  0.00    +0.027 A 
ATOM     17  C   UNL     1      -0.598  -2.914  -0.641  0.00  0.00    +0.043 A 
ATOM     18  N   UNL     1      -0.535  -2.915   0.669  0.00  0.00    -0.370 N 
ATOM     19  C   UNL     1      -0.401  -1.529   1.132  0.00  0.00    +0.193 C 
ATOM     20 CL   UNL     1      -0.759  -2.165  -5.138  0.00  0.00    -0.084 Cl
ATOM     21  H   UNL     1      -0.567  -3.701   1.236  0.00  0.00    +0.161 HD
ENDBRANCH   6  19
ENDBRANCH   1   8
BRANCH   3  22
ATOM     22  C   UNL     1      -3.122   3.227   5.895  0.00  0.00    +0.324 C 
ATOM     23  O   UNL     1      -3.425   4.284   5.394  0.00  0.00    -0.249 OA
BRANCH  22  24
ATOM     24  O   UNL     1      -2.487   3.203   7.077  0.00  0.00    -0.467 OA
ATOM     25  C   UNL     1      -2.200   4.463   7.686  0.00  0.00    +0.280 C 
ENDBRANCH  22  24
ENDBRANCH   3  22
BRANCH   4  26
ATOM     26  C   UNL     1      -5.551   2.195   3.986  0.00  0.00    +0.123 C 
BRANCH  26  27
ATOM     27  C   UNL     1      -6.148   2.836   2.760  0.00  0.00    +0.005 A 
ATOM     28  C   UNL     1      -6.711   2.048   1.774  0.00  0.00    +0.046 A 
ATOM     29  C   UNL     1      -7.260   2.636   0.647  0.00  0.00    +0.124 A 
ATOM     30  C   UNL     1      -7.244   4.014   0.508  0.00  0.00    +0.041 A 
ATOM     31  C   UNL     1      -6.681   4.801   1.493  0.00  0.00    +0.041 A 
ATOM     32  C   UNL     1      -6.136   4.213   2.623  0.00  0.00    +0.128 A 
ATOM     33  F   UNL     1      -5.590   4.983   3.589  0.00  0.00    -0.205 F 
ATOM     34  F   UNL     1      -7.811   1.866  -0.317  0.00  0.00    -0.205 F 
ENDBRANCH  26  27
ENDBRANCH   4  26
TORSDOF 6
