REMARK  Name = ZINC35050940
REMARK  10 active torsions:
REMARK  status: ('A' for Active; 'I' for Inactive)
REMARK    1  A    between atoms: C_3  and  O_36
REMARK    2  A    between atoms: C_6  and  C_7
REMARK    3  A    between atoms: C_16  and  O_35
REMARK    4  A    between atoms: C_17  and  O_18
REMARK    5  A    between atoms: O_18  and  C_19
REMARK    6  A    between atoms: C_21  and  O_34
REMARK    7  A    between atoms: C_23  and  O_33
REMARK    8  A    between atoms: C_25  and  O_32
REMARK    9  A    between atoms: C_27  and  C_30
REMARK   10  A    between atoms: C_30  and  O_31
REMARK                            x       y       z     vdW  Elec       q    Type
REMARK                         _______ _______ _______ _____ _____    ______ ____
ROOT
ATOM      1  C   UNL     1      -1.271  -0.765   0.011  0.00  0.00    +0.064 A 
ATOM      2  C   UNL     1      -2.131  -0.698  -1.040  0.00  0.00    +0.208 A 
ATOM      3  O   UNL     1      -3.279  -1.379  -1.077  0.00  0.00    -0.458 OA
ATOM      4  C   UNL     1      -3.813  -1.931   0.030  0.00  0.00    +0.184 A 
ATOM      5  C   UNL     1      -3.036  -2.087   1.191  0.00  0.00    +0.068 A 
ATOM      6  C   UNL     1      -1.636  -1.619   1.157  0.00  0.00    +0.200 A 
ATOM      7  O   UNL     1      -0.832  -1.915   2.024  0.00  0.00    -0.286 OA
ATOM      8  C   UNL     1      -3.581  -2.668   2.336  0.00  0.00    +0.019 A 
ATOM      9  C   UNL     1      -4.884  -3.083   2.331  0.00  0.00    +0.050 A 
ATOM     10  C   UNL     1      -5.667  -2.929   1.191  0.00  0.00    +0.162 A 
ATOM     11  C   UNL     1      -5.138  -2.357   0.042  0.00  0.00    +0.208 A 
ENDROOT
BRANCH   1  17
ATOM     12  C   UNL     1      -0.017   1.390   0.010  0.00  0.00    +0.012 A 
ATOM     13  C   UNL     1       1.169   2.094   0.002  0.00  0.00    +0.046 A 
ATOM     14  C   UNL     1       2.380   1.416  -0.013  0.00  0.00    +0.117 A 
ATOM     15  C   UNL     1       2.403   0.029  -0.021  0.00  0.00    +0.046 A 
ATOM     16  C   UNL     1       1.220  -0.682  -0.013  0.00  0.00    +0.012 A 
ATOM     17  C   UNL     1       0.002  -0.004   0.002  0.00  0.00    -0.011 A 
BRANCH  14  18
ATOM     18  O   UNL     1       3.547   2.113  -0.022  0.00  0.00    -0.507 OA
ATOM     19  H   UNL     1       3.894   2.311   0.859  0.00  0.00    +0.292 HD
ENDBRANCH  14  18
ENDBRANCH   1  17
BRANCH  10  20
ATOM     20  O   UNL     1      -6.961  -3.343   1.203  0.00  0.00    -0.503 OA
ATOM     21  H   UNL     1      -7.588  -2.664   1.488  0.00  0.00    +0.292 HD
ENDBRANCH  10  20
BRANCH  11  22
ATOM     22  O   UNL     1      -5.913  -2.211  -1.067  0.00  0.00    -0.453 OA
BRANCH  22  23
ATOM     23  C   UNL     1      -5.917  -3.291  -2.002  0.00  0.00    +0.340 C 
ATOM     24  C   UNL     1      -6.632  -2.855  -3.283  0.00  0.00    +0.214 C 
ATOM     25  C   UNL     1      -6.686  -4.037  -4.256  0.00  0.00    +0.180 C 
ATOM     26  C   UNL     1      -7.385  -5.216  -3.573  0.00  0.00    +0.177 C 
ATOM     27  C   UNL     1      -6.641  -5.561  -2.280  0.00  0.00    +0.179 C 
ATOM     28  O   UNL     1      -6.601  -4.410  -1.434  0.00  0.00    -0.331 OA
BRANCH  26  29
ATOM     29  O   UNL     1      -8.735  -4.859  -3.268  0.00  0.00    -0.386 OA
ATOM     30  H   UNL     1      -9.264  -4.623  -4.042  0.00  0.00    +0.210 HD
ENDBRANCH  26  29
BRANCH  25  31
ATOM     31  O   UNL     1      -7.414  -3.659  -5.427  0.00  0.00    -0.386 OA
ATOM     32  H   UNL     1      -7.029  -2.913  -5.906  0.00  0.00    +0.210 HD
ENDBRANCH  25  31
BRANCH  24  33
ATOM     33  O   UNL     1      -7.961  -2.433  -2.969  0.00  0.00    -0.383 OA
ATOM     34  H   UNL     1      -8.002  -1.690  -2.352  0.00  0.00    +0.210 HD
ENDBRANCH  24  33
BRANCH  27  35
ATOM     35  C   UNL     1      -7.368  -6.699  -1.562  0.00  0.00    +0.190 C 
BRANCH  35  36
ATOM     36  O   UNL     1      -6.612  -7.099  -0.417  0.00  0.00    -0.392 OA
ATOM     37  H   UNL     1      -7.014  -7.819   0.088  0.00  0.00    +0.210 HD
ENDBRANCH  35  36
ENDBRANCH  27  35
ENDBRANCH  22  23
ENDBRANCH  11  22
TORSDOF 10
