REMARK  Name = ZINC01044551
REMARK  2 active torsions:
REMARK  status: ('A' for Active; 'I' for Inactive)
REMARK    1  A    between atoms: C_4  and  C_8
REMARK    2  A    between atoms: N_13  and  C_14
REMARK                            x       y       z     vdW  Elec       q    Type
REMARK                         _______ _______ _______ _____ _____    ______ ____
ROOT
ATOM      1  C   UNL     1      -0.024  -0.006   0.003  0.00  0.00    +0.257 C 
ATOM      2  O   UNL     1      -0.002  -0.619   1.052  0.00  0.00    -0.270 OA
ATOM      3  N   UNL     1      -0.018  -0.672  -1.168  0.00  0.00    -0.236 N 
ATOM      4  C   UNL     1       0.011  -2.020  -1.176  0.00  0.00    +0.310 C 
ATOM      5  O   UNL     1       0.033  -2.634  -0.127  0.00  0.00    -0.252 OA
ATOM      6  N   UNL     1       0.016  -2.687  -2.347  0.00  0.00    -0.267 N 
ATOM      7  H   UNL     1      -0.036  -0.183  -2.005  0.00  0.00    +0.159 HD
ATOM      8  H   UNL     1      -0.066  -2.201  -3.182  0.00  0.00    +0.156 HD
ENDROOT
BRANCH   1  12
ATOM      9  C   UNL     1      -0.116   4.241   0.028  0.00  0.00    +0.006 A 
ATOM     10  C   UNL     1       1.099   3.580   0.015  0.00  0.00    +0.039 A 
ATOM     11  C   UNL     1       1.138   2.199   0.007  0.00  0.00    +0.138 A 
ATOM     12  C   UNL     1      -0.056   1.469   0.012  0.00  0.00    +0.107 A 
ATOM     13  C   UNL     1      -1.280   2.146   0.020  0.00  0.00    +0.138 A 
ATOM     14  C   UNL     1      -1.301   3.528   0.033  0.00  0.00    +0.039 A 
ATOM     15  F   UNL     1      -2.439   1.451   0.020  0.00  0.00    -0.205 F 
ATOM     16  F   UNL     1       2.326   1.555  -0.006  0.00  0.00    -0.205 F 
ENDBRANCH   1  12
BRANCH   6  17
ATOM     17  C   UNL     1       0.141  -4.082  -2.358  0.00  0.00    +0.070 A 
ATOM     18  C   UNL     1      -0.430  -4.839  -1.345  0.00  0.00    +0.027 A 
ATOM     19  C   UNL     1      -0.306  -6.215  -1.358  0.00  0.00    +0.017 A 
ATOM     20  C   UNL     1       0.386  -6.840  -2.380  0.00  0.00    +0.021 A 
ATOM     21  C   UNL     1       0.957  -6.089  -3.392  0.00  0.00    +0.055 A 
ATOM     22  C   UNL     1       0.832  -4.712  -3.387  0.00  0.00    +0.146 A 
ATOM     23  F   UNL     1       1.385  -3.979  -4.378  0.00  0.00    -0.204 F 
ATOM     24 BR   UNL     1       0.552  -8.723  -2.393  0.00  0.00    -0.050 Br
ENDBRANCH   6  17
TORSDOF 2
