REMARK  Name = ZINC41652248
REMARK  3 active torsions:
REMARK  status: ('A' for Active; 'I' for Inactive)
REMARK    1  A    between atoms: C_1  and  C_2
REMARK    2  A    between atoms: C_9  and  C_12
REMARK    3  A    between atoms: C_16  and  N_18
REMARK                            x       y       z     vdW  Elec       q    Type
REMARK                         _______ _______ _______ _____ _____    ______ ____
ROOT
ATOM      1  C   UNL     1      -0.018   1.503   0.010  0.00  0.00    +0.045 C 
ATOM      2  C   UNL     1       0.002  -0.004   0.002  0.00  0.00    -0.029 A 
ATOM      3  C   UNL     1       0.006  -0.681  -1.199  0.00  0.00    +0.054 A 
ATOM      4  C   UNL     1       0.025  -2.070  -1.212  0.00  0.00    +0.168 A 
ATOM      5  C   UNL     1       0.041  -2.773   0.002  0.00  0.00    +0.050 A 
ATOM      6  C   UNL     1       0.037  -2.077   1.210  0.00  0.00    +0.034 A 
ATOM      7  C   UNL     1       0.023  -0.699   1.204  0.00  0.00    +0.045 A 
ATOM      8 CL   UNL     1       0.025   0.173   2.705  0.00  0.00    -0.083 Cl
ATOM      9  C   UNL     1       0.058  -4.204  -0.346  0.00  0.00    +0.121 A 
ATOM     10  N   UNL     1       0.053  -4.284  -1.649  0.00  0.00    -0.077 NA
ATOM     11  O   UNL     1       0.032  -2.984  -2.204  0.00  0.00    -0.354 OA
ENDROOT
BRANCH   9  12
ATOM     12  C   UNL     1       0.079  -5.341   0.605  0.00  0.00    +0.006 A 
ATOM     13  C   UNL     1       0.771  -5.231   1.811  0.00  0.00    +0.012 A 
ATOM     14  C   UNL     1       0.790  -6.290   2.696  0.00  0.00    +0.022 A 
ATOM     15  C   UNL     1       0.123  -7.463   2.391  0.00  0.00    +0.062 A 
ATOM     16  C   UNL     1      -0.570  -7.581   1.191  0.00  0.00    +0.044 A 
ATOM     17  C   UNL     1      -0.598  -6.519   0.300  0.00  0.00    +0.034 A 
ATOM     18 CL   UNL     1       0.152  -8.791   3.509  0.00  0.00    -0.082 Cl
BRANCH  16  19
ATOM     19  N   UNL     1      -1.243  -8.768   0.886  0.00  0.00    -0.357 N 
ATOM     20  H   UNL     1      -1.226  -9.509   1.511  0.00  0.00    +0.142 HD
ATOM     21  H   UNL     1      -1.727  -8.850   0.049  0.00  0.00    +0.142 HD
ENDBRANCH  16  19
ENDBRANCH   9  12
TORSDOF 2
