REMARK  Name = ZINC37580357
REMARK  7 active torsions:
REMARK  status: ('A' for Active; 'I' for Inactive)
REMARK    1  A    between atoms: C_1  and  C_2
REMARK    2  A    between atoms: C_5  and  S_12
REMARK    3  A    between atoms: C_6  and  C_8
REMARK    4  A    between atoms: C_9  and  C_10
REMARK    5  A    between atoms: C_10  and  N_11
REMARK    6  A    between atoms: S_12  and  N_15
REMARK    7  A    between atoms: N_15  and  C_16
REMARK                            x       y       z     vdW  Elec       q    Type
REMARK                         _______ _______ _______ _____ _____    ______ ____
ROOT
ATOM      1  C   UNL     1      -0.018   1.503   0.010  0.00  0.00    +0.044 C 
ATOM      2  C   UNL     1       0.002  -0.004   0.002  0.00  0.00    -0.049 A 
ATOM      3  C   UNL     1       0.006  -0.688  -1.201  0.00  0.00    +0.005 A 
ATOM      4  C   UNL     1       0.025  -2.071  -1.217  0.00  0.00    +0.030 A 
ATOM      5  C   UNL     1       0.040  -2.778  -0.032  0.00  0.00    +0.126 A 
ATOM      6  C   UNL     1       0.037  -2.094   1.184  0.00  0.00    +0.052 A 
ATOM      7  C   UNL     1       0.023  -0.699   1.194  0.00  0.00    +0.022 A 
ENDROOT
BRANCH   5   8
ATOM      8  S   UNL     1       0.063  -4.539  -0.055  0.00  0.00    +0.095 S 
ATOM      9  O   UNL     1      -0.952  -4.971   0.841  0.00  0.00    -0.148 OA
ATOM     10  O   UNL     1       0.088  -4.927  -1.422  0.00  0.00    -0.148 OA
BRANCH   8  11
ATOM     11  N   UNL     1       1.507  -5.018   0.600  0.00  0.00    -0.070 NA
BRANCH  11  12
ATOM     12  C   UNL     1       1.804  -6.368   0.711  0.00  0.00    +0.201 A 
ATOM     13  N   UNL     1       1.071  -7.399   0.348  0.00  0.00    -0.231 NA
ATOM     14  C   UNL     1       1.501  -8.636   0.522  0.00  0.00    +0.120 A 
ATOM     15  C   UNL     1       2.722  -8.790   1.088  0.00  0.00    +0.068 A 
ATOM     16  S   UNL     1       3.192  -7.085   1.335  0.00  0.00    -0.058 S 
ENDBRANCH  11  12
ENDBRANCH   8  11
ENDBRANCH   5   8
BRANCH   6  17
ATOM     17  C   UNL     1       0.052  -2.821   2.418  0.00  0.00    -0.066 C 
ATOM     18  C   UNL     1       0.065  -3.418   3.429  0.00  0.00    -0.117 C 
BRANCH  18  19
ATOM     19  C   UNL     1       0.081  -4.165   4.697  0.00  0.00    +0.005 C 
BRANCH  19  20
ATOM     20  N   UNL     1       0.074  -3.221   5.822  0.00  0.00    +0.385 N 
ATOM     21  H   UNL     1       0.890  -2.630   5.770  0.00  0.00    -0.089 HD
ATOM     22  H   UNL     1      -0.757  -2.651   5.778  0.00  0.00    -0.089 HD
ATOM     23  H   UNL     1       0.085  -3.733   6.691  0.00  0.00    -0.089 HD
ENDBRANCH  19  20
ENDBRANCH  18  19
ENDBRANCH   6  17
TORSDOF 6
