REMARK  Name = ZINC10041708
REMARK  10 active torsions:
REMARK  status: ('A' for Active; 'I' for Inactive)
REMARK    1  A    between atoms: C_1  and  O_2
REMARK    2  A    between atoms: O_2  and  C_3
REMARK    3  A    between atoms: C_8  and  C_9
REMARK    4  A    between atoms: C_10  and  C_11
REMARK    5  A    between atoms: N_13  and  C_14
REMARK    6  A    between atoms: C_14  and  N_16
REMARK    7  A    between atoms: N_16  and  N_17
REMARK    8  A    between atoms: C_18  and  C_20
REMARK    9  A    between atoms: C_23  and  O_27
REMARK   10  A    between atoms: O_27  and  C_28
REMARK                            x       y       z     vdW  Elec       q    Type
REMARK                         _______ _______ _______ _____ _____    ______ ____
ROOT
ATOM      1  C   UNL     1       3.577   1.855  -0.022  0.00  0.00    +0.153 C 
ATOM      2  S   UNL     1       3.554   3.567  -0.013  0.00  0.00    -0.017 S 
ENDROOT
BRANCH   1   5
ATOM      3  C   UNL     1       1.243   1.823   0.000  0.00  0.00    +0.242 C 
ATOM      4  O   UNL     1       1.226   3.040   0.007  0.00  0.00    -0.270 OA
ATOM      5  N   UNL     1       2.419   1.166  -0.015  0.00  0.00    -0.263 N 
ATOM      6  H   UNL     1       2.432   0.196  -0.020  0.00  0.00    +0.157 HD
BRANCH   3   8
ATOM      7  C   UNL     1      -1.192   1.735   0.017  0.00  0.00    +0.016 C 
ATOM      8  C   UNL     1      -0.013   1.076   0.008  0.00  0.00    +0.068 C 
BRANCH   7  14
ATOM      9  C   UNL     1      -3.682   1.664   0.034  0.00  0.00    +0.127 A 
ATOM     10  C   UNL     1      -4.866   0.944   0.030  0.00  0.00    +0.046 A 
ATOM     11  C   UNL     1      -4.837  -0.437   0.022  0.00  0.00    +0.004 A 
ATOM     12  C   UNL     1      -3.627  -1.114   0.013  0.00  0.00    +0.001 A 
ATOM     13  C   UNL     1      -2.440  -0.416   0.011  0.00  0.00    +0.011 A 
ATOM     14  C   UNL     1      -2.454   0.984   0.019  0.00  0.00    +0.017 A 
BRANCH   9  16
ATOM     15  C   UNL     1      -4.995   3.644   0.063  0.00  0.00    +0.277 C 
ATOM     16  O   UNL     1      -3.709   3.021   0.048  0.00  0.00    -0.495 OA
ENDBRANCH   9  16
ENDBRANCH   7  14
ENDBRANCH   3   8
ENDBRANCH   1   5
BRANCH   1  17
ATOM     17  N   UNL     1       4.753   1.197  -0.037  0.00  0.00    -0.245 N 
ATOM     18  H   UNL     1       5.586   1.694  -0.042  0.00  0.00    +0.172 HD
BRANCH  17  19
ATOM     19  N   UNL     1       4.772  -0.203  -0.045  0.00  0.00    -0.231 N 
ATOM     20  C   UNL     1       5.948  -0.861  -0.059  0.00  0.00    +0.260 C 
ATOM     21  O   UNL     1       6.993  -0.239  -0.066  0.00  0.00    -0.269 OA
ATOM     22  H   UNL     1       3.939  -0.700  -0.039  0.00  0.00    +0.173 HD
BRANCH  20  23
ATOM     23  C   UNL     1       5.968  -2.337  -0.068  0.00  0.00    +0.039 A 
ATOM     24  C   UNL     1       4.769  -3.054  -0.054  0.00  0.00    +0.017 A 
ATOM     25  C   UNL     1       4.791  -4.431  -0.068  0.00  0.00    +0.047 A 
ATOM     26  C   UNL     1       6.005  -5.108  -0.083  0.00  0.00    +0.134 A 
ATOM     27  C   UNL     1       7.201  -4.399  -0.090  0.00  0.00    +0.060 A 
ATOM     28  C   UNL     1       7.186  -3.021  -0.083  0.00  0.00    +0.032 A 
ATOM     29 BR   UNL     1       8.849  -5.326  -0.111  0.00  0.00    -0.046 Br
BRANCH  26  30
ATOM     30  O   UNL     1       6.022  -6.465  -0.092  0.00  0.00    -0.494 OA
ATOM     31  C   UNL     1       4.758  -7.131  -0.084  0.00  0.00    +0.277 C 
ENDBRANCH  26  30
ENDBRANCH  20  23
ENDBRANCH  17  19
ENDBRANCH   1  17
TORSDOF 8
