REMARK  Name = ZINC35990255
REMARK  5 active torsions:
REMARK  status: ('A' for Active; 'I' for Inactive)
REMARK    1  A    between atoms: C_1  and  C_2
REMARK    2  A    between atoms: C_6  and  C_24
REMARK    3  A    between atoms: C_8  and  N_9
REMARK    4  A    between atoms: C_15  and  C_17
REMARK    5  A    between atoms: N_25  and  C_27
REMARK                            x       y       z     vdW  Elec       q    Type
REMARK                         _______ _______ _______ _____ _____    ______ ____
ROOT
ATOM      1  C   UNL     1       0.273   2.209   0.218  0.00  0.00    +0.068 C 
ATOM      2  C   UNL     1       0.282   0.713   0.402  0.00  0.00    +0.073 A 
ATOM      3  C   UNL     1       0.074  -0.244  -0.616  0.00  0.00    +0.082 A 
ATOM      4  C   UNL     1       0.168  -1.514  -0.013  0.00  0.00    +0.169 A 
ATOM      5  N   UNL     1       0.006  -2.597  -0.770  0.00  0.00    -0.213 NA
ATOM      6  C   UNL     1      -0.236  -2.486  -2.058  0.00  0.00    +0.130 A 
ATOM      7  N   UNL     1      -0.333  -1.317  -2.667  0.00  0.00    -0.217 NA
ATOM      8  C   UNL     1      -0.186  -0.179  -1.998  0.00  0.00    +0.136 A 
ATOM      9  C   UNL     1      -0.411  -3.742  -2.872  0.00  0.00    +0.088 C 
ATOM     10  N   UNL     1       0.422  -1.298   1.311  0.00  0.00    -0.212 N 
ATOM     11  N   UNL     1       0.490   0.085   1.524  0.00  0.00    -0.169 NA
ENDROOT
BRANCH   8  12
ATOM     12  N   UNL     1      -0.288   1.038  -2.642  0.00  0.00    -0.312 N 
ATOM     13  C   UNL     1       0.913   1.730  -3.129  0.00  0.00    +0.125 C 
ATOM     14  C   UNL     1       0.742   2.016  -4.626  0.00  0.00    +0.127 C 
ATOM     15  N   UNL     1      -0.571   2.642  -4.838  0.00  0.00    -0.295 N 
ATOM     16  C   UNL     1      -1.773   1.950  -4.351  0.00  0.00    +0.127 C 
ATOM     17  C   UNL     1      -1.602   1.662  -2.858  0.00  0.00    +0.125 C 
ATOM     18  C   UNL     1      -0.671   3.830  -5.466  0.00  0.00    +0.247 C 
ATOM     19  O   UNL     1      -1.749   4.386  -5.548  0.00  0.00    -0.270 OA
BRANCH  18  20
ATOM     20  C   UNL     1       0.530   4.457  -6.057  0.00  0.00    +0.037 A 
ATOM     21  C   UNL     1       1.538   3.661  -6.604  0.00  0.00    +0.016 A 
ATOM     22  C   UNL     1       2.656   4.250  -7.153  0.00  0.00    +0.039 A 
ATOM     23  C   UNL     1       2.781   5.631  -7.163  0.00  0.00    +0.123 A 
ATOM     24  C   UNL     1       1.782   6.426  -6.621  0.00  0.00    +0.039 A 
ATOM     25  C   UNL     1       0.657   5.847  -6.075  0.00  0.00    +0.016 A 
ATOM     26  F   UNL     1       3.879   6.204  -7.702  0.00  0.00    -0.205 F 
ENDBRANCH  18  20
ENDBRANCH   8  12
BRANCH  10  27
ATOM     27  C   UNL     1       0.590  -2.288   2.288  0.00  0.00    +0.086 A 
ATOM     28  C   UNL     1       0.507  -3.630   1.939  0.00  0.00    +0.029 A 
ATOM     29  C   UNL     1       0.673  -4.604   2.904  0.00  0.00    +0.002 A 
ATOM     30  C   UNL     1       0.922  -4.246   4.216  0.00  0.00    +0.002 A 
ATOM     31  C   UNL     1       1.005  -2.911   4.567  0.00  0.00    +0.022 A 
ATOM     32  C   UNL     1       0.845  -1.931   3.606  0.00  0.00    +0.066 A 
ATOM     33 CL   UNL     1       0.957  -0.255   4.046  0.00  0.00    -0.081 Cl
ENDBRANCH  10  27
TORSDOF 3
