REMARK  Name = ZINC39965416
REMARK  12 active torsions:
REMARK  status: ('A' for Active; 'I' for Inactive)
REMARK    1  A    between atoms: C_1  and  C_2
REMARK    2  A    between atoms: C_2  and  C_3
REMARK    3  A    between atoms: C_3  and  C_4
REMARK    4  A    between atoms: C_3  and  C_5
REMARK    5  A    between atoms: C_3  and  C_6
REMARK    6  A    between atoms: C_13  and  N_17
REMARK    7  A    between atoms: C_14  and  C_15
REMARK    8  A    between atoms: C_18  and  C_20
REMARK    9  A    between atoms: C_20  and  S_21
REMARK   10  A    between atoms: S_21  and  C_22
REMARK   11  A    between atoms: C_25  and  C_28
REMARK   12  A    between atoms: N_26  and  C_27
REMARK                            x       y       z     vdW  Elec       q    Type
REMARK                         _______ _______ _______ _____ _____    ______ ____
ROOT
ATOM      1  N   UNL     1       2.549  -7.785  -0.678  0.00  0.00    -0.278 N 
ATOM      2  C   UNL     1       2.753  -8.082  -1.977  0.00  0.00    +0.228 C 
ATOM      3  O   UNL     1       2.560  -7.241  -2.829  0.00  0.00    -0.275 OA
ATOM      4  H   UNL     1       2.703  -8.458   0.003  0.00  0.00    +0.155 HD
ENDROOT
BRANCH   1  11
ATOM      5  C   UNL     1       0.203  -2.097   0.961  0.00  0.00    -0.000 C 
ATOM      6  C   UNL     1       1.094  -2.453   2.155  0.00  0.00    +0.009 C 
ATOM      7  C   UNL     1       1.079  -3.966   2.383  0.00  0.00    +0.037 C 
ATOM      8  C   UNL     1       1.411  -4.660   1.071  0.00  0.00    -0.018 A 
ATOM      9  C   UNL     1       1.307  -4.014  -0.111  0.00  0.00    -0.004 A 
ATOM     10  S   UNL     1       1.790  -5.212  -1.320  0.00  0.00    -0.077 S 
ATOM     11  C   UNL     1       2.117  -6.517  -0.316  0.00  0.00    +0.090 A 
ATOM     12  C   UNL     1       1.857  -6.038   0.958  0.00  0.00    +0.084 A 
ATOM     13  C   UNL     1       0.871  -2.598  -0.328  0.00  0.00    +0.047 C 
BRANCH   5  14
ATOM     14  C   UNL     1       0.024  -0.579   0.889  0.00  0.00    -0.032 C 
ATOM     15  C   UNL     1       1.391   0.088   0.727  0.00  0.00    +0.011 C 
ATOM     16  C   UNL     1      -0.636  -0.082   2.177  0.00  0.00    +0.011 C 
BRANCH  14  18
ATOM     17  C   UNL     1      -1.040   1.292  -0.379  0.00  0.00    +0.004 C 
ATOM     18  C   UNL     1      -0.862  -0.226  -0.307  0.00  0.00    +0.003 C 
ENDBRANCH  14  18
ENDBRANCH   5  14
BRANCH  12  19
ATOM     19  C   UNL     1       2.020  -6.866   2.114  0.00  0.00    +0.102 C 
ATOM     20  N   UNL     1       2.150  -7.523   3.032  0.00  0.00    -0.191 NA
ENDBRANCH  12  19
ENDBRANCH   1  11
BRANCH   2  21
ATOM     21  C   UNL     1       3.222  -9.459  -2.370  0.00  0.00    +0.173 C 
BRANCH  21  22
ATOM     22  S   UNL     1       3.402  -9.544  -4.173  0.00  0.00    -0.077 S 
BRANCH  22  23
ATOM     23  C   UNL     1       3.949 -11.193  -4.469  0.00  0.00    +0.192 A 
ATOM     24  N   UNL     1       4.158 -12.120  -3.562  0.00  0.00    -0.122 NA
ATOM     25  N   UNL     1       4.551 -13.207  -4.123  0.00  0.00    -0.128 NA
ATOM     26  C   UNL     1       4.617 -13.041  -5.424  0.00  0.00    +0.165 A 
ATOM     27  N   UNL     1       4.228 -11.748  -5.686  0.00  0.00    -0.305 N 
ATOM     28  C   UNL     1       4.135 -11.101  -6.997  0.00  0.00    +0.153 C 
BRANCH  26  29
ATOM     29  C   UNL     1       5.027 -14.055  -6.419  0.00  0.00    +0.023 A 
ATOM     30  C   UNL     1       5.025 -15.409  -6.080  0.00  0.00    +0.015 A 
ATOM     31  C   UNL     1       5.407 -16.353  -7.010  0.00  0.00    +0.050 A 
ATOM     32  C   UNL     1       5.794 -15.962  -8.283  0.00  0.00    +0.166 A 
ATOM     33  C   UNL     1       5.799 -14.611  -8.628  0.00  0.00    +0.167 A 
ATOM     34  C   UNL     1       5.412 -13.660  -7.701  0.00  0.00    +0.061 A 
ATOM     35  O   UNL     1       6.215 -14.493  -9.923  0.00  0.00    -0.453 OA
ATOM     36  C   UNL     1       6.855 -15.744 -10.237  0.00  0.00    +0.466 C 
ATOM     37  O   UNL     1       6.207 -16.688  -9.363  0.00  0.00    -0.453 OA
ENDBRANCH  26  29
ENDBRANCH  22  23
ENDBRANCH  21  22
ENDBRANCH   2  21
TORSDOF 8
