REMARK  Name = ZINC09079468
REMARK  10 active torsions:
REMARK  status: ('A' for Active; 'I' for Inactive)
REMARK    1  A    between atoms: C_1  and  N_2
REMARK    2  A    between atoms: N_2  and  C_3
REMARK    3  A    between atoms: N_2  and  C_4
REMARK    4  A    between atoms: C_7  and  C_10
REMARK    5  A    between atoms: C_10  and  C_12
REMARK    6  A    between atoms: C_10  and  S_22
REMARK    7  A    between atoms: C_12  and  N_13
REMARK    8  A    between atoms: N_13  and  S_14
REMARK    9  A    between atoms: S_14  and  C_17
REMARK   10  A    between atoms: S_22  and  C_25
REMARK                            x       y       z     vdW  Elec       q    Type
REMARK                         _______ _______ _______ _____ _____    ______ ____
ROOT
ATOM      1  C   UNL     1      -0.013   1.086   0.008  0.00  0.00    +0.182 C 
ENDROOT
BRANCH   1   5
ATOM      2  C   UNL     1       3.997   2.565  -0.022  0.00  0.00    +0.029 A 
ATOM      3  C   UNL     1       3.760   1.196  -0.027  0.00  0.00    +0.023 A 
ATOM      4  C   UNL     1       2.463   0.722  -0.018  0.00  0.00    +0.007 A 
ATOM      5  C   UNL     1       1.401   1.607  -0.003  0.00  0.00    -0.022 A 
ATOM      6  C   UNL     1       1.633   2.971  -0.003  0.00  0.00    +0.007 A 
ATOM      7  C   UNL     1       2.928   3.452  -0.007  0.00  0.00    +0.023 A 
BRANCH   2   9
ATOM      8  C   UNL     1       6.434   2.112  -0.049  0.00  0.00    +0.129 C 
ATOM      9  N   UNL     1       5.307   3.049  -0.033  0.00  0.00    -0.336 N 
ATOM     10  C   UNL     1       5.556   4.492  -0.027  0.00  0.00    +0.129 C 
ENDBRANCH   2   9
ENDBRANCH   1   5
BRANCH   1  11
ATOM     11  S   UNL     1      -0.862   1.671   1.500  0.00  0.00    +0.011 S 
ATOM     12  O   UNL     1      -2.242   1.339   1.440  0.00  0.00    -0.168 OA
ATOM     13  O   UNL     1      -0.092   1.362   2.654  0.00  0.00    -0.168 OA
BRANCH  11  14
ATOM     14  C   UNL     1      -0.816   3.429   1.388  0.00  0.00    +0.126 A 
ATOM     15  C   UNL     1      -1.711   4.271   0.815  0.00  0.00    +0.035 A 
ATOM     16  C   UNL     1      -1.467   5.631   0.847  0.00  0.00    +0.009 A 
ATOM     17  C   UNL     1      -0.340   6.082   1.450  0.00  0.00    +0.047 A 
ATOM     18  S   UNL     1       0.416   4.563   2.005  0.00  0.00    -0.078 S 
ENDBRANCH  11  14
ENDBRANCH   1  11
BRANCH   1  19
ATOM     19  C   UNL     1      -0.753   1.593  -1.232  0.00  0.00    +0.137 C 
BRANCH  19  20
ATOM     20  N   UNL     1      -2.127   1.086  -1.221  0.00  0.00    -0.187 NA
ATOM     21  H   UNL     1      -2.371   0.357  -0.629  0.00  0.00    +0.148 HD
BRANCH  20  22
ATOM     22  S   UNL     1      -3.264   1.756  -2.221  0.00  0.00    +0.065 S 
ATOM     23  O   UNL     1      -4.472   1.040  -2.000  0.00  0.00    -0.153 OA
ATOM     24  O   UNL     1      -3.172   3.164  -2.054  0.00  0.00    -0.153 OA
BRANCH  22  25
ATOM     25  C   UNL     1      -2.771   1.411  -3.877  0.00  0.00    +0.142 A 
ATOM     26  C   UNL     1      -3.077   0.343  -4.654  0.00  0.00    +0.036 A 
ATOM     27  C   UNL     1      -2.574   0.284  -5.940  0.00  0.00    +0.010 A 
ATOM     28  C   UNL     1      -1.781   1.291  -6.383  0.00  0.00    +0.047 A 
ATOM     29  S   UNL     1      -1.732   2.373  -4.964  0.00  0.00    -0.077 S 
ENDBRANCH  22  25
ENDBRANCH  20  22
ENDBRANCH  19  20
ENDBRANCH   1  19
TORSDOF 8
