REMARK  Name = ZINC44943463
REMARK  3 active torsions:
REMARK  status: ('A' for Active; 'I' for Inactive)
REMARK    1  A    between atoms: C_13  and  C_15
REMARK    2  A    between atoms: C_21  and  C_23
REMARK    3  A    between atoms: N_25  and  C_26
REMARK                            x       y       z     vdW  Elec       q    Type
REMARK                         _______ _______ _______ _____ _____    ______ ____
ROOT
ATOM      1  C   UNL     1      -0.012  -6.652   1.139  0.00  0.00    +0.091 C 
ATOM      2  C   UNL     1      -0.773  -6.404  -0.165  0.00  0.00    +0.040 C 
ATOM      3  C   UNL     1      -1.923  -7.362  -0.282  0.00  0.00    -0.030 C 
ATOM      4  C   UNL     1      -2.036  -8.448   0.413  0.00  0.00    -0.030 C 
ATOM      5  C   UNL     1      -1.038  -8.896   1.441  0.00  0.00    +0.040 C 
ATOM      6  C   UNL     1       0.285  -8.152   1.255  0.00  0.00    +0.091 C 
ENDROOT
BRANCH   1  19
ATOM      7  C   UNL     1       0.449   0.777   4.349  0.00  0.00    +0.005 A 
ATOM      8  C   UNL     1       1.672   1.434   4.366  0.00  0.00    +0.018 A 
ATOM      9  C   UNL     1       2.816   0.744   4.018  0.00  0.00    +0.084 A 
ATOM     10  N   UNL     1       2.759  -0.528   3.669  0.00  0.00    -0.350 N 
ATOM     11  C   UNL     1       1.612  -1.189   3.639  0.00  0.00    +0.099 A 
ATOM     12  C   UNL     1       0.421  -0.555   3.979  0.00  0.00    +0.042 A 
ATOM     13  N   UNL     1       1.598  -2.528   3.266  0.00  0.00    -0.314 N 
ATOM     14  C   UNL     1       0.361  -3.316   3.352  0.00  0.00    +0.125 C 
ATOM     15  C   UNL     1       0.072  -3.928   1.976  0.00  0.00    +0.126 C 
ATOM     16  N   UNL     1       1.295  -4.581   1.487  0.00  0.00    -0.298 N 
ATOM     17  C   UNL     1       2.533  -3.793   1.401  0.00  0.00    +0.126 C 
ATOM     18  C   UNL     1       2.820  -3.179   2.772  0.00  0.00    +0.125 C 
ATOM     19  C   UNL     1       1.282  -5.879   1.125  0.00  0.00    +0.220 C 
ATOM     20  O   UNL     1       2.311  -6.425   0.787  0.00  0.00    -0.275 OA
ATOM     21  H   UNL     1       3.577  -0.990   3.429  0.00  0.00    +0.166 HD
ENDBRANCH   1  19
BRANCH   6  22
ATOM     22  C   UNL     1       1.181  -8.401   2.441  0.00  0.00    +0.221 C 
ATOM     23  O   UNL     1       1.549  -7.471   3.129  0.00  0.00    -0.275 OA
ATOM     24  N   UNL     1       1.574  -9.655   2.738  0.00  0.00    -0.285 N 
ATOM     25  H   UNL     1       1.225 -10.405   2.232  0.00  0.00    +0.155 HD
BRANCH  24  26
ATOM     26  C   UNL     1       2.486  -9.876   3.776  0.00  0.00    +0.033 A 
ATOM     27  C   UNL     1       3.435 -10.884   3.666  0.00  0.00    +0.025 A 
ATOM     28  C   UNL     1       4.334 -11.099   4.692  0.00  0.00    +0.022 A 
ATOM     29  C   UNL     1       4.289 -10.312   5.830  0.00  0.00    +0.041 A 
ATOM     30  C   UNL     1       3.345  -9.307   5.942  0.00  0.00    +0.022 A 
ATOM     31  C   UNL     1       2.447  -9.084   4.916  0.00  0.00    +0.025 A 
ATOM     32 CL   UNL     1       5.420 -10.586   7.118  0.00  0.00    -0.084 Cl
ENDBRANCH  24  26
ENDBRANCH   6  22
TORSDOF 3
