REMARK  Name = ZINC59020812
REMARK  7 active torsions:
REMARK  status: ('A' for Active; 'I' for Inactive)
REMARK    1  A    between atoms: C_1  and  C_2
REMARK    2  A    between atoms: C_3  and  C_15
REMARK    3  A    between atoms: C_4  and  C_14
REMARK    4  A    between atoms: C_8  and  C_11
REMARK    5  A    between atoms: C_15  and  C_16
REMARK    6  A    between atoms: C_16  and  C_17
REMARK    7  A    between atoms: N_19  and  C_20
REMARK                            x       y       z     vdW  Elec       q    Type
REMARK                         _______ _______ _______ _____ _____    ______ ____
ROOT
ATOM      1  C   UNL     1      -0.019   1.463   0.009  0.00  0.00    +0.066 C 
ATOM      2  C   UNL     1      -0.011  -0.044   0.002  0.00  0.00    +0.045 A 
ATOM      3  C   UNL     1      -1.219  -0.750   0.005  0.00  0.00    -0.005 A 
ATOM      4  C   UNL     1      -1.198  -2.107  -0.001  0.00  0.00    +0.047 A 
ATOM      5  N   UNL     1       0.003  -2.752  -0.010  0.00  0.00    -0.218 N 
ATOM      6  C   UNL     1       1.161  -2.027  -0.012  0.00  0.00    +0.168 A 
ATOM      7  N   UNL     1       1.133  -0.694  -0.012  0.00  0.00    -0.232 NA
ATOM      8  C   UNL     1       2.220  -2.956  -0.022  0.00  0.00    +0.100 A 
ATOM      9  C   UNL     1       1.641  -4.237  -0.025  0.00  0.00    +0.150 A 
ATOM     10  N   UNL     1       0.340  -4.110  -0.018  0.00  0.00    -0.172 NA
ATOM     11  C   UNL     1      -2.485  -2.891   0.003  0.00  0.00    +0.066 C 
ENDROOT
BRANCH   8  12
ATOM     12  C   UNL     1       3.653  -2.645  -0.028  0.00  0.00    +0.247 C 
ATOM     13  O   UNL     1       4.024  -1.486  -0.024  0.00  0.00    -0.270 OA
ATOM     14  N   UNL     1       4.558  -3.643  -0.036  0.00  0.00    -0.325 N 
ATOM     15  H   UNL     1       4.262  -4.567  -0.039  0.00  0.00    +0.145 HD
ATOM     16  H   UNL     1       5.506  -3.438  -0.040  0.00  0.00    +0.145 HD
ENDBRANCH   8  12
BRANCH   3  17
ATOM     17  C   UNL     1      -2.532  -0.010   0.016  0.00  0.00    +0.048 C 
BRANCH  17  18
ATOM     18  C   UNL     1      -2.907   0.343   1.456  0.00  0.00    +0.101 C 
BRANCH  18  19
ATOM     19  C   UNL     1      -4.220   1.083   1.467  0.00  0.00    +0.218 C 
ATOM     20  O   UNL     1      -4.799   1.306   0.424  0.00  0.00    -0.275 OA
ATOM     21  N   UNL     1      -4.751   1.497   2.634  0.00  0.00    -0.284 N 
ATOM     22  H   UNL     1      -4.322   1.263   3.472  0.00  0.00    +0.155 HD
BRANCH  21  23
ATOM     23  C   UNL     1      -5.922   2.265   2.638  0.00  0.00    +0.052 A 
ATOM     24  C   UNL     1      -6.905   2.038   1.684  0.00  0.00    +0.026 A 
ATOM     25  C   UNL     1      -8.059   2.797   1.690  0.00  0.00    +0.017 A 
ATOM     26  C   UNL     1      -8.236   3.784   2.644  0.00  0.00    +0.019 A 
ATOM     27  C   UNL     1      -7.258   4.013   3.595  0.00  0.00    +0.037 A 
ATOM     28  C   UNL     1      -6.104   3.252   3.598  0.00  0.00    +0.063 A 
ATOM     29 CL   UNL     1      -4.880   3.535   4.797  0.00  0.00    -0.082 Cl
ATOM     30 BR   UNL     1      -9.817   4.821   2.647  0.00  0.00    -0.050 Br
ENDBRANCH  21  23
ENDBRANCH  18  19
ENDBRANCH  17  18
ENDBRANCH   3  17
TORSDOF 5
