REMARK  Name = ZINC18128541
REMARK  6 active torsions:
REMARK  status: ('A' for Active; 'I' for Inactive)
REMARK    1  A    between atoms: C_1  and  C_2
REMARK    2  A    between atoms: C_2  and  O_3
REMARK    3  A    between atoms: O_3  and  C_4
REMARK    4  A    between atoms: C_7  and  N_10
REMARK    5  A    between atoms: C_14  and  N_18
REMARK    6  A    between atoms: N_18  and  C_19
REMARK                            x       y       z     vdW  Elec       q    Type
REMARK                         _______ _______ _______ _____ _____    ______ ____
ROOT
ATOM      1  N   UNL     1      -1.980  -6.032   0.100  0.00  0.00    -0.209 N 
ATOM      2  C   UNL     1      -1.002  -6.946   0.148  0.00  0.00    +0.228 C 
ATOM      3  O   UNL     1       0.185  -6.703   0.166  0.00  0.00    -0.275 OA
ATOM      4  C   UNL     1      -1.615  -8.329   0.175  0.00  0.00    +0.125 C 
ATOM      5  C   UNL     1      -3.131  -8.054   0.134  0.00  0.00    +0.150 C 
ATOM      6  C   UNL     1      -3.217  -6.544   0.094  0.00  0.00    +0.244 C 
ATOM      7  O   UNL     1      -4.243  -5.899   0.059  0.00  0.00    -0.273 OA
ENDROOT
BRANCH   1  11
ATOM      8  C   UNL     1      -1.232  -1.929  -0.003  0.00  0.00    +0.121 A 
ATOM      9  C   UNL     1      -1.817  -2.500   1.118  0.00  0.00    +0.047 A 
ATOM     10  C   UNL     1      -2.065  -3.858   1.153  0.00  0.00    +0.027 A 
ATOM     11  C   UNL     1      -1.729  -4.652   0.065  0.00  0.00    +0.044 A 
ATOM     12  C   UNL     1      -1.143  -4.081  -1.056  0.00  0.00    +0.027 A 
ATOM     13  C   UNL     1      -0.900  -2.722  -1.092  0.00  0.00    +0.047 A 
BRANCH   8  14
ATOM     14  O   UNL     1      -0.989  -0.592  -0.037  0.00  0.00    -0.492 OA
BRANCH  14  16
ATOM     15  C   UNL     1      -1.008   1.637   0.897  0.00  0.00    +0.048 C 
ATOM     16  C   UNL     1      -1.355   0.163   1.119  0.00  0.00    +0.225 C 
ENDBRANCH  14  16
ENDBRANCH   8  14
ENDBRANCH   1  11
BRANCH   5  17
ATOM     17  N   UNL     1      -3.732  -8.646  -1.069  0.00  0.00    -0.302 NA
ATOM     18  H   UNL     1      -4.551  -8.131  -1.355  0.00  0.00    +0.123 HD
BRANCH  17  19
ATOM     19  C   UNL     1      -4.051 -10.064  -0.855  0.00  0.00    +0.057 C 
ATOM     20  C   UNL     1      -5.424 -10.184  -0.192  0.00  0.00    +0.037 C 
ATOM     21  C   UNL     1      -5.738 -11.662   0.061  0.00  0.00    +0.108 C 
ATOM     22  N   UNL     1      -5.614 -12.395  -1.206  0.00  0.00    -0.314 N 
ATOM     23  C   UNL     1      -4.365 -12.276  -1.972  0.00  0.00    +0.108 C 
ATOM     24  C   UNL     1      -4.067 -10.791  -2.202  0.00  0.00    +0.037 C 
ATOM     25  C   UNL     1      -6.659 -13.187  -1.672  0.00  0.00    +0.140 A 
ATOM     26  C   UNL     1      -6.681 -14.546  -1.371  0.00  0.00    +0.082 A 
ATOM     27  C   UNL     1      -7.726 -15.322  -1.841  0.00  0.00    +0.045 A 
ATOM     28  C   UNL     1      -8.717 -14.710  -2.599  0.00  0.00    +0.061 A 
ATOM     29  C   UNL     1      -8.631 -13.356  -2.859  0.00  0.00    +0.133 A 
ATOM     30  N   UNL     1      -7.625 -12.640  -2.393  0.00  0.00    -0.237 NA
ATOM     31 CL   UNL     1     -10.050 -15.637  -3.213  0.00  0.00    -0.082 Cl
ATOM     32 CL   UNL     1      -5.415 -15.258  -0.420  0.00  0.00    -0.080 Cl
ENDBRANCH  17  19
ENDBRANCH   5  17
TORSDOF 5
