REMARK  Name = ZINC20578846
REMARK  3 active torsions:
REMARK  status: ('A' for Active; 'I' for Inactive)
REMARK    1  A    between atoms: C_7  and  C_15
REMARK    2  A    between atoms: C_21  and  C_23
REMARK    3  A    between atoms: N_28  and  C_30
REMARK                            x       y       z     vdW  Elec       q    Type
REMARK                         _______ _______ _______ _____ _____    ______ ____
ROOT
ATOM      1  C   UNL     1       3.066   3.957  -1.374  0.00  0.00    +0.231 C 
ATOM      2  O   UNL     1       2.459   3.399  -2.264  0.00  0.00    -0.274 OA
ATOM      3  N   UNL     1       4.245   4.556  -1.635  0.00  0.00    -0.263 N 
ATOM      4  C   UNL     1       4.766   4.533  -2.924  0.00  0.00    +0.188 A 
ATOM      5  N   UNL     1       4.272   3.988  -4.023  0.00  0.00    -0.126 NA
ATOM      6  N   UNL     1       4.875   4.056  -5.130  0.00  0.00    -0.144 NA
ATOM      7  C   UNL     1       6.032   4.681  -5.228  0.00  0.00    +0.109 A 
ATOM      8  S   UNL     1       6.242   5.221  -3.536  0.00  0.00    -0.035 S 
ATOM      9  H   UNL     1       4.796   5.062  -0.828  0.00  0.00    +0.157 HD
ENDROOT
BRANCH   1  16
ATOM     10  C   UNL     1      -0.012   1.173   0.051  0.00  0.00    +0.001 A 
ATOM     11  C   UNL     1      -1.210   1.863   0.066  0.00  0.00    +0.004 A 
ATOM     12  C   UNL     1      -1.212   3.243   0.075  0.00  0.00    +0.046 A 
ATOM     13  C   UNL     1      -0.010   3.942   0.060  0.00  0.00    +0.133 A 
ATOM     14  C   UNL     1       1.188   3.249   0.041  0.00  0.00    +0.011 A 
ATOM     15  C   UNL     1       1.184   1.865   0.036  0.00  0.00    +0.008 A 
ATOM     16  C   UNL     1       2.502   3.982   0.023  0.00  0.00    +0.142 C 
ATOM     17  C   UNL     1       2.316   5.410   0.458  0.00  0.00    +0.011 A 
ATOM     18  C   UNL     1       3.417   6.144   0.864  0.00  0.00    +0.008 A 
ATOM     19  C   UNL     1       3.267   7.457   1.267  0.00  0.00    +0.001 A 
ATOM     20  C   UNL     1       2.014   8.043   1.266  0.00  0.00    +0.004 A 
ATOM     21  C   UNL     1       0.913   7.315   0.863  0.00  0.00    +0.046 A 
ATOM     22  C   UNL     1       1.060   5.994   0.457  0.00  0.00    +0.133 A 
ATOM     23  O   UNL     1      -0.033   5.297   0.065  0.00  0.00    -0.455 OA
ENDBRANCH   1  16
BRANCH   7  24
ATOM     24  C   UNL     1       6.921   4.887  -6.428  0.00  0.00    +0.073 C 
ATOM     25  C   UNL     1       7.285   3.536  -7.086  0.00  0.00    +0.108 C 
ATOM     26  C   UNL     1       7.292   3.837  -8.569  0.00  0.00    +0.220 C 
ATOM     27  O   UNL     1       7.795   3.132  -9.418  0.00  0.00    -0.275 OA
ATOM     28  N   UNL     1       6.659   4.998  -8.809  0.00  0.00    -0.271 N 
ATOM     29  C   UNL     1       6.156   5.598  -7.567  0.00  0.00    +0.124 C 
BRANCH  28  30
ATOM     30  C   UNL     1       6.499   5.564 -10.079  0.00  0.00    +0.036 A 
ATOM     31  C   UNL     1       7.118   4.986 -11.180  0.00  0.00    +0.025 A 
ATOM     32  C   UNL     1       6.955   5.543 -12.433  0.00  0.00    +0.022 A 
ATOM     33  C   UNL     1       6.185   6.681 -12.591  0.00  0.00    +0.041 A 
ATOM     34  C   UNL     1       5.571   7.262 -11.495  0.00  0.00    +0.022 A 
ATOM     35  C   UNL     1       5.727   6.706 -10.240  0.00  0.00    +0.025 A 
ATOM     36 CL   UNL     1       5.988   7.383 -14.167  0.00  0.00    -0.084 Cl
ENDBRANCH  28  30
ENDBRANCH   7  24
TORSDOF 3
