REMARK  Name = ZINC07774834
REMARK  5 active torsions:
REMARK  status: ('A' for Active; 'I' for Inactive)
REMARK    1  A    between atoms: C_1  and  C_2
REMARK    2  A    between atoms: C_2  and  C_20
REMARK    3  A    between atoms: N_5  and  C_9
REMARK    4  A    between atoms: C_9  and  C_10
REMARK    5  A    between atoms: C_13  and  C_15
REMARK                            x       y       z     vdW  Elec       q    Type
REMARK                         _______ _______ _______ _____ _____    ______ ____
ROOT
ATOM      1  C   UNL     1       2.898   4.227  -1.435  0.00  0.00    +0.047 C 
ATOM      2  C   UNL     1       2.458   3.931   0.001  0.00  0.00    +0.135 C 
ATOM      3  C   UNL     1       3.535   3.163   0.741  0.00  0.00    +0.251 C 
ATOM      4  O   UNL     1       3.976   2.069   0.463  0.00  0.00    -0.272 OA
ATOM      5  N   UNL     1       3.897   3.954   1.775  0.00  0.00    -0.218 N 
ATOM      6  C   UNL     1       3.207   5.101   1.786  0.00  0.00    +0.310 C 
ATOM      7  O   UNL     1       3.358   5.972   2.619  0.00  0.00    -0.252 OA
ATOM      8  N   UNL     1       2.327   5.180   0.771  0.00  0.00    -0.281 N 
ATOM      9  H   UNL     1       1.724   5.917   0.583  0.00  0.00    +0.152 HD
ENDROOT
BRANCH   2  10
ATOM     10  C   UNL     1       1.160   3.165   0.008  0.00  0.00    -0.012 A 
ATOM     11  C   UNL     1       1.175   1.783   0.000  0.00  0.00    +0.010 A 
ATOM     12  C   UNL     1      -0.013   1.076   0.008  0.00  0.00    +0.050 A 
ATOM     13  C   UNL     1      -1.222   1.752   0.017  0.00  0.00    +0.166 A 
ATOM     14  C   UNL     1      -1.237   3.144   0.031  0.00  0.00    +0.167 A 
ATOM     15  C   UNL     1      -0.043   3.846   0.023  0.00  0.00    +0.055 A 
ATOM     16  O   UNL     1      -2.535   3.567   0.045  0.00  0.00    -0.453 OA
ATOM     17  C   UNL     1      -3.306   2.423   0.459  0.00  0.00    +0.466 C 
ATOM     18  O   UNL     1      -2.510   1.302   0.033  0.00  0.00    -0.453 OA
ENDBRANCH   2  10
BRANCH   5  19
ATOM     19  C   UNL     1       4.920   3.600   2.762  0.00  0.00    +0.174 C 
BRANCH  19  20
ATOM     20  C   UNL     1       4.276   2.873   3.914  0.00  0.00    +0.067 A 
ATOM     21  C   UNL     1       4.247   1.516   3.930  0.00  0.00    +0.072 A 
ATOM     22  S   UNL     1       3.396   1.222   5.476  0.00  0.00    -0.075 S 
ATOM     23  C   UNL     1       3.164   2.936   5.927  0.00  0.00    +0.109 A 
ATOM     24  N   UNL     1       3.737   3.552   4.902  0.00  0.00    -0.242 NA
BRANCH  23  25
ATOM     25  C   UNL     1       2.510   3.511   7.121  0.00  0.00    +0.014 A 
ATOM     26  C   UNL     1       1.956   2.687   8.098  0.00  0.00    +0.018 A 
ATOM     27  C   UNL     1       1.371   3.251   9.178  0.00  0.00    +0.046 A 
ATOM     28  S   UNL     1       1.569   4.994   8.850  0.00  0.00    -0.104 S 
ATOM     29  C   UNL     1       2.429   4.868   7.291  0.00  0.00    +0.055 A 
ENDBRANCH  23  25
ENDBRANCH  19  20
ENDBRANCH   5  19
TORSDOF 4
