REMARK  Name = ZINC30874595
REMARK  5 active torsions:
REMARK  status: ('A' for Active; 'I' for Inactive)
REMARK    1  A    between atoms: C_1  and  C_2
REMARK    2  A    between atoms: C_7  and  N_12
REMARK    3  A    between atoms: C_9  and  C_11
REMARK    4  A    between atoms: N_18  and  S_19
REMARK    5  A    between atoms: S_19  and  C_22
REMARK                            x       y       z     vdW  Elec       q    Type
REMARK                         _______ _______ _______ _____ _____    ______ ____
ROOT
ATOM      1  N   UNL     1      -0.711   1.476   1.069  0.00  0.00    -0.268 NA
ATOM      2  C   UNL     1      -0.078   0.807  -0.082  0.00  0.00    +0.193 C 
ATOM      3  N   UNL     1      -0.797   1.234  -1.293  0.00  0.00    -0.303 N 
ATOM      4  C   UNL     1      -1.153   2.560  -1.405  0.00  0.00    +0.202 C 
ATOM      5  N   UNL     1      -1.083   3.360  -0.388  0.00  0.00    -0.303 N 
ATOM      6  C   UNL     1      -0.612   2.934   0.927  0.00  0.00    +0.193 C 
ATOM      7  N   UNL     1      -1.591   3.042  -2.615  0.00  0.00    -0.097 NA
ATOM      8  H   UNL     1      -1.036   0.501  -2.078  0.00  0.00    +0.150 HD
ATOM      9  H   UNL     1      -1.397   4.402  -0.548  0.00  0.00    +0.150 HD
ENDROOT
BRANCH   1  15
ATOM     10  C   UNL     1       1.742  -0.697   3.806  0.00  0.00    +0.008 C 
ATOM     11  C   UNL     1       0.230  -0.931   3.847  0.00  0.00    -0.010 C 
ATOM     12  C   UNL     1      -0.377  -0.140   5.007  0.00  0.00    +0.003 C 
ATOM     13  C   UNL     1      -0.096   1.351   4.811  0.00  0.00    +0.002 C 
ATOM     14  C   UNL     1      -0.720   1.818   3.494  0.00  0.00    +0.019 C 
ATOM     15  C   UNL     1      -0.112   1.028   2.333  0.00  0.00    +0.063 C 
ATOM     16  C   UNL     1      -0.393  -0.463   2.530  0.00  0.00    +0.006 C 
ATOM     17  C   UNL     1      -1.905  -0.697   2.570  0.00  0.00    +0.009 C 
ENDBRANCH   1  15
BRANCH   7  18
ATOM     18  S   UNL     1      -2.023   4.634  -2.765  0.00  0.00    +0.102 S 
ATOM     19  O   UNL     1      -2.399   4.827  -4.122  0.00  0.00    -0.146 OA
ATOM     20  O   UNL     1      -2.898   4.921  -1.683  0.00  0.00    -0.146 OA
BRANCH  18  21
ATOM     21  C   UNL     1      -0.569   5.595  -2.505  0.00  0.00    +0.113 A 
ATOM     22  C   UNL     1      -0.242   6.021  -1.231  0.00  0.00    +0.030 A 
ATOM     23  C   UNL     1       0.901   6.771  -1.026  0.00  0.00    +0.017 A 
ATOM     24  C   UNL     1       1.712   7.103  -2.096  0.00  0.00    +0.018 A 
ATOM     25  C   UNL     1       1.381   6.680  -3.371  0.00  0.00    +0.017 A 
ATOM     26  C   UNL     1       0.241   5.926  -3.575  0.00  0.00    +0.030 A 
ATOM     27 BR   UNL     1       3.272   8.134  -1.816  0.00  0.00    -0.050 Br
ENDBRANCH  18  21
ENDBRANCH   7  18
TORSDOF 3
