REMARK  Name = ZINC13265288
REMARK  7 active torsions:
REMARK  status: ('A' for Active; 'I' for Inactive)
REMARK    1  A    between atoms: C_6  and  C_7
REMARK    2  A    between atoms: C_7  and  C_9
REMARK    3  A    between atoms: C_7  and  N_12
REMARK    4  A    between atoms: C_9  and  C_10
REMARK    5  A    between atoms: N_12  and  S_13
REMARK    6  A    between atoms: S_13  and  C_16
REMARK    7  A    between atoms: C_18  and  C_23
REMARK                            x       y       z     vdW  Elec       q    Type
REMARK                         _______ _______ _______ _____ _____    ______ ____
ROOT
ATOM      1  N   UNL     1       0.453   0.228   1.079  0.00  0.00    -0.182 NA
ATOM      2  H   UNL     1       1.152   0.089   1.737  0.00  0.00    +0.149 HD
ENDROOT
BRANCH   1   3
ATOM      3  S   UNL     1      -0.667  -0.959   0.797  0.00  0.00    +0.060 S 
ATOM      4  O   UNL     1      -1.217  -0.701  -0.488  0.00  0.00    -0.153 OA
ATOM      5  O   UNL     1      -0.043  -2.192   1.125  0.00  0.00    -0.153 OA
BRANCH   3   6
ATOM      6  C   UNL     1      -1.972  -0.729   1.959  0.00  0.00    +0.120 A 
ATOM      7  C   UNL     1      -1.769   0.053   3.076  0.00  0.00    +0.044 A 
ATOM      8  C   UNL     1      -2.804   0.234   3.996  0.00  0.00    +0.065 A 
ATOM      9  C   UNL     1      -4.040  -0.380   3.777  0.00  0.00    +0.016 A 
ATOM     10  C   UNL     1      -4.230  -1.159   2.656  0.00  0.00    +0.018 A 
ATOM     11  C   UNL     1      -3.201  -1.330   1.745  0.00  0.00    +0.044 A 
ATOM     12 BR   UNL     1      -3.474  -2.394   0.205  0.00  0.00    -0.048 Br
BRANCH   8  13
ATOM     13  C   UNL     1      -2.593   1.070   5.195  0.00  0.00    +0.387 C 
ATOM     14  O   UNL     1      -1.518   1.603   5.382  0.00  0.00    -0.241 OA
ATOM     15  O   UNL     1      -3.594   1.242   6.080  0.00  0.00    -0.241 OA
ENDBRANCH   8  13
ENDBRANCH   3   6
ENDBRANCH   1   3
BRANCH   1  16
ATOM     16  C   UNL     1       0.389   1.488   0.334  0.00  0.00    +0.117 C 
BRANCH  16  22
ATOM     17  C   UNL     1       2.816   1.778   0.870  0.00  0.00    +0.008 A 
ATOM     18  C   UNL     1       4.096   2.173   0.528  0.00  0.00    +0.038 A 
ATOM     19  C   UNL     1       4.341   2.724  -0.718  0.00  0.00    +0.123 A 
ATOM     20  C   UNL     1       3.305   2.874  -1.623  0.00  0.00    +0.038 A 
ATOM     21  C   UNL     1       2.027   2.473  -1.282  0.00  0.00    +0.008 A 
ATOM     22  C   UNL     1       1.783   1.923  -0.037  0.00  0.00    -0.028 A 
ATOM     23  F   UNL     1       5.591   3.115  -1.050  0.00  0.00    -0.205 F 
ENDBRANCH  16  22
BRANCH  16  24
ATOM     24  C   UNL     1      -0.267   2.562   1.204  0.00  0.00    +0.150 C 
BRANCH  24  25
ATOM     25  C   UNL     1      -1.727   2.238   1.387  0.00  0.00    +0.358 C 
ATOM     26  O   UNL     1      -2.236   1.356   0.736  0.00  0.00    -0.246 OA
ATOM     27  O   UNL     1      -2.462   2.928   2.273  0.00  0.00    -0.246 OA
ENDBRANCH  24  25
ENDBRANCH  16  24
ENDBRANCH   1  16
TORSDOF 7
