REMARK  Name = ZINC65329852
REMARK  6 active torsions:
REMARK  status: ('A' for Active; 'I' for Inactive)
REMARK    1  A    between atoms: C_7  and  C_10
REMARK    2  A    between atoms: C_10  and  C_11
REMARK    3  A    between atoms: C_11  and  N_12
REMARK    4  A    between atoms: N_14  and  C_15
REMARK    5  A    between atoms: N_22  and  C_23
REMARK    6  A    between atoms: C_23  and  C_25
REMARK                            x       y       z     vdW  Elec       q    Type
REMARK                         _______ _______ _______ _____ _____    ______ ____
ROOT
ATOM      1  N   UNL     1      -1.978  -3.543  -2.518  0.00  0.00    -0.357 N 
ATOM      2  C   UNL     1      -1.271  -4.635  -2.928  0.00  0.00    +0.194 C 
ATOM      3  N   UNL     1      -0.385  -4.527  -3.962  0.00  0.00    -0.328 N 
ATOM      4  N   UNL     1      -1.443  -5.801  -2.324  0.00  0.00    -0.143 NA
ATOM      5  H   UNL     1      -2.585  -3.612  -1.765  0.00  0.00    +0.162 HD
ATOM      6  H   UNL     1      -0.461  -5.115  -4.729  0.00  0.00    +0.169 HD
ENDROOT
BRANCH   3   7
ATOM      7  C   UNL     1       0.632  -3.566  -3.914  0.00  0.00    +0.042 A 
ATOM      8  C   UNL     1       1.258  -3.276  -2.709  0.00  0.00    +0.028 A 
ATOM      9  C   UNL     1       2.262  -2.328  -2.664  0.00  0.00    +0.040 A 
ATOM     10  C   UNL     1       2.644  -1.668  -3.819  0.00  0.00    +0.124 A 
ATOM     11  C   UNL     1       2.021  -1.956  -5.022  0.00  0.00    +0.040 A 
ATOM     12  C   UNL     1       1.021  -2.907  -5.072  0.00  0.00    +0.028 A 
ATOM     13  F   UNL     1       3.626  -0.741  -3.773  0.00  0.00    -0.205 F 
ENDBRANCH   3   7
BRANCH   4  14
ATOM     14  C   UNL     1      -0.658  -6.840  -2.636  0.00  0.00    +0.270 C 
ATOM     15  O   UNL     1       0.248  -6.700  -3.439  0.00  0.00    -0.268 OA
BRANCH  14  16
ATOM     16  C   UNL     1      -0.891  -8.159  -2.008  0.00  0.00    +0.043 A 
ATOM     17  C   UNL     1      -1.996  -8.352  -1.177  0.00  0.00    +0.017 A 
ATOM     18  C   UNL     1      -2.212  -9.581  -0.592  0.00  0.00    +0.050 A 
ATOM     19  C   UNL     1      -1.334 -10.630  -0.826  0.00  0.00    +0.166 A 
ATOM     20  C   UNL     1      -0.227 -10.443  -1.655  0.00  0.00    +0.167 A 
ATOM     21  C   UNL     1      -0.010  -9.214  -2.248  0.00  0.00    +0.062 A 
ATOM     22  O   UNL     1       0.471 -11.614  -1.720  0.00  0.00    -0.453 OA
ATOM     23  C   UNL     1       0.011 -12.398  -0.603  0.00  0.00    +0.466 C 
ATOM     24  O   UNL     1      -1.326 -11.917  -0.374  0.00  0.00    -0.453 OA
ENDBRANCH  14  16
ENDBRANCH   4  14
BRANCH   1  25
ATOM     25  C   UNL     1      -1.821  -2.264  -3.216  0.00  0.00    +0.120 C 
BRANCH  25  26
ATOM     26  C   UNL     1      -2.738  -1.219  -2.579  0.00  0.00    +0.054 C 
BRANCH  26  33
ATOM     27  C   UNL     1      -5.371   0.512  -5.914  0.00  0.00    +0.001 A 
ATOM     28  C   UNL     1      -4.936   1.760  -6.383  0.00  0.00    +0.002 A 
ATOM     29  C   UNL     1      -3.845   2.384  -5.892  0.00  0.00    +0.026 A 
ATOM     30  C   UNL     1      -3.079   1.782  -4.856  0.00  0.00    +0.043 A 
ATOM     31  N   UNL     1      -2.000   2.178  -4.225  0.00  0.00    -0.380 N 
ATOM     32  C   UNL     1      -1.632   1.155  -3.239  0.00  0.00    +0.144 C 
ATOM     33  C   UNL     1      -2.667   0.061  -3.370  0.00  0.00    -0.040 C 
ATOM     34  C   UNL     1      -3.517   0.464  -4.343  0.00  0.00    -0.001 A 
ATOM     35  C   UNL     1      -4.715  -0.146  -4.932  0.00  0.00    +0.010 A 
ATOM     36  H   UNL     1      -1.524   3.009  -4.383  0.00  0.00    +0.160 HD
ENDBRANCH  26  33
ENDBRANCH  25  26
ENDBRANCH   1  25
TORSDOF 6
