REMARK  Name = ZINC32607974
REMARK  7 active torsions:
REMARK  status: ('A' for Active; 'I' for Inactive)
REMARK    1  A    between atoms: C_1  and  C_2
REMARK    2  A    between atoms: C_2  and  O_3
REMARK    3  A    between atoms: O_3  and  C_4
REMARK    4  A    between atoms: C_4  and  C_6
REMARK    5  A    between atoms: C_12  and  N_17
REMARK    6  A    between atoms: C_15  and  N_16
REMARK    7  A    between atoms: C_18  and  C_20
REMARK                            x       y       z     vdW  Elec       q    Type
REMARK                         _______ _______ _______ _____ _____    ______ ____
ROOT
ATOM      1  C   UNL     1       3.515   2.202  -0.285  0.00  0.00    +0.098 A 
ATOM      2  C   UNL     1       3.370   3.600  -0.280  0.00  0.00    +0.128 A 
ATOM      3  N   UNL     1       2.193   4.167  -0.218  0.00  0.00    -0.254 NA
ATOM      4  C   UNL     1       1.060   3.452  -0.155  0.00  0.00    +0.073 A 
ATOM      5  C   UNL     1      -0.187   4.093  -0.088  0.00  0.00    +0.030 A 
ATOM      6  C   UNL     1      -1.330   3.357  -0.024  0.00  0.00    +0.025 A 
ATOM      7  C   UNL     1      -1.286   1.960  -0.030  0.00  0.00    +0.034 A 
ATOM      8  C   UNL     1      -0.077   1.298  -0.087  0.00  0.00    +0.035 A 
ATOM      9  C   UNL     1       1.111   2.038  -0.153  0.00  0.00    +0.024 A 
ATOM     10  C   UNL     1       2.371   1.394  -0.220  0.00  0.00    +0.049 A 
ENDROOT
BRANCH   7  11
ATOM     11  N   UNL     1      -2.477   1.227   0.031  0.00  0.00    -0.281 N 
ATOM     12  C   UNL     1      -3.582   1.685  -0.590  0.00  0.00    +0.250 C 
ATOM     13  O   UNL     1      -3.567   2.773  -1.133  0.00  0.00    -0.270 OA
ATOM     14  H   UNL     1      -2.510   0.277   0.585  0.00  0.00    +0.155 HD
BRANCH  12  15
ATOM     15  C   UNL     1      -4.812   0.865  -0.610  0.00  0.00    +0.056 A 
ATOM     16  C   UNL     1      -5.968   1.333  -1.246  0.00  0.00    +0.031 A 
ATOM     17  C   UNL     1      -7.092   0.523  -1.240  0.00  0.00    +0.037 A 
ATOM     18  C   UNL     1      -7.039  -0.704  -0.603  0.00  0.00    +0.126 A 
ATOM     19  N   UNL     1      -5.937  -1.115  -0.007  0.00  0.00    -0.261 NA
ATOM     20  C   UNL     1      -4.841  -0.384   0.010  0.00  0.00    +0.123 A 
ATOM     21 BR   UNL     1      -8.683   1.093  -2.088  0.00  0.00    -0.049 Br
ENDBRANCH  12  15
ENDBRANCH   7  11
BRANCH  10  22
ATOM     22  N   UNL     1       2.468   0.020  -0.221  0.00  0.00    -0.357 N 
ATOM     23  H   UNL     1       1.559  -0.596  -0.170  0.00  0.00    +0.142 HD
ATOM     24  H   UNL     1       3.456  -0.461  -0.273  0.00  0.00    +0.142 HD
ENDBRANCH  10  22
BRANCH   1  25
ATOM     25  C   UNL     1       4.852   1.594  -0.355  0.00  0.00    +0.342 C 
ATOM     26  O   UNL     1       4.967   0.388  -0.456  0.00  0.00    -0.245 OA
BRANCH  25  27
ATOM     27  O   UNL     1       5.951   2.373  -0.308  0.00  0.00    -0.461 OA
BRANCH  27  29
ATOM     28  C   UNL     1       8.358   2.745  -0.314  0.00  0.00    +0.048 C 
ATOM     29  C   UNL     1       7.238   1.705  -0.383  0.00  0.00    +0.229 C 
ENDBRANCH  27  29
ENDBRANCH  25  27
ENDBRANCH   1  25
TORSDOF 6
