REMARK  Name = ZINC36563052
REMARK  17 active torsions:
REMARK  status: ('A' for Active; 'I' for Inactive)
REMARK    1  A    between atoms: C_1  and  C_2
REMARK    2  A    between atoms: C_2  and  C_3
REMARK    3  A    between atoms: C_3  and  C_4
REMARK    4  A    between atoms: C_4  and  C_5
REMARK    5  A    between atoms: C_5  and  C_6
REMARK    6  A    between atoms: C_7  and  C_8
REMARK    7  A    between atoms: N_10  and  C_11
REMARK    8  A    between atoms: N_10  and  C_14
REMARK    9  A    between atoms: C_11  and  C_12
REMARK   10  A    between atoms: C_12  and  C_13
REMARK   11  A    between atoms: C_14  and  C_16
REMARK   12  A    between atoms: C_14  and  C_23
REMARK   13  A    between atoms: C_19  and  O_22
REMARK   14  A    between atoms: N_25  and  C_26
REMARK   15  A    between atoms: C_26  and  C_27
REMARK   16  A    between atoms: C_27  and  C_28
REMARK   17  A    between atoms: C_28  and  C_29
REMARK                            x       y       z     vdW  Elec       q    Type
REMARK                         _______ _______ _______ _____ _____    ______ ____
ROOT
ATOM      1  C   UNL     1       3.687  -8.660   2.596  0.00  0.00    +0.192 C 
ENDROOT
BRANCH   1   2
ATOM      2  C   UNL     1       3.192  -8.371   3.990  0.00  0.00    -0.018 A 
ATOM      3  C   UNL     1       3.723  -7.314   4.705  0.00  0.00    +0.009 A 
ATOM      4  C   UNL     1       3.272  -7.047   5.984  0.00  0.00    +0.046 A 
ATOM      5  C   UNL     1       2.285  -7.840   6.549  0.00  0.00    +0.117 A 
ATOM      6  C   UNL     1       1.753  -8.900   5.829  0.00  0.00    +0.046 A 
ATOM      7  C   UNL     1       2.204  -9.160   4.549  0.00  0.00    +0.009 A 
BRANCH   5   8
ATOM      8  O   UNL     1       1.839  -7.580   7.806  0.00  0.00    -0.507 OA
ATOM      9  H   UNL     1       1.091  -6.969   7.840  0.00  0.00    +0.292 HD
ENDBRANCH   5   8
ENDBRANCH   1   2
BRANCH   1  10
ATOM     10  C   UNL     1       4.923  -9.519   2.670  0.00  0.00    +0.238 C 
ATOM     11  O   UNL     1       5.976  -9.036   3.027  0.00  0.00    -0.273 OA
ATOM     12  N   UNL     1       4.858 -10.823   2.338  0.00  0.00    -0.313 N 
ATOM     13  H   UNL     1       4.015 -11.210   2.053  0.00  0.00    +0.149 HD
BRANCH  12  14
ATOM     14  C   UNL     1       6.059 -11.658   2.410  0.00  0.00    +0.104 C 
BRANCH  14  15
ATOM     15  C   UNL     1       5.714 -13.087   1.985  0.00  0.00    +0.018 C 
BRANCH  15  16
ATOM     16  C   UNL     1       6.969 -13.959   2.059  0.00  0.00    -0.002 C 
ATOM     17  C   UNL     1       6.623 -15.387   1.634  0.00  0.00    +0.004 C 
ENDBRANCH  15  16
ENDBRANCH  14  15
ENDBRANCH  12  14
ENDBRANCH   1  10
BRANCH   1  20
ATOM     18  C   UNL     1       3.035  -6.497   1.682  0.00  0.00    +0.240 C 
ATOM     19  O   UNL     1       1.892  -6.728   2.028  0.00  0.00    -0.271 OA
ATOM     20  N   UNL     1       4.007  -7.400   1.921  0.00  0.00    -0.282 N 
BRANCH  18  22
ATOM     21  C   UNL     1       2.398  -4.341   0.769  0.00  0.00    -0.022 C 
ATOM     22  C   UNL     1       3.357  -5.232   1.004  0.00  0.00    +0.063 C 
BRANCH  21  23
ATOM     23  C   UNL     1       2.727  -3.045   0.074  0.00  0.00    +0.027 C 
BRANCH  23  24
ATOM     24  C   UNL     1       1.831  -2.884  -1.156  0.00  0.00    +0.004 C 
BRANCH  24  25
ATOM     25  C   UNL     1       2.166  -1.568  -1.862  0.00  0.00    +0.000 C 
BRANCH  25  27
ATOM     26  C   UNL     1       1.604  -0.091  -3.797  0.00  0.00    +0.004 C 
ATOM     27  C   UNL     1       1.270  -1.407  -3.091  0.00  0.00    -0.003 C 
ENDBRANCH  25  27
ENDBRANCH  24  25
ENDBRANCH  23  24
ENDBRANCH  21  23
ENDBRANCH  18  22
BRANCH  20  28
ATOM     28  C   UNL     1       5.384  -7.122   1.504  0.00  0.00    +0.109 C 
BRANCH  28  29
ATOM     29  C   UNL     1       6.076  -6.268   2.569  0.00  0.00    +0.016 C 
ATOM     30  C   UNL     1       7.487  -5.912   2.098  0.00  0.00    +0.005 C 
ENDBRANCH  28  29
ENDBRANCH  20  28
ENDBRANCH   1  20
TORSDOF 14
