REMARK  Name = ZINC36849023
REMARK  8 active torsions:
REMARK  status: ('A' for Active; 'I' for Inactive)
REMARK    1  A    between atoms: C_1  and  C_2
REMARK    2  A    between atoms: C_7  and  N_8
REMARK    3  A    between atoms: C_11  and  C_16
REMARK    4  A    between atoms: C_16  and  S_17
REMARK    5  A    between atoms: S_17  and  C_18
REMARK    6  A    between atoms: C_22  and  C_26
REMARK    7  A    between atoms: C_23  and  C_25
REMARK    8  A    between atoms: N_29  and  C_30
REMARK                            x       y       z     vdW  Elec       q    Type
REMARK                         _______ _______ _______ _____ _____    ______ ____
ROOT
ATOM      1  N   UNL     1       0.025  -0.015   2.416  0.00  0.00    -0.283 N 
ATOM      2  C   UNL     1      -0.058  -0.712   3.606  0.00  0.00    +0.224 A 
ATOM      3  N   UNL     1      -0.162  -0.053   4.758  0.00  0.00    -0.198 NA
ATOM      4  C   UNL     1      -0.242  -0.719   5.897  0.00  0.00    +0.146 A 
ATOM      5  N   UNL     1      -0.219  -2.041   5.897  0.00  0.00    -0.199 NA
ATOM      6  C   UNL     1      -0.115  -2.706   4.749  0.00  0.00    +0.217 A 
ATOM      7  N   UNL     1      -0.041  -2.040   3.602  0.00  0.00    -0.181 NA
ATOM      8  N   UNL     1      -0.091  -4.086   4.750  0.00  0.00    -0.327 N 
ATOM      9  H   UNL     1      -0.077   0.949   2.411  0.00  0.00    +0.155 HD
ATOM     10  H   UNL     1      -0.150  -4.571   5.588  0.00  0.00    +0.145 HD
ATOM     11  H   UNL     1      -0.015  -4.570   3.913  0.00  0.00    +0.145 HD
ENDROOT
BRANCH   1  18
ATOM     12  C   UNL     1      -1.030   1.083   0.013  0.00  0.00    +0.045 C 
ATOM     13  C   UNL     1      -0.239  -0.200   0.024  0.00  0.00    -0.029 A 
ATOM     14  C   UNL     1      -0.003  -0.876  -1.157  0.00  0.00    +0.005 A 
ATOM     15  C   UNL     1       0.723  -2.053  -1.149  0.00  0.00    +0.000 A 
ATOM     16  C   UNL     1       1.214  -2.557   0.042  0.00  0.00    +0.002 A 
ATOM     17  C   UNL     1       0.981  -1.886   1.226  0.00  0.00    +0.023 A 
ATOM     18  C   UNL     1       0.258  -0.701   1.220  0.00  0.00    +0.036 A 
ENDBRANCH   1  18
BRANCH   4  19
ATOM     19  C   UNL     1      -0.360   0.031   7.199  0.00  0.00    +0.153 C 
BRANCH  19  20
ATOM     20  S   UNL     1      -2.111   0.302   7.585  0.00  0.00    -0.080 S 
BRANCH  20  21
ATOM     21  C   UNL     1      -2.081   1.177   9.114  0.00  0.00    +0.173 A 
ATOM     22  N   UNL     1      -0.924   1.470   9.672  0.00  0.00    -0.216 NA
ATOM     23  C   UNL     1      -0.870   2.129  10.823  0.00  0.00    +0.117 A 
ATOM     24  C   UNL     1      -2.031   2.544  11.501  0.00  0.00    +0.075 A 
ATOM     25  C   UNL     1      -1.793   3.253  12.747  0.00  0.00    -0.026 A 
ATOM     26  C   UNL     1      -0.531   3.457  13.153  0.00  0.00    -0.008 A 
ATOM     27  S   UNL     1       0.445   2.699  11.870  0.00  0.00    -0.073 S 
ATOM     28  C   UNL     1      -0.054   4.160  14.398  0.00  0.00    +0.052 C 
ATOM     29  C   UNL     1      -2.950   3.754  13.572  0.00  0.00    +0.045 C 
ATOM     30  C   UNL     1      -3.272   2.212  10.872  0.00  0.00    +0.263 A 
ATOM     31  O   UNL     1      -4.330   2.531  11.386  0.00  0.00    -0.267 OA
ATOM     32  N   UNL     1      -3.256   1.548   9.701  0.00  0.00    -0.290 N 
ATOM     33  C   UNL     1      -4.523   1.210   9.049  0.00  0.00    +0.154 C 
ENDBRANCH  20  21
ENDBRANCH  19  20
ENDBRANCH   4  19
TORSDOF 4
