REMARK  Name = ZINC30970595
REMARK  6 active torsions:
REMARK  status: ('A' for Active; 'I' for Inactive)
REMARK    1  A    between atoms: C_7  and  N_12
REMARK    2  A    between atoms: C_13  and  C_15
REMARK    3  A    between atoms: C_15  and  O_16
REMARK    4  A    between atoms: O_16  and  C_17
REMARK    5  A    between atoms: C_17  and  C_19
REMARK    6  A    between atoms: C_22  and  C_24
REMARK                            x       y       z     vdW  Elec       q    Type
REMARK                         _______ _______ _______ _____ _____    ______ ____
ROOT
ATOM      1  C   UNL     1       6.307  -0.217  -1.504  0.00  0.00    +0.328 C 
ENDROOT
BRANCH   1   3
ATOM      2  N   UNL     1       4.620   1.504  -0.945  0.00  0.00    -0.305 N 
ATOM      3  C   UNL     1       5.358   0.450  -0.542  0.00  0.00    +0.251 C 
ATOM      4  O   UNL     1       5.258   0.039   0.595  0.00  0.00    -0.272 OA
ATOM      5  H   UNL     1       4.711   1.876  -1.975  0.00  0.00    +0.149 HD
BRANCH   2  12
ATOM      6  C   UNL     1       1.209  -0.678  -0.013  0.00  0.00    +0.001 A 
ATOM      7  C   UNL     1       0.002  -0.004   0.002  0.00  0.00    +0.004 A 
ATOM      8  C   UNL     1      -0.017   1.375   0.010  0.00  0.00    +0.046 A 
ATOM      9  C   UNL     1       1.176   2.092   0.002  0.00  0.00    +0.125 A 
ATOM     10  C   UNL     1       2.383   1.415  -0.009  0.00  0.00    +0.014 A 
ATOM     11  C   UNL     1       2.395   0.030  -0.018  0.00  0.00    +0.009 A 
ATOM     12  C   UNL     1       3.698   2.152  -0.009  0.00  0.00    +0.110 C 
ATOM     13  C   UNL     1       3.474   3.604  -0.439  0.00  0.00    +0.068 C 
ATOM     14  C   UNL     1       2.296   4.169   0.364  0.00  0.00    +0.231 C 
ATOM     15  O   UNL     1       1.117   3.449   0.000  0.00  0.00    -0.492 OA
ENDBRANCH   2  12
ENDBRANCH   1   3
BRANCH   1  16
ATOM     16  O   UNL     1       6.980  -1.317  -0.835  0.00  0.00    -0.451 OA
BRANCH  16  17
ATOM     17  C   UNL     1       7.869  -2.023  -1.562  0.00  0.00    +0.359 C 
ATOM     18  O   UNL     1       8.076  -1.727  -2.723  0.00  0.00    -0.243 OA
BRANCH  17  19
ATOM     19  C   UNL     1       8.588  -3.152  -0.951  0.00  0.00    +0.155 A 
ATOM     20  C   UNL     1       9.499  -3.888  -1.687  0.00  0.00    +0.082 A 
ATOM     21  S   UNL     1      10.033  -5.052  -0.514  0.00  0.00    -0.075 S 
ATOM     22  C   UNL     1       9.022  -4.499   0.851  0.00  0.00    +0.109 A 
ATOM     23  N   UNL     1       8.371  -3.485   0.313  0.00  0.00    -0.232 NA
BRANCH  22  24
ATOM     24  C   UNL     1       8.936  -5.038   2.225  0.00  0.00    +0.007 A 
ATOM     25  C   UNL     1       8.076  -4.452   3.155  0.00  0.00    +0.012 A 
ATOM     26  C   UNL     1       7.996  -4.963   4.434  0.00  0.00    +0.020 A 
ATOM     27  C   UNL     1       8.776  -6.048   4.799  0.00  0.00    +0.041 A 
ATOM     28  C   UNL     1       9.634  -6.630   3.882  0.00  0.00    +0.020 A 
ATOM     29  C   UNL     1       9.718  -6.131   2.599  0.00  0.00    +0.012 A 
ATOM     30 CL   UNL     1       8.676  -6.680   6.413  0.00  0.00    -0.084 Cl
ENDBRANCH  22  24
ENDBRANCH  17  19
ENDBRANCH  16  17
ENDBRANCH   1  16
TORSDOF 6
