REMARK  Name = ZINC02253443
REMARK  5 active torsions:
REMARK  status: ('A' for Active; 'I' for Inactive)
REMARK    1  A    between atoms: C_4  and  C_7
REMARK    2  A    between atoms: C_7  and  C_8
REMARK    3  A    between atoms: C_7  and  N_63
REMARK    4  A    between atoms: N_23  and  C_28
REMARK    5  A    between atoms: C_28  and  C_29
REMARK                            x       y       z     vdW  Elec       q    Type
REMARK                         _______ _______ _______ _____ _____    ______ ____
ROOT
ATOM      1  C   UNL     1      -0.995   5.293  -2.207  0.00  0.00    -0.058 C 
ATOM      2  C   UNL     1      -2.175   5.750  -3.067  0.00  0.00    +0.088 C 
ATOM      3  N   UNL     1      -2.225   7.219  -3.083  0.00  0.00    -0.318 N 
ATOM      4  C   UNL     1      -2.377   7.753  -1.723  0.00  0.00    +0.088 C 
ATOM      5  C   UNL     1      -1.197   7.296  -0.863  0.00  0.00    -0.058 C 
ATOM      6  C   UNL     1      -3.237   7.670  -3.908  0.00  0.00    +0.135 A 
ATOM      7  C   UNL     1      -3.288   7.287  -5.263  0.00  0.00    +0.078 A 
ATOM      8  C   UNL     1      -2.497   6.464  -6.092  0.00  0.00    +0.148 A 
ATOM      9  N   UNL     1      -3.020   6.455  -7.285  0.00  0.00    -0.177 NA
ATOM     10  N   UNL     1      -4.168   7.257  -7.303  0.00  0.00    -0.242 N 
ATOM     11  C   UNL     1      -4.346   7.775  -6.054  0.00  0.00    +0.164 A 
ATOM     12  N   UNL     1      -5.246   8.583  -5.496  0.00  0.00    -0.216 NA
ATOM     13  C   UNL     1      -5.154   8.917  -4.228  0.00  0.00    +0.225 A 
ATOM     14  N   UNL     1      -4.182   8.480  -3.445  0.00  0.00    -0.220 NA
ATOM     15  N   UNL     1      -1.171   5.818  -0.837  0.00  0.00    +0.389 N 
ATOM     16  H   UNL     1      -2.063   5.476  -0.460  0.00  0.00    -0.080 HD
ENDROOT
BRANCH  15  17
ATOM     17  C   UNL     1      -0.070   5.347   0.031  0.00  0.00    -0.007 C 
BRANCH  17  21
ATOM     18  C   UNL     1      -0.013   1.076   0.008  0.00  0.00    +0.000 A 
ATOM     19  C   UNL     1      -1.219   1.751   0.017  0.00  0.00    +0.000 A 
ATOM     20  C   UNL     1      -1.238   3.133   0.030  0.00  0.00    +0.002 A 
ATOM     21  C   UNL     1      -0.050   3.840   0.023  0.00  0.00    -0.057 A 
ATOM     22  C   UNL     1       1.156   3.165   0.008  0.00  0.00    +0.002 A 
ATOM     23  C   UNL     1       1.175   1.783   0.000  0.00  0.00    +0.000 A 
ENDBRANCH  17  21
BRANCH  17  24
ATOM     24  C   UNL     1      -0.311   5.838   1.435  0.00  0.00    -0.057 A 
ATOM     25  C   UNL     1      -1.593   5.858   1.951  0.00  0.00    +0.002 A 
ATOM     26  C   UNL     1      -1.813   6.304   3.241  0.00  0.00    +0.000 A 
ATOM     27  C   UNL     1      -0.751   6.740   4.011  0.00  0.00    +0.000 A 
ATOM     28  C   UNL     1       0.530   6.726   3.494  0.00  0.00    +0.000 A 
ATOM     29  C   UNL     1       0.751   6.275   2.206  0.00  0.00    +0.002 A 
ENDBRANCH  17  24
ENDBRANCH  15  17
BRANCH  10  30
ATOM     30  C   UNL     1      -5.030   7.497  -8.463  0.00  0.00    +0.181 C 
BRANCH  30  31
ATOM     31  C   UNL     1      -4.535   8.706  -9.215  0.00  0.00    -0.026 A 
ATOM     32  C   UNL     1      -5.014   9.962  -8.896  0.00  0.00    +0.007 A 
ATOM     33  C   UNL     1      -4.556  11.072  -9.582  0.00  0.00    +0.020 A 
ATOM     34  C   UNL     1      -3.626  10.923 -10.595  0.00  0.00    +0.041 A 
ATOM     35  C   UNL     1      -3.151   9.664 -10.918  0.00  0.00    +0.020 A 
ATOM     36  C   UNL     1      -3.605   8.556 -10.227  0.00  0.00    +0.007 A 
ATOM     37 CL   UNL     1      -3.055  12.315 -11.461  0.00  0.00    -0.084 Cl
ENDBRANCH  30  31
ENDBRANCH  10  30
TORSDOF 5
