REMARK  Name = ZINC65253373
REMARK  10 active torsions:
REMARK  status: ('A' for Active; 'I' for Inactive)
REMARK    1  A    between atoms: C_1  and  C_2
REMARK    2  A    between atoms: C_2  and  C_3
REMARK    3  A    between atoms: C_3  and  C_4
REMARK    4  A    between atoms: C_4  and  N_5
REMARK    5  A    between atoms: C_6  and  C_8
REMARK    6  A    between atoms: N_12  and  C_14
REMARK    7  A    between atoms: C_14  and  C_15
REMARK    8  A    between atoms: C_14  and  C_16
REMARK    9  A    between atoms: N_21  and  C_22
REMARK   10  A    between atoms: C_22  and  C_23
REMARK                            x       y       z     vdW  Elec       q    Type
REMARK                         _______ _______ _______ _____ _____    ______ ____
ROOT
ATOM      1  C   UNL     1       1.319  -4.564  -4.277  0.00  0.00    +0.058 C 
ATOM      2  C   UNL     1       0.240  -4.596  -5.364  0.00  0.00    +0.009 C 
ATOM      3  C   UNL     1       0.842  -5.171  -6.650  0.00  0.00    -0.018 C 
ATOM      4  C   UNL     1       1.416  -6.560  -6.361  0.00  0.00    -0.078 C 
ATOM      5  N   UNL     1       2.460  -6.458  -5.333  0.00  0.00    +0.388 N 
ATOM      6  C   UNL     1       1.875  -5.975  -4.077  0.00  0.00    -0.065 C 
ATOM      7  H   UNL     1       3.172  -5.813  -5.642  0.00  0.00    -0.081 HD
ENDROOT
BRANCH   1   9
ATOM      8  N   UNL     1       0.163  -2.844  -2.926  0.00  0.00    -0.315 N 
ATOM      9  C   UNL     1       0.718  -4.071  -2.986  0.00  0.00    +0.214 C 
ATOM     10  O   UNL     1       0.733  -4.779  -2.002  0.00  0.00    -0.276 OA
ATOM     11  H   UNL     1       0.151  -2.278  -3.713  0.00  0.00    +0.149 HD
BRANCH   8  12
ATOM     12  C   UNL     1      -0.421  -2.365  -1.671  0.00  0.00    +0.104 C 
BRANCH  12  13
ATOM     13  C   UNL     1      -0.978  -0.955  -1.873  0.00  0.00    +0.018 C 
BRANCH  13  15
ATOM     14  C   UNL     1      -2.144   0.956  -0.764  0.00  0.00    +0.004 C 
ATOM     15  C   UNL     1      -1.588  -0.455  -0.562  0.00  0.00    -0.002 C 
ENDBRANCH  13  15
ENDBRANCH  12  13
ENDBRANCH   8  12
ENDBRANCH   1   9
BRANCH   5  16
ATOM     16  C   UNL     1       3.061  -7.780  -5.116  0.00  0.00    +0.017 C 
ATOM     17  C   UNL     1       4.156  -7.673  -4.052  0.00  0.00    -0.004 C 
BRANCH  16  18
ATOM     18  C   UNL     1       3.661  -8.278  -6.406  0.00  0.00    +0.207 C 
ATOM     19  O   UNL     1       4.068  -7.487  -7.230  0.00  0.00    -0.277 OA
ATOM     20  N   UNL     1       3.745  -9.602  -6.643  0.00  0.00    -0.242 N 
ATOM     21  C   UNL     1       4.282 -10.047  -7.796  0.00  0.00    +0.306 C 
ATOM     22  O   UNL     1       4.689  -9.254  -8.623  0.00  0.00    -0.252 OA
ATOM     23  N   UNL     1       4.366 -11.371  -8.034  0.00  0.00    -0.291 N 
ATOM     24  H   UNL     1       3.420 -10.234  -5.984  0.00  0.00    +0.159 HD
ATOM     25  H   UNL     1       4.040 -12.003  -7.374  0.00  0.00    +0.151 HD
BRANCH  23  26
ATOM     26  C   UNL     1       4.949 -11.854  -9.288  0.00  0.00    +0.219 C 
BRANCH  26  27
ATOM     27  C   UNL     1       4.925 -13.384  -9.305  0.00  0.00    +0.405 C 
ATOM     28  F   UNL     1       3.603 -13.831  -9.202  0.00  0.00    -0.169 F 
ATOM     29  F   UNL     1       5.481 -13.846 -10.502  0.00  0.00    -0.169 F 
ATOM     30  F   UNL     1       5.667 -13.874  -8.226  0.00  0.00    -0.169 F 
ENDBRANCH  26  27
ENDBRANCH  23  26
ENDBRANCH  16  18
ENDBRANCH   5  16
TORSDOF 8
