REMARK  Name = ZINC39007621
REMARK  9 active torsions:
REMARK  status: ('A' for Active; 'I' for Inactive)
REMARK    1  A    between atoms: C_1  and  C_2
REMARK    2  A    between atoms: C_2  and  C_3
REMARK    3  A    between atoms: C_8  and  N_9
REMARK    4  A    between atoms: C_10  and  C_12
REMARK    5  A    between atoms: C_12  and  S_13
REMARK    6  A    between atoms: S_13  and  C_14
REMARK    7  A    between atoms: C_18  and  C_22
REMARK    8  A    between atoms: N_20  and  N_21
REMARK    9  A    between atoms: C_25  and  C_28
REMARK                            x       y       z     vdW  Elec       q    Type
REMARK                         _______ _______ _______ _____ _____    ______ ____
ROOT
ATOM      1  C   UNL     1      -5.879  -0.428   5.245  0.00  0.00    +0.214 C 
ATOM      2  N   UNL     1      -6.113   0.980   4.853  0.00  0.00    -0.228 NA
ATOM      3  N   UNL     1      -6.300   0.931   3.395  0.00  0.00    -0.234 NA
ATOM      4  C   UNL     1      -7.065  -0.328   3.197  0.00  0.00    +0.185 C 
ATOM      5  N   UNL     1      -6.487  -1.266   4.190  0.00  0.00    -0.197 NA
ATOM      6  H   UNL     1      -5.324   1.560   5.097  0.00  0.00    +0.143 HD
ATOM      7  H   UNL     1      -6.826   1.728   3.070  0.00  0.00    +0.143 HD
ENDROOT
BRANCH   4   8
ATOM      8  C   UNL     1      -6.865  -0.859   1.776  0.00  0.00    +0.187 C 
ATOM      9  C   UNL     1      -7.315   0.168   0.752  0.00  0.00    +0.034 C 
ATOM     10  C   UNL     1      -8.313  -0.450   0.092  0.00  0.00    +0.091 C 
ATOM     11  N   UNL     1      -8.509  -1.699   0.591  0.00  0.00    -0.154 NA
ATOM     12  N   UNL     1      -7.752  -2.005   1.519  0.00  0.00    -0.176 NA
BRANCH  10  13
ATOM     13  C   UNL     1      -9.090   0.149  -1.021  0.00  0.00    +0.002 A 
ATOM     14  C   UNL     1      -8.803   1.440  -1.459  0.00  0.00    +0.011 A 
ATOM     15  C   UNL     1      -9.528   1.992  -2.494  0.00  0.00    +0.020 A 
ATOM     16  C   UNL     1     -10.541   1.266  -3.098  0.00  0.00    +0.041 A 
ATOM     17  C   UNL     1     -10.830  -0.017  -2.667  0.00  0.00    +0.020 A 
ATOM     18  C   UNL     1     -10.106  -0.581  -1.636  0.00  0.00    +0.011 A 
ATOM     19 CL   UNL     1     -11.450   1.967  -4.400  0.00  0.00    -0.084 Cl
ENDBRANCH  10  13
ENDBRANCH   4   8
BRANCH   5  20
ATOM     20  N   UNL     1      -7.511  -2.137   4.742  0.00  0.00    -0.264 NA
ATOM     21  H   UNL     1      -7.124  -2.751   5.443  0.00  0.00    +0.137 HD
ATOM     22  H   UNL     1      -8.279  -1.601   5.116  0.00  0.00    +0.137 HD
ENDBRANCH   5  20
BRANCH   1  23
ATOM     23  S   UNL     1      -4.098  -0.756   5.349  0.00  0.00    -0.115 S 
BRANCH  23  24
ATOM     24  C   UNL     1      -3.478  -0.347   3.694  0.00  0.00    +0.168 C 
BRANCH  24  26
ATOM     25  N   UNL     1      -1.309  -0.339   2.505  0.00  0.00    -0.285 N 
ATOM     26  C   UNL     1      -1.990  -0.578   3.643  0.00  0.00    +0.227 C 
ATOM     27  O   UNL     1      -1.405  -0.980   4.627  0.00  0.00    -0.275 OA
ATOM     28  H   UNL     1      -1.764   0.044   1.739  0.00  0.00    +0.155 HD
BRANCH  25  34
ATOM     29  C   UNL     1       0.600  -1.100   1.236  0.00  0.00    -0.026 A 
ATOM     30  C   UNL     1       1.948  -1.393   1.163  0.00  0.00    +0.005 A 
ATOM     31  C   UNL     1       2.753  -1.237   2.276  0.00  0.00    +0.000 A 
ATOM     32  C   UNL     1       2.212  -0.786   3.466  0.00  0.00    +0.002 A 
ATOM     33  C   UNL     1       0.865  -0.491   3.546  0.00  0.00    +0.023 A 
ATOM     34  C   UNL     1       0.055  -0.642   2.429  0.00  0.00    +0.037 A 
BRANCH  29  36
ATOM     35  C   UNL     1      -0.393   0.066  -0.714  0.00  0.00    +0.009 C 
ATOM     36  C   UNL     1      -0.277  -1.270   0.022  0.00  0.00    +0.033 C 
ENDBRANCH  29  36
ENDBRANCH  25  34
ENDBRANCH  24  26
ENDBRANCH  23  24
ENDBRANCH   1  23
TORSDOF 8
