REMARK  Name = ZINC05248624
REMARK  6 active torsions:
REMARK  status: ('A' for Active; 'I' for Inactive)
REMARK    1  A    between atoms: C_1  and  O_2
REMARK    2  A    between atoms: O_2  and  C_3
REMARK    3  A    between atoms: C_7  and  C_9
REMARK    4  A    between atoms: C_16  and  N_30
REMARK    5  A    between atoms: C_17  and  C_28
REMARK    6  A    between atoms: C_18  and  C_20
REMARK                            x       y       z     vdW  Elec       q    Type
REMARK                         _______ _______ _______ _____ _____    ______ ____
ROOT
ATOM      1  C   UNL     1      -2.679  -4.620  -0.156  0.00  0.00    +0.100 A 
ATOM      2  C   UNL     1      -3.584  -5.186   0.747  0.00  0.00    +0.054 A 
ATOM      3  C   UNL     1      -3.472  -6.544   0.663  0.00  0.00    +0.223 A 
ATOM      4  N   UNL     1      -2.530  -6.821  -0.262  0.00  0.00    -0.246 N 
ATOM      5  H   UNL     1      -2.239  -7.707  -0.532  0.00  0.00    +0.192 HD
ATOM      6  N   UNL     1      -2.047  -5.604  -0.767  0.00  0.00    -0.171 NA
ATOM      7  O   UNL     1      -4.218  -7.388   1.418  0.00  0.00    -0.423 OA
ATOM      8  C   UNL     1      -4.891  -6.863   2.462  0.00  0.00    +0.200 C 
ATOM      9  C   UNL     1      -5.079  -5.537   2.646  0.00  0.00    +0.098 C 
ATOM     10  C   UNL     1      -4.549  -4.505   1.682  0.00  0.00    +0.103 C 
ENDROOT
BRANCH  10  11
ATOM     11  C   UNL     1      -5.689  -3.913   0.895  0.00  0.00    -0.016 A 
ATOM     12  C   UNL     1      -6.415  -4.707   0.027  0.00  0.00    +0.007 A 
ATOM     13  C   UNL     1      -7.461  -4.164  -0.696  0.00  0.00    +0.020 A 
ATOM     14  C   UNL     1      -7.782  -2.826  -0.551  0.00  0.00    +0.042 A 
ATOM     15  C   UNL     1      -7.056  -2.031   0.317  0.00  0.00    +0.040 A 
ATOM     16  C   UNL     1      -6.012  -2.576   1.044  0.00  0.00    +0.046 A 
ATOM     17 CL   UNL     1      -5.105  -1.581   2.139  0.00  0.00    -0.083 Cl
ATOM     18 CL   UNL     1      -9.095  -2.145  -1.460  0.00  0.00    -0.083 Cl
ENDBRANCH  10  11
BRANCH   1  23
ATOM     19  C   UNL     1      -2.133  -1.329  -1.898  0.00  0.00    +0.121 A 
ATOM     20  C   UNL     1      -2.077  -0.459  -0.818  0.00  0.00    +0.045 A 
ATOM     21  C   UNL     1      -2.216  -0.941   0.470  0.00  0.00    +0.004 A 
ATOM     22  C   UNL     1      -2.411  -2.290   0.690  0.00  0.00    +0.010 A 
ATOM     23  C   UNL     1      -2.469  -3.170  -0.389  0.00  0.00    +0.006 A 
ATOM     24  C   UNL     1      -2.334  -2.683  -1.687  0.00  0.00    +0.055 A 
BRANCH  19  26
ATOM     25  C   UNL     1      -1.792   0.555  -3.307  0.00  0.00    +0.277 C 
ATOM     26  O   UNL     1      -1.996  -0.852  -3.163  0.00  0.00    -0.495 OA
ENDBRANCH  19  26
ENDBRANCH   1  23
BRANCH   8  27
ATOM     27  N   UNL     1      -5.416  -7.725   3.393  0.00  0.00    -0.328 N 
ATOM     28  H   UNL     1      -5.298  -8.682   3.288  0.00  0.00    +0.145 HD
ATOM     29  H   UNL     1      -5.905  -7.378   4.155  0.00  0.00    +0.145 HD
ENDBRANCH   8  27
BRANCH   9  30
ATOM     30  C   UNL     1      -5.808  -5.097   3.797  0.00  0.00    +0.101 C 
ATOM     31  N   UNL     1      -6.386  -4.747   4.711  0.00  0.00    -0.191 NA
ENDBRANCH   9  30
TORSDOF 5
