REMARK  Name = ZINC15859765
REMARK  7 active torsions:
REMARK  status: ('A' for Active; 'I' for Inactive)
REMARK    1  A    between atoms: C_1  and  C_2
REMARK    2  A    between atoms: C_3  and  C_20
REMARK    3  A    between atoms: C_6  and  N_12
REMARK    4  A    between atoms: C_13  and  C_15
REMARK    5  A    between atoms: C_20  and  C_22
REMARK    6  A    between atoms: C_20  and  N_28
REMARK    7  A    between atoms: N_28  and  C_29
REMARK                            x       y       z     vdW  Elec       q    Type
REMARK                         _______ _______ _______ _____ _____    ______ ____
ROOT
ATOM      1  C   UNL     1       8.331   0.684  -0.201  0.00  0.00    +0.063 C 
ATOM      2  C   UNL     1       6.826   0.745  -0.193  0.00  0.00    +0.019 A 
ATOM      3  C   UNL     1       6.101   1.875  -0.178  0.00  0.00    +0.007 A 
ATOM      4  C   UNL     1       4.690   1.479  -0.174  0.00  0.00    +0.007 A 
ATOM      5  C   UNL     1       3.486   2.186  -0.166  0.00  0.00    +0.033 A 
ATOM      6  C   UNL     1       2.289   1.494  -0.159  0.00  0.00    +0.034 A 
ATOM      7  C   UNL     1       2.284   0.100  -0.173  0.00  0.00    +0.025 A 
ATOM      8  C   UNL     1       3.466  -0.605  -0.187  0.00  0.00    +0.028 A 
ATOM      9  C   UNL     1       4.681   0.073  -0.187  0.00  0.00    +0.047 A 
ATOM     10  N   UNL     1       5.995  -0.342  -0.198  0.00  0.00    -0.358 N 
ATOM     11  H   UNL     1       6.288  -1.267  -0.209  0.00  0.00    +0.166 HD
ENDROOT
BRANCH   6  12
ATOM     12  N   UNL     1       1.077   2.197  -0.145  0.00  0.00    -0.281 N 
ATOM     13  C   UNL     1       0.988   3.373   0.508  0.00  0.00    +0.255 C 
ATOM     14  O   UNL     1       1.932   3.781   1.159  0.00  0.00    -0.269 OA
ATOM     15  H   UNL     1       0.302   1.837  -0.604  0.00  0.00    +0.155 HD
BRANCH  13  16
ATOM     16  C   UNL     1      -0.248   4.157   0.438  0.00  0.00    +0.074 A 
ATOM     17  C   UNL     1      -0.545   5.374   1.031  0.00  0.00    +0.021 A 
ATOM     18  C   UNL     1      -1.794   5.895   0.798  0.00  0.00    +0.008 A 
ATOM     19  C   UNL     1      -2.663   5.208   0.012  0.00  0.00    +0.046 A 
ATOM     20  S   UNL     1      -1.759   3.799  -0.440  0.00  0.00    -0.092 S 
ENDBRANCH  13  16
ENDBRANCH   6  12
BRANCH   3  21
ATOM     21  C   UNL     1       6.636   3.284  -0.168  0.00  0.00    +0.153 C 
BRANCH  21  22
ATOM     22  C   UNL     1       6.469   3.874   1.209  0.00  0.00    +0.066 A 
ATOM     23  C   UNL     1       7.570   4.385   1.871  0.00  0.00    +0.025 A 
ATOM     24  C   UNL     1       7.404   4.932   3.134  0.00  0.00    +0.003 A 
ATOM     25  C   UNL     1       6.135   4.934   3.691  0.00  0.00    +0.020 A 
ATOM     26  C   UNL     1       5.083   4.400   2.972  0.00  0.00    +0.111 A 
ATOM     27  N   UNL     1       5.276   3.893   1.770  0.00  0.00    -0.258 NA
ENDBRANCH  21  22
BRANCH  21  28
ATOM     28  N   UNL     1       5.898   4.094  -1.139  0.00  0.00    -0.318 N 
ATOM     29  H   UNL     1       4.992   3.851  -1.385  0.00  0.00    +0.148 HD
BRANCH  28  30
ATOM     30  C   UNL     1       6.497   5.211  -1.710  0.00  0.00    +0.097 A 
ATOM     31  C   UNL     1       7.795   5.557  -1.350  0.00  0.00    +0.041 A 
ATOM     32  C   UNL     1       8.381   6.668  -1.930  0.00  0.00    +0.005 A 
ATOM     33  C   UNL     1       7.641   7.404  -2.846  0.00  0.00    +0.018 A 
ATOM     34  C   UNL     1       6.356   7.007  -3.153  0.00  0.00    +0.084 A 
ATOM     35  N   UNL     1       5.750   5.918  -2.607  0.00  0.00    -0.350 N 
ATOM     36  H   UNL     1       4.792   5.645  -2.855  0.00  0.00    +0.166 HD
ENDBRANCH  28  30
ENDBRANCH  21  28
ENDBRANCH   3  21
TORSDOF 6
