REMARK  Name = ZINC12551008
REMARK  1 active torsions:
REMARK  status: ('A' for Active; 'I' for Inactive)
REMARK    1  A    between atoms: C_3  and  C_9
REMARK                            x       y       z     vdW  Elec       q    Type
REMARK                         _______ _______ _______ _____ _____    ______ ____
ROOT
ATOM      1  C   UNL     1       3.671   2.187  -0.022  0.00  0.00    +0.211 C 
ATOM      2  N   UNL     1       3.427   3.575  -0.455  0.00  0.00    -0.294 N 
ATOM      3  C   UNL     1       2.974   4.502   0.447  0.00  0.00    +0.160 C 
ATOM      4  N   UNL     1       2.191   5.535   0.010  0.00  0.00    -0.332 N 
ATOM      5  N   UNL     1       3.277   4.419   1.731  0.00  0.00    -0.302 N 
ATOM      6  C   UNL     1       4.001   3.355   2.155  0.00  0.00    +0.213 A 
ATOM      7  N   UNL     1       4.222   2.261   1.336  0.00  0.00    -0.286 N 
ATOM      8  C   UNL     1       4.994   1.361   2.033  0.00  0.00    +0.076 A 
ATOM      9  C   UNL     1       5.537   0.117   1.738  0.00  0.00    +0.077 A 
ATOM     10  C   UNL     1       6.289  -0.547   2.688  0.00  0.00    +0.164 A 
ATOM     11  C   UNL     1       6.507   0.020   3.940  0.00  0.00    +0.164 A 
ATOM     12  C   UNL     1       5.973   1.253   4.250  0.00  0.00    +0.079 A 
ATOM     13  C   UNL     1       5.211   1.938   3.299  0.00  0.00    +0.095 A 
ATOM     14  N   UNL     1       4.571   3.146   3.313  0.00  0.00    -0.212 NA
ATOM     15  O   UNL     1       7.255  -0.653   4.863  0.00  0.00    -0.488 OA
ATOM     16  C   UNL     1       6.673  -1.847   5.390  0.00  0.00    +0.232 C 
ATOM     17  C   UNL     1       6.946  -3.030   4.474  0.00  0.00    +0.082 C 
ATOM     18  C   UNL     1       6.276  -2.878   3.118  0.00  0.00    +0.232 C 
ATOM     19  O   UNL     1       6.825  -1.771   2.401  0.00  0.00    -0.488 OA
ATOM     20  H   UNL     1       3.586   3.832  -1.377  0.00  0.00    +0.151 HD
ATOM     21  H   UNL     1       1.962   5.606  -0.930  0.00  0.00    +0.145 HD
ATOM     22  H   UNL     1       1.865   6.197   0.639  0.00  0.00    +0.145 HD
ATOM     23  H   UNL     1       2.989   5.103   2.355  0.00  0.00    +0.171 HD
ENDROOT
BRANCH   1  26
ATOM     24  C   UNL     1      -0.017   1.379   0.010  0.00  0.00    +0.016 A 
ATOM     25  C   UNL     1       1.171   2.087   0.002  0.00  0.00    +0.011 A 
ATOM     26  C   UNL     1       2.377   1.414  -0.013  0.00  0.00    +0.028 A 
ATOM     27  C   UNL     1       2.398   0.030  -0.021  0.00  0.00    +0.131 A 
ATOM     28  C   UNL     1       1.209  -0.679  -0.013  0.00  0.00    +0.054 A 
ATOM     29  C   UNL     1       0.002  -0.004   0.002  0.00  0.00    +0.021 A 
ATOM     30 BR   UNL     1      -1.623  -0.972   0.012  0.00  0.00    -0.050 Br
ATOM     31  F   UNL     1       3.577  -0.629  -0.036  0.00  0.00    -0.205 F 
ENDBRANCH   1  26
TORSDOF 1
