REMARK  Name = ZINC38053603
REMARK  3 active torsions:
REMARK  status: ('A' for Active; 'I' for Inactive)
REMARK    1  A    between atoms: C_3  and  N_14
REMARK    2  A    between atoms: C_4  and  C_11
REMARK    3  A    between atoms: C_6  and  C_7
REMARK                            x       y       z     vdW  Elec       q    Type
REMARK                         _______ _______ _______ _____ _____    ______ ____
ROOT
ATOM      1  C   UNL     1      -0.034   1.347   0.030  0.00  0.00    +0.014 A 
ATOM      2  C   UNL     1       1.125   2.078   0.205  0.00  0.00    +0.029 A 
ATOM      3  C   UNL     1       2.358   1.443   0.171  0.00  0.00    +0.076 A 
ATOM      4  C   UNL     1       2.421   0.059  -0.042  0.00  0.00    +0.038 A 
ATOM      5  C   UNL     1       1.243  -0.667  -0.217  0.00  0.00    +0.025 A 
ATOM      6  C   UNL     1       0.025  -0.020  -0.180  0.00  0.00    +0.056 A 
ENDROOT
BRANCH   4   7
ATOM      7  C   UNL     1       3.729  -0.627  -0.080  0.00  0.00    +0.096 C 
ATOM      8  N   UNL     1       3.988  -1.615   0.775  0.00  0.00    -0.387 N 
ATOM      9  N   UNL     1       4.649  -0.258  -0.970  0.00  0.00    -0.344 N 
ATOM     10  H   UNL     1       3.295  -1.933   1.374  0.00  0.00    +0.157 HD
ATOM     11  H   UNL     1       4.461   0.461  -1.593  0.00  0.00    +0.144 HD
ATOM     12  H   UNL     1       5.508  -0.709  -0.996  0.00  0.00    +0.144 HD
ATOM     13  H   UNL     1       4.871  -2.017   0.799  0.00  0.00    +0.157 HD
ENDBRANCH   4   7
BRANCH   3  14
ATOM     14  N   UNL     1       3.532   2.181   0.347  0.00  0.00    -0.238 N 
ATOM     15  C   UNL     1       3.620   3.534   0.448  0.00  0.00    +0.134 A 
ATOM     16  C   UNL     1       4.927   3.847   0.610  0.00  0.00    +0.079 A 
ATOM     17  C   UNL     1       5.660   2.655   0.609  0.00  0.00    +0.154 A 
ATOM     18  N   UNL     1       4.827   1.658   0.458  0.00  0.00    -0.173 NA
ATOM     19 CL   UNL     1       5.578   5.447   0.788  0.00  0.00    -0.080 Cl
ENDBRANCH   3  14
BRANCH   6  20
ATOM     20  C   UNL     1      -1.247  -0.806  -0.369  0.00  0.00    +0.417 C 
ATOM     21  F   UNL     1      -2.345   0.058  -0.291  0.00  0.00    -0.166 F 
ATOM     22  F   UNL     1      -1.230  -1.427  -1.622  0.00  0.00    -0.166 F 
ATOM     23  F   UNL     1      -1.348  -1.778   0.632  0.00  0.00    -0.166 F 
ENDBRANCH   6  20
TORSDOF 3
