REMARK  Name = ZINC40796541
REMARK  6 active torsions:
REMARK  status: ('A' for Active; 'I' for Inactive)
REMARK    1  A    between atoms: C_1  and  C_2
REMARK    2  A    between atoms: C_2  and  C_13
REMARK    3  A    between atoms: N_15  and  C_16
REMARK    4  A    between atoms: C_19  and  S_22
REMARK    5  A    between atoms: S_22  and  N_25
REMARK    6  A    between atoms: N_25  and  C_26
REMARK                            x       y       z     vdW  Elec       q    Type
REMARK                         _______ _______ _______ _____ _____    ______ ____
ROOT
ATOM      1  C   UNL     1       0.709  -0.491  -1.236  0.00  0.00    +0.270 C 
ATOM      2  O   UNL     1       0.069  -0.790  -2.222  0.00  0.00    -0.271 OA
ATOM      3  N   UNL     1       2.053  -0.599  -1.247  0.00  0.00    -0.282 N 
ATOM      4  H   UNL     1       2.570  -0.297  -0.484  0.00  0.00    +0.155 HD
ENDROOT
BRANCH   1   6
ATOM      5  C   UNL     1      -0.020   1.532  -0.002  0.00  0.00    +0.076 C 
ATOM      6  C   UNL     1       0.003   0.002   0.000  0.00  0.00    +0.258 C 
ATOM      7  C   UNL     1      -1.412  -0.521   0.011  0.00  0.00    +0.270 C 
ATOM      8  O   UNL     1      -2.310   0.144  -0.460  0.00  0.00    -0.271 OA
ATOM      9  N   UNL     1      -1.673  -1.731   0.547  0.00  0.00    -0.279 N 
ATOM     10  C   UNL     1      -0.646  -2.428   1.198  0.00  0.00    +0.076 A 
ATOM     11  C   UNL     1      -0.812  -3.756   1.557  0.00  0.00    +0.027 A 
ATOM     12  C   UNL     1       0.215  -4.432   2.187  0.00  0.00    +0.002 A 
ATOM     13  C   UNL     1       1.408  -3.788   2.459  0.00  0.00    +0.004 A 
ATOM     14  C   UNL     1       1.579  -2.461   2.108  0.00  0.00    +0.047 A 
ATOM     15  C   UNL     1       0.552  -1.775   1.482  0.00  0.00    +0.144 A 
ATOM     16  O   UNL     1       0.696  -0.462   1.161  0.00  0.00    -0.465 OA
ATOM     17  H   UNL     1      -2.562  -2.115   0.482  0.00  0.00    +0.155 HD
ENDBRANCH   1   6
BRANCH   3  18
ATOM     18  C   UNL     1       2.701  -1.148  -2.359  0.00  0.00    +0.034 A 
ATOM     19  C   UNL     1       3.841  -1.923  -2.187  0.00  0.00    +0.025 A 
ATOM     20  C   UNL     1       4.479  -2.463  -3.286  0.00  0.00    +0.031 A 
ATOM     21  C   UNL     1       3.985  -2.232  -4.557  0.00  0.00    +0.111 A 
ATOM     22  C   UNL     1       2.851  -1.461  -4.731  0.00  0.00    +0.031 A 
ATOM     23  C   UNL     1       2.204  -0.923  -3.636  0.00  0.00    +0.025 A 
BRANCH  21  24
ATOM     24  S   UNL     1       4.802  -2.923  -5.957  0.00  0.00    +0.093 S 
ATOM     25  O   UNL     1       4.457  -2.110  -7.070  0.00  0.00    -0.148 OA
ATOM     26  O   UNL     1       6.150  -3.151  -5.569  0.00  0.00    -0.148 OA
BRANCH  24  27
ATOM     27  N   UNL     1       4.130  -4.411  -6.231  0.00  0.00    -0.070 NA
BRANCH  27  28
ATOM     28  C   UNL     1       4.582  -5.193  -7.283  0.00  0.00    +0.201 A 
ATOM     29  N   UNL     1       5.530  -4.922  -8.154  0.00  0.00    -0.231 NA
ATOM     30  C   UNL     1       5.846  -5.781  -9.107  0.00  0.00    +0.120 A 
ATOM     31  C   UNL     1       5.153  -6.944  -9.143  0.00  0.00    +0.068 A 
ATOM     32  S   UNL     1       4.057  -6.722  -7.751  0.00  0.00    -0.058 S 
ENDBRANCH  27  28
ENDBRANCH  24  27
ENDBRANCH  21  24
ENDBRANCH   3  18
TORSDOF 5
