REMARK  Name = ZINC02396168
REMARK  5 active torsions:
REMARK  status: ('A' for Active; 'I' for Inactive)
REMARK    1  A    between atoms: C_1  and  C_2
REMARK    2  A    between atoms: C_5  and  C_8
REMARK    3  A    between atoms: C_9  and  C_19
REMARK    4  A    between atoms: N_21  and  N_22
REMARK    5  A    between atoms: C_23  and  C_24
REMARK                            x       y       z     vdW  Elec       q    Type
REMARK                         _______ _______ _______ _____ _____    ______ ____
ROOT
ATOM      1  C   UNL     1      -6.067   1.447   0.044  0.00  0.00    +0.109 A 
ATOM      2  C   UNL     1      -4.790   0.897   0.030  0.00  0.00    +0.177 A 
ATOM      3  N   UNL     1      -4.911  -0.440   0.023  0.00  0.00    -0.124 NA
ATOM      4  N   UNL     1      -6.153  -0.771   0.027  0.00  0.00    -0.058 NA
ATOM      5  N   UNL     1      -6.935   0.392   0.037  0.00  0.00    -0.187 N 
ATOM      6  C   UNL     1      -8.332   0.460   0.043  0.00  0.00    +0.241 A 
ATOM      7  C   UNL     1      -9.246  -0.686   0.041  0.00  0.00    +0.206 A 
ATOM      8  N   UNL     1     -10.470  -0.234   0.050  0.00  0.00    -0.032 NA
ATOM      9  O   UNL     1     -10.410   1.181   0.058  0.00  0.00    -0.239 OA
ATOM     10  N   UNL     1      -9.042   1.552   0.058  0.00  0.00    -0.027 NA
ATOM     11  N   UNL     1      -8.873  -2.025   0.032  0.00  0.00    -0.337 N 
ATOM     12  H   UNL     1      -7.934  -2.267   0.026  0.00  0.00    +0.144 HD
ATOM     13  H   UNL     1      -9.552  -2.718   0.031  0.00  0.00    +0.144 HD
ENDROOT
BRANCH   1  18
ATOM     14  C   UNL     1      -7.421   7.038   0.110  0.00  0.00    +0.044 C 
ATOM     15  C   UNL     1      -7.067   5.574   0.093  0.00  0.00    -0.050 A 
ATOM     16  C   UNL     1      -6.074   5.096   0.930  0.00  0.00    +0.004 A 
ATOM     17  C   UNL     1      -5.744   3.756   0.919  0.00  0.00    +0.010 A 
ATOM     18  C   UNL     1      -6.415   2.882   0.061  0.00  0.00    +0.003 A 
ATOM     19  C   UNL     1      -7.412   3.372  -0.784  0.00  0.00    +0.010 A 
ATOM     20  C   UNL     1      -7.735   4.713  -0.760  0.00  0.00    +0.004 A 
ENDBRANCH   1  18
BRANCH   2  21
ATOM     21  C   UNL     1      -3.525   1.651   0.028  0.00  0.00    +0.286 C 
ATOM     22  O   UNL     1      -3.542   2.867   0.034  0.00  0.00    -0.267 OA
ATOM     23  N   UNL     1      -2.349   0.993   0.019  0.00  0.00    -0.202 N 
ATOM     24  H   UNL     1      -2.336   0.023   0.013  0.00  0.00    +0.178 HD
BRANCH  23  25
ATOM     25  N   UNL     1      -1.145   1.709   0.017  0.00  0.00    -0.187 NA
ATOM     26  C   UNL     1      -0.013   1.076   0.008  0.00  0.00    +0.141 C 
BRANCH  26  27
ATOM     27  C   UNL     1       1.254   1.830  -0.000  0.00  0.00    +0.031 A 
ATOM     28  C   UNL     1       1.239   3.228   0.002  0.00  0.00    +0.051 A 
ATOM     29  C   UNL     1       2.430   3.928  -0.002  0.00  0.00    +0.021 A 
ATOM     30  C   UNL     1       3.635   3.248  -0.017  0.00  0.00    +0.003 A 
ATOM     31  C   UNL     1       3.658   1.865  -0.023  0.00  0.00    +0.021 A 
ATOM     32  C   UNL     1       2.476   1.151  -0.015  0.00  0.00    +0.051 A 
ATOM     33 CL   UNL     1       2.507  -0.584  -0.025  0.00  0.00    -0.083 Cl
ATOM     34 CL   UNL     1      -0.272   4.082   0.014  0.00  0.00    -0.083 Cl
ENDBRANCH  26  27
ENDBRANCH  23  25
ENDBRANCH   2  21
TORSDOF 4
