REMARK  Name = ZINC63351308
REMARK  4 active torsions:
REMARK  status: ('A' for Active; 'I' for Inactive)
REMARK    1  A    between atoms: C_1  and  C_2
REMARK    2  A    between atoms: C_5  and  C_8
REMARK    3  A    between atoms: N_9  and  N_10
REMARK    4  A    between atoms: C_30  and  C_32
REMARK                            x       y       z     vdW  Elec       q    Type
REMARK                         _______ _______ _______ _____ _____    ______ ____
ROOT
ATOM      1  N   UNL     1      -0.015  -6.301   1.094  0.00  0.00    -0.183 N 
ATOM      2  C   UNL     1      -0.009  -7.072  -0.163  0.00  0.00    +0.230 C 
ATOM      3  C   UNL     1       0.943  -8.239  -0.006  0.00  0.00    +0.236 C 
ATOM      4  O   UNL     1       1.726  -8.541  -0.882  0.00  0.00    -0.274 OA
ATOM      5  N   UNL     1       0.879  -8.939   1.174  0.00  0.00    -0.279 N 
ATOM      6  C   UNL     1      -0.156  -8.516   2.093  0.00  0.00    +0.169 C 
ATOM      7  C   UNL     1      -0.105  -7.018   2.253  0.00  0.00    +0.256 C 
ATOM      8  O   UNL     1      -0.144  -6.483   3.342  0.00  0.00    -0.272 OA
ATOM      9  C   UNL     1      -0.275  -9.230   3.414  0.00  0.00    +0.065 C 
ATOM     10  C   UNL     1       0.906 -10.140   3.612  0.00  0.00    -0.034 C 
ATOM     11  C   UNL     1       1.651 -10.413   4.674  0.00  0.00    -0.001 A 
ATOM     12  C   UNL     1       1.571  -9.956   6.071  0.00  0.00    +0.010 A 
ATOM     13  C   UNL     1       2.523 -10.436   6.915  0.00  0.00    +0.001 A 
ATOM     14  C   UNL     1       3.534 -11.315   6.514  0.00  0.00    +0.002 A 
ATOM     15  C   UNL     1       3.681 -11.790   5.252  0.00  0.00    +0.026 A 
ATOM     16  C   UNL     1       2.737 -11.358   4.274  0.00  0.00    +0.043 A 
ATOM     17  N   UNL     1       2.637 -11.659   3.014  0.00  0.00    -0.375 N 
ATOM     18  C   UNL     1       1.466 -10.969   2.458  0.00  0.00    +0.131 C 
ATOM     19  C   UNL     1       1.879  -9.977   1.381  0.00  0.00    +0.133 C 
ATOM     20  H   UNL     1       3.236 -12.241   2.522  0.00  0.00    +0.160 HD
ENDROOT
BRANCH  19  21
ATOM     21  C   UNL     1       3.167  -9.336   1.827  0.00  0.00    -0.025 A 
ATOM     22  C   UNL     1       3.142  -8.286   2.726  0.00  0.00    +0.005 A 
ATOM     23  C   UNL     1       4.324  -7.698   3.136  0.00  0.00    +0.000 A 
ATOM     24  C   UNL     1       5.531  -8.160   2.647  0.00  0.00    +0.000 A 
ATOM     25  C   UNL     1       5.557  -9.210   1.749  0.00  0.00    +0.000 A 
ATOM     26  C   UNL     1       4.375  -9.802   1.343  0.00  0.00    +0.005 A 
ENDBRANCH  19  21
BRANCH   1  28
ATOM     27  C   UNL     1       0.049  -4.247  -0.021  0.00  0.00    +0.138 C 
ATOM     28  N   UNL     1       0.072  -4.903   1.099  0.00  0.00    -0.184 NA
BRANCH  27  33
ATOM     29  C   UNL     1      -0.018   1.504   0.014  0.00  0.00    +0.044 C 
ATOM     30  C   UNL     1      -0.001  -0.003   0.005  0.00  0.00    -0.050 A 
ATOM     31  C   UNL     1      -0.009  -0.685  -1.199  0.00  0.00    +0.004 A 
ATOM     32  C   UNL     1       0.006  -2.064  -1.215  0.00  0.00    +0.010 A 
ATOM     33  C   UNL     1       0.032  -2.773  -0.012  0.00  0.00    -0.005 A 
ATOM     34  C   UNL     1       0.041  -2.078   1.200  0.00  0.00    +0.010 A 
ATOM     35  C   UNL     1       0.030  -0.699   1.201  0.00  0.00    +0.004 A 
ENDBRANCH  27  33
ENDBRANCH   1  28
TORSDOF 3
