REMARK  Name = ZINC46032161
REMARK  7 active torsions:
REMARK  status: ('A' for Active; 'I' for Inactive)
REMARK    1  A    between atoms: C_1  and  C_2
REMARK    2  A    between atoms: C_7  and  N_8
REMARK    3  A    between atoms: N_14  and  C_17
REMARK    4  A    between atoms: C_17  and  C_18
REMARK    5  A    between atoms: C_26  and  C_28
REMARK    6  A    between atoms: C_31  and  O_34
REMARK    7  A    between atoms: O_34  and  C_35
REMARK                            x       y       z     vdW  Elec       q    Type
REMARK                         _______ _______ _______ _____ _____    ______ ____
ROOT
ATOM      1  C   UNL     1       1.515   1.998   8.020  0.00  0.00    +0.140 C 
ENDROOT
BRANCH   1   8
ATOM      2  N   UNL     1       0.025  -0.014   2.417  0.00  0.00    -0.269 N 
ATOM      3  C   UNL     1      -0.056  -0.693   3.578  0.00  0.00    +0.307 C 
ATOM      4  O   UNL     1      -0.041  -1.909   3.574  0.00  0.00    -0.252 OA
ATOM      5  N   UNL     1      -0.156  -0.025   4.745  0.00  0.00    -0.283 N 
ATOM      6  C   UNL     1      -0.293   1.439   4.766  0.00  0.00    +0.124 C 
ATOM      7  C   UNL     1       0.760   2.013   5.719  0.00  0.00    +0.104 C 
ATOM      8  N   UNL     1       0.639   1.359   7.029  0.00  0.00    -0.294 NA
ATOM      9  C   UNL     1       0.917  -0.081   6.933  0.00  0.00    +0.104 C 
ATOM     10  C   UNL     1      -0.136  -0.741   6.029  0.00  0.00    +0.124 C 
ATOM     11  H   UNL     1       0.056   0.956   2.424  0.00  0.00    +0.156 HD
BRANCH   2  18
ATOM     12  C   UNL     1      -0.955   1.295   0.089  0.00  0.00    +0.045 C 
ATOM     13  C   UNL     1      -0.401  -0.106   0.042  0.00  0.00    -0.029 A 
ATOM     14  C   UNL     1      -0.354  -0.790  -1.157  0.00  0.00    +0.006 A 
ATOM     15  C   UNL     1       0.153  -2.075  -1.202  0.00  0.00    +0.020 A 
ATOM     16  C   UNL     1       0.616  -2.680  -0.046  0.00  0.00    +0.043 A 
ATOM     17  C   UNL     1       0.572  -2.000   1.156  0.00  0.00    +0.043 A 
ATOM     18  C   UNL     1       0.067  -0.707   1.202  0.00  0.00    +0.039 A 
ATOM     19 CL   UNL     1       1.252  -4.294  -0.107  0.00  0.00    -0.083 Cl
ENDBRANCH   2  18
ENDBRANCH   1   8
BRANCH   1  20
ATOM     20  C   UNL     1       1.189   1.470   9.393  0.00  0.00    +0.063 A 
ATOM     21  C   UNL     1       2.117   0.737  10.102  0.00  0.00    +0.096 A 
ATOM     22  C   UNL     1       1.797   0.258  11.372  0.00  0.00    +0.275 A 
ATOM     23  O   UNL     1       2.615  -0.392  12.005  0.00  0.00    -0.266 OA
ATOM     24  N   UNL     1       0.567   0.516  11.907  0.00  0.00    -0.171 N 
ATOM     25  C   UNL     1      -0.293   1.250  11.136  0.00  0.00    +0.199 A 
ATOM     26  N   UNL     1       0.002   1.708   9.946  0.00  0.00    -0.225 NA
ATOM     27  S   UNL     1      -1.740   1.360  12.166  0.00  0.00    -0.028 S 
ATOM     28  C   UNL     1      -1.114   0.425  13.553  0.00  0.00    +0.132 A 
ATOM     29  N   UNL     1       0.091   0.113  13.151  0.00  0.00    -0.154 NA
BRANCH  28  30
ATOM     30  C   UNL     1      -1.785   0.090  14.827  0.00  0.00    +0.009 A 
ATOM     31  C   UNL     1      -1.113  -0.655  15.797  0.00  0.00    +0.014 A 
ATOM     32  C   UNL     1      -1.742  -0.965  16.984  0.00  0.00    +0.046 A 
ATOM     33  C   UNL     1      -3.043  -0.538  17.215  0.00  0.00    +0.120 A 
ATOM     34  C   UNL     1      -3.715   0.203  16.252  0.00  0.00    +0.046 A 
ATOM     35  C   UNL     1      -3.091   0.523  15.065  0.00  0.00    +0.014 A 
BRANCH  33  36
ATOM     36  O   UNL     1      -3.659  -0.845  18.386  0.00  0.00    -0.495 OA
ATOM     37  C   UNL     1      -4.997  -0.374  18.558  0.00  0.00    +0.277 C 
ENDBRANCH  33  36
ENDBRANCH  28  30
ENDBRANCH   1  20
TORSDOF 5
