REMARK  Name = ZINC16401789
REMARK  9 active torsions:
REMARK  status: ('A' for Active; 'I' for Inactive)
REMARK    1  A    between atoms: C_6  and  C_7
REMARK    2  A    between atoms: C_7  and  O_8
REMARK    3  A    between atoms: O_8  and  C_9
REMARK    4  A    between atoms: C_14  and  C_15
REMARK    5  A    between atoms: C_15  and  N_47
REMARK    6  A    between atoms: C_16  and  C_17
REMARK    7  A    between atoms: C_16  and  N_47
REMARK    8  A    between atoms: C_17  and  N_18
REMARK    9  A    between atoms: C_19  and  C_21
REMARK                            x       y       z     vdW  Elec       q    Type
REMARK                         _______ _______ _______ _____ _____    ______ ____
ROOT
ATOM      1  C   UNL     1      -2.575   2.783   4.032  0.00  0.00    -0.043 C 
ENDROOT
BRANCH   1   7
ATOM      2  C   UNL     1      -2.917   2.995   1.558  0.00  0.00    +0.122 A 
ATOM      3  C   UNL     1      -3.660   3.414   0.464  0.00  0.00    +0.047 A 
ATOM      4  C   UNL     1      -4.854   4.081   0.656  0.00  0.00    +0.019 A 
ATOM      5  C   UNL     1      -5.309   4.331   1.939  0.00  0.00    +0.018 A 
ATOM      6  C   UNL     1      -4.569   3.915   3.031  0.00  0.00    +0.020 A 
ATOM      7  C   UNL     1      -3.377   3.243   2.842  0.00  0.00    -0.022 A 
ATOM      8 BR   UNL     1      -6.944   5.245   2.199  0.00  0.00    -0.050 Br
BRANCH   2   9
ATOM      9  O   UNL     1      -1.741   2.339   1.370  0.00  0.00    -0.487 OA
BRANCH   9  10
ATOM     10  C   UNL     1      -1.332   2.114   0.020  0.00  0.00    +0.264 C 
BRANCH  10  16
ATOM     11  C   UNL     1       1.171   2.086   0.002  0.00  0.00    +0.008 A 
ATOM     12  C   UNL     1       2.377   1.412  -0.013  0.00  0.00    +0.020 A 
ATOM     13  C   UNL     1       2.397   0.029  -0.021  0.00  0.00    +0.041 A 
ATOM     14  C   UNL     1       1.208  -0.679  -0.013  0.00  0.00    +0.020 A 
ATOM     15  C   UNL     1       0.002  -0.004   0.002  0.00  0.00    +0.008 A 
ATOM     16  C   UNL     1      -0.017   1.378   0.010  0.00  0.00    -0.010 A 
ATOM     17 CL   UNL     1       3.912  -0.818  -0.039  0.00  0.00    -0.084 Cl
ENDBRANCH  10  16
ENDBRANCH   9  10
ENDBRANCH   2   9
ENDBRANCH   1   7
BRANCH   1  18
ATOM     18  N   UNL     1      -1.479   3.740   4.276  0.00  0.00    +0.383 N 
ATOM     19  H   UNL     1      -1.876   4.669   4.460  0.00  0.00    -0.085 HD
ATOM     20  H   UNL     1      -0.877   3.784   3.445  0.00  0.00    -0.085 HD
BRANCH  18  21
ATOM     21  C   UNL     1      -0.675   3.314   5.437  0.00  0.00    -0.063 C 
BRANCH  21  22
ATOM     22  C   UNL     1       0.451   4.324   5.665  0.00  0.00    +0.085 C 
BRANCH  22  23
ATOM     23  N   UNL     1       1.254   3.909   6.817  0.00  0.00    -0.312 N 
ATOM     24  C   UNL     1       2.309   4.652   7.207  0.00  0.00    +0.269 C 
ATOM     25  O   UNL     1       2.594   5.667   6.602  0.00  0.00    -0.268 OA
ATOM     26  H   UNL     1       1.027   3.099   7.300  0.00  0.00    +0.149 HD
BRANCH  24  27
ATOM     27  C   UNL     1       3.121   4.231   8.372  0.00  0.00    +0.209 A 
ATOM     28  C   UNL     1       4.307   4.893   8.962  0.00  0.00    +0.192 A 
ATOM     29  N   UNL     1       4.613   4.095   9.959  0.00  0.00    -0.033 NA
ATOM     30  O   UNL     1       3.830   3.174   9.992  0.00  0.00    -0.240 OA
ATOM     31  N   UNL     1       2.967   3.179   9.147  0.00  0.00    -0.042 NA
ATOM     32  N   UNL     1       4.938   6.063   8.562  0.00  0.00    -0.339 N 
ATOM     33  H   UNL     1       4.601   6.559   7.799  0.00  0.00    +0.144 HD
ATOM     34  H   UNL     1       5.714   6.385   9.045  0.00  0.00    +0.144 HD
ENDBRANCH  24  27
ENDBRANCH  22  23
ENDBRANCH  21  22
ENDBRANCH  18  21
ENDBRANCH   1  18
TORSDOF 9
