REMARK  Name = ZINC13252232
REMARK  10 active torsions:
REMARK  status: ('A' for Active; 'I' for Inactive)
REMARK    1  A    between atoms: C_1  and  C_2
REMARK    2  A    between atoms: C_5  and  N_20
REMARK    3  A    between atoms: C_7  and  S_8
REMARK    4  A    between atoms: S_8  and  N_11
REMARK    5  A    between atoms: N_11  and  C_12
REMARK    6  A    between atoms: C_17  and  O_18
REMARK    7  A    between atoms: O_18  and  C_19
REMARK    8  A    between atoms: C_21  and  C_23
REMARK    9  A    between atoms: C_23  and  C_24
REMARK   10  A    between atoms: C_24  and  C_31
REMARK                            x       y       z     vdW  Elec       q    Type
REMARK                         _______ _______ _______ _____ _____    ______ ____
ROOT
ATOM      1  C   UNL     1       0.914   6.520   1.819  0.00  0.00    +0.046 C 
ATOM      2  C   UNL     1       1.834   5.518   2.467  0.00  0.00    -0.024 A 
ATOM      3  C   UNL     1       2.082   5.588   3.826  0.00  0.00    +0.007 A 
ATOM      4  C   UNL     1       2.929   4.675   4.423  0.00  0.00    +0.023 A 
ATOM      5  C   UNL     1       3.528   3.683   3.657  0.00  0.00    +0.035 A 
ATOM      6  C   UNL     1       3.272   3.612   2.294  0.00  0.00    +0.052 A 
ATOM      7  C   UNL     1       2.424   4.528   1.704  0.00  0.00    +0.113 A 
ENDROOT
BRANCH   5   8
ATOM      8  N   UNL     1       4.386   2.756   4.259  0.00  0.00    -0.285 N 
ATOM      9  C   UNL     1       4.142   2.326   5.513  0.00  0.00    +0.218 C 
ATOM     10  O   UNL     1       3.147   2.697   6.098  0.00  0.00    -0.275 OA
ATOM     11  H   UNL     1       5.157   2.422   3.773  0.00  0.00    +0.155 HD
BRANCH   9  12
ATOM     12  C   UNL     1       5.106   1.384   6.187  0.00  0.00    +0.114 C 
BRANCH  12  13
ATOM     13  C   UNL     1       4.877   1.417   7.700  0.00  0.00    +0.080 C 
ATOM     14  C   UNL     1       6.176   1.157   8.414  0.00  0.00    +0.019 C 
ATOM     15  C   UNL     1       7.166   0.344   7.558  0.00  0.00    +0.001 C 
ATOM     16  C   UNL     1       6.487  -0.807   6.791  0.00  0.00    +0.000 C 
ATOM     17  C   UNL     1       5.470  -1.536   7.627  0.00  0.00    +0.000 C 
ATOM     18  C   UNL     1       4.082  -0.919   7.357  0.00  0.00    +0.001 C 
ATOM     19  C   UNL     1       3.872   0.317   8.096  0.00  0.00    +0.019 C 
BRANCH  13  20
ATOM     20  C   UNL     1       4.336   2.766   8.100  0.00  0.00    +0.362 C 
ATOM     21  O   UNL     1       3.268   2.846   8.659  0.00  0.00    -0.246 OA
ATOM     22  O   UNL     1       5.041   3.877   7.837  0.00  0.00    -0.246 OA
ENDBRANCH  13  20
ENDBRANCH  12  13
ENDBRANCH   9  12
ENDBRANCH   5   8
BRANCH   7  23
ATOM     23  S   UNL     1       2.098   4.439  -0.026  0.00  0.00    +0.073 S 
ATOM     24  O   UNL     1       0.685   4.436  -0.173  0.00  0.00    -0.150 OA
ATOM     25  O   UNL     1       2.920   3.401  -0.540  0.00  0.00    -0.150 OA
BRANCH  23  26
ATOM     26  N   UNL     1       2.642   5.851  -0.699  0.00  0.00    -0.213 N 
ATOM     27  H   UNL     1       2.026   6.429  -1.176  0.00  0.00    +0.174 HD
BRANCH  26  28
ATOM     28  C   UNL     1       3.991   6.207  -0.586  0.00  0.00    +0.090 A 
ATOM     29  C   UNL     1       4.966   5.223  -0.521  0.00  0.00    +0.028 A 
ATOM     30  C   UNL     1       6.298   5.576  -0.414  0.00  0.00    +0.002 A 
ATOM     31  C   UNL     1       6.661   6.910  -0.361  0.00  0.00    +0.004 A 
ATOM     32  C   UNL     1       5.693   7.896  -0.421  0.00  0.00    +0.047 A 
ATOM     33  C   UNL     1       4.357   7.550  -0.533  0.00  0.00    +0.142 A 
BRANCH  33  34
ATOM     34  O   UNL     1       3.404   8.519  -0.591  0.00  0.00    -0.493 OA
ATOM     35  C   UNL     1       3.853   9.874  -0.531  0.00  0.00    +0.277 C 
ENDBRANCH  33  34
ENDBRANCH  26  28
ENDBRANCH  23  26
ENDBRANCH   7  23
TORSDOF 8
