REMARK  Name = ZINC35920096
REMARK  5 active torsions:
REMARK  status: ('A' for Active; 'I' for Inactive)
REMARK    1  A    between atoms: C_1  and  C_2
REMARK    2  A    between atoms: C_5  and  N_8
REMARK    3  A    between atoms: C_16  and  O_27
REMARK    4  A    between atoms: N_23  and  C_26
REMARK    5  A    between atoms: O_27  and  C_28
REMARK                            x       y       z     vdW  Elec       q    Type
REMARK                         _______ _______ _______ _____ _____    ______ ____
ROOT
ATOM      1  N   UNL     1      -1.818  -6.013   1.503  0.00  0.00    -0.269 N 
ATOM      2  C   UNL     1      -0.549  -5.829   1.917  0.00  0.00    +0.307 C 
ATOM      3  O   UNL     1      -0.331  -5.307   2.994  0.00  0.00    -0.252 OA
ATOM      4  N   UNL     1       0.478  -6.223   1.139  0.00  0.00    -0.280 N 
ATOM      5  C   UNL     1       1.870  -6.153   1.615  0.00  0.00    +0.116 C 
ATOM      6  C   UNL     1       2.416  -7.579   1.691  0.00  0.00    +0.075 C 
ATOM      7  C   UNL     1       2.098  -8.340   0.432  0.00  0.00    +0.056 A 
ATOM      8  C   UNL     1       1.100  -7.965  -0.435  0.00  0.00    +0.053 A 
ATOM      9  C   UNL     1       0.869  -8.746  -1.571  0.00  0.00    +0.230 A 
ATOM     10  N   UNL     1       1.622  -9.817  -1.785  0.00  0.00    -0.179 NA
ATOM     11  C   UNL     1       2.582 -10.143  -0.932  0.00  0.00    +0.221 A 
ATOM     12  N   UNL     1       2.817  -9.424   0.153  0.00  0.00    -0.219 NA
ATOM     13  N   UNL     1       3.356 -11.262  -1.183  0.00  0.00    -0.303 N 
ATOM     14  C   UNL     1       4.360 -11.720  -0.210  0.00  0.00    +0.089 C 
ATOM     15  C   UNL     1       4.144 -13.216   0.043  0.00  0.00    -0.060 C 
ATOM     16  N   UNL     1       4.168 -13.936  -1.237  0.00  0.00    +0.380 N 
ATOM     17  C   UNL     1       3.038 -13.509  -2.072  0.00  0.00    -0.060 C 
ATOM     18  C   UNL     1       3.195 -12.031  -2.426  0.00  0.00    +0.089 C 
ATOM     19  C   UNL     1       4.072 -15.380  -0.987  0.00  0.00    -0.096 C 
ATOM     20  C   UNL     1       0.253  -6.745  -0.215  0.00  0.00    +0.151 C 
ATOM     21  H   UNL     1      -1.994  -6.496   0.680  0.00  0.00    +0.156 HD
ATOM     22  H   UNL     1       5.033 -13.737  -1.717  0.00  0.00    -0.082 HD
ENDROOT
BRANCH   1  27
ATOM     23  C   UNL     1      -6.130  -3.969   4.572  0.00  0.00    +0.044 C 
ATOM     24  C   UNL     1      -4.984  -4.512   3.757  0.00  0.00    -0.050 A 
ATOM     25  C   UNL     1      -5.074  -4.545   2.377  0.00  0.00    +0.005 A 
ATOM     26  C   UNL     1      -4.026  -5.042   1.627  0.00  0.00    +0.023 A 
ATOM     27  C   UNL     1      -2.881  -5.509   2.260  0.00  0.00    +0.035 A 
ATOM     28  C   UNL     1      -2.795  -5.474   3.646  0.00  0.00    +0.023 A 
ATOM     29  C   UNL     1      -3.844  -4.971   4.389  0.00  0.00    +0.005 A 
ENDBRANCH   1  27
BRANCH   9  30
ATOM     30  O   UNL     1      -0.113  -8.413  -2.444  0.00  0.00    -0.437 OA
BRANCH  30  31
ATOM     31  C   UNL     1      -0.269  -9.182  -3.553  0.00  0.00    +0.133 A 
ATOM     32  C   UNL     1      -1.088 -10.302  -3.512  0.00  0.00    +0.046 A 
ATOM     33  C   UNL     1      -1.246 -11.083  -4.640  0.00  0.00    +0.006 A 
ATOM     34  C   UNL     1      -0.588 -10.752  -5.810  0.00  0.00    +0.038 A 
ATOM     35  C   UNL     1       0.231  -9.636  -5.854  0.00  0.00    +0.127 A 
ATOM     36  C   UNL     1       0.386  -8.847  -4.728  0.00  0.00    +0.084 A 
ATOM     37  F   UNL     1       0.873  -9.315  -6.998  0.00  0.00    -0.205 F 
ENDBRANCH  30  31
ENDBRANCH   9  30
TORSDOF 3
