REMARK  Name = ZINC13346080
REMARK  10 active torsions:
REMARK  status: ('A' for Active; 'I' for Inactive)
REMARK    1  A    between atoms: C_1  and  C_2
REMARK    2  A    between atoms: C_2  and  N_3
REMARK    3  A    between atoms: N_3  and  C_4
REMARK    4  A    between atoms: C_7  and  C_13
REMARK    5  A    between atoms: C_9  and  N_10
REMARK    6  A    between atoms: N_15  and  N_16
REMARK    7  A    between atoms: N_16  and  S_17
REMARK    8  A    between atoms: S_17  and  C_20
REMARK    9  A    between atoms: C_23  and  C_26
REMARK   10  A    between atoms: C_27  and  C_28
REMARK                            x       y       z     vdW  Elec       q    Type
REMARK                         _______ _______ _______ _____ _____    ______ ____
ROOT
ATOM      1  C   UNL     1       1.221  -6.026   2.107  0.00  0.00    +0.259 C 
ATOM      2  O   UNL     1       1.848  -6.428   3.068  0.00  0.00    -0.269 OA
ATOM      3  N   UNL     1       0.626  -6.905   1.276  0.00  0.00    -0.228 N 
ATOM      4  H   UNL     1       0.126  -6.585   0.509  0.00  0.00    +0.171 HD
ENDROOT
BRANCH   1   8
ATOM      5  C   UNL     1       0.902  -1.857   1.370  0.00  0.00    +0.058 A 
ATOM      6  C   UNL     1       0.288  -2.763   0.510  0.00  0.00    +0.026 A 
ATOM      7  C   UNL     1       0.389  -4.115   0.746  0.00  0.00    +0.015 A 
ATOM      8  C   UNL     1       1.110  -4.578   1.851  0.00  0.00    +0.040 A 
ATOM      9  C   UNL     1       1.726  -3.665   2.712  0.00  0.00    +0.047 A 
ATOM     10  C   UNL     1       1.625  -2.315   2.468  0.00  0.00    +0.148 A 
BRANCH  10  11
ATOM     11  N   UNL     1       2.281  -1.348   3.376  0.00  0.00    +0.058 N 
ATOM     12  O   UNL     1       3.368  -1.607   3.860  0.00  0.00    -0.126 OA
ATOM     13  O   UNL     1       1.733  -0.292   3.641  0.00  0.00    -0.126 OA
ENDBRANCH  10  11
BRANCH   5  14
ATOM     14  N   UNL     1       0.798  -0.491   1.128  0.00  0.00    -0.342 N 
ATOM     15  H   UNL     1       1.294   0.137   1.675  0.00  0.00    +0.146 HD
BRANCH  14  17
ATOM     16  C   UNL     1       0.003   1.526  -0.004  0.00  0.00    +0.024 C 
ATOM     17  C   UNL     1      -0.062  -0.002   0.048  0.00  0.00    +0.098 C 
ENDBRANCH  14  17
ENDBRANCH   5  14
ENDBRANCH   1   8
BRANCH   3  18
ATOM     18  N   UNL     1       0.731  -8.281   1.519  0.00  0.00    -0.108 NA
ATOM     19  H   UNL     1       1.605  -8.692   1.612  0.00  0.00    +0.172 HD
BRANCH  18  20
ATOM     20  S   UNL     1      -0.636  -9.206   1.649  0.00  0.00    +0.074 S 
ATOM     21  O   UNL     1      -0.206 -10.556   1.748  0.00  0.00    -0.152 OA
ATOM     22  O   UNL     1      -1.450  -8.591   2.638  0.00  0.00    -0.152 OA
BRANCH  20  23
ATOM     23  C   UNL     1      -1.506  -9.065   0.123  0.00  0.00    +0.107 A 
ATOM     24  C   UNL     1      -2.450  -8.066  -0.042  0.00  0.00    +0.029 A 
ATOM     25  C   UNL     1      -3.131  -7.946  -1.235  0.00  0.00    +0.010 A 
ATOM     26  C   UNL     1      -2.873  -8.844  -2.276  0.00  0.00    -0.025 A 
ATOM     27  C   UNL     1      -1.922  -9.854  -2.100  0.00  0.00    +0.010 A 
ATOM     28  C   UNL     1      -1.246  -9.957  -0.903  0.00  0.00    +0.029 A 
BRANCH  26  29
ATOM     29  C   UNL     1      -3.600  -8.726  -3.551  0.00  0.00    +0.015 C 
ATOM     30  C   UNL     1      -4.517  -7.750  -3.717  0.00  0.00    +0.096 C 
BRANCH  30  31
ATOM     31  C   UNL     1      -5.239  -7.634  -4.984  0.00  0.00    +0.380 C 
ATOM     32  O   UNL     1      -5.013  -8.416  -5.887  0.00  0.00    -0.241 OA
ATOM     33  O   UNL     1      -6.156  -6.658  -5.150  0.00  0.00    -0.241 OA
ENDBRANCH  30  31
ENDBRANCH  26  29
ENDBRANCH  20  23
ENDBRANCH  18  20
ENDBRANCH   3  18
TORSDOF 9
