REMARK  Name = ZINC39691115
REMARK  8 active torsions:
REMARK  status: ('A' for Active; 'I' for Inactive)
REMARK    1  A    between atoms: C_1  and  C_2
REMARK    2  A    between atoms: C_7  and  C_8
REMARK    3  A    between atoms: C_8  and  C_9
REMARK    4  A    between atoms: C_9  and  N_10
REMARK    5  A    between atoms: C_11  and  C_13
REMARK    6  A    between atoms: C_24  and  C_26
REMARK    7  A    between atoms: C_29  and  O_32
REMARK    8  A    between atoms: O_32  and  C_33
REMARK                            x       y       z     vdW  Elec       q    Type
REMARK                         _______ _______ _______ _____ _____    ______ ____
ROOT
ATOM      1  C   UNL     1      -2.315   2.549   6.595  0.00  0.00    +0.100 C 
ATOM      2  C   UNL     1      -1.512   3.784   6.131  0.00  0.00    +0.121 C 
ATOM      3  N   UNL     1      -2.542   4.788   5.774  0.00  0.00    -0.296 N 
ATOM      4  C   UNL     1      -3.587   4.629   6.813  0.00  0.00    +0.115 C 
ATOM      5  C   UNL     1      -3.675   3.108   7.045  0.00  0.00    -0.004 C 
ATOM      6  C   UNL     1      -4.797   2.510   6.202  0.00  0.00    -0.010 C 
ATOM      7  C   UNL     1      -6.144   3.038   6.705  0.00  0.00    -0.082 C 
ATOM      8  N   UNL     1      -6.317   2.673   8.116  0.00  0.00    +0.379 N 
ATOM      9  C   UNL     1      -5.288   3.326   8.933  0.00  0.00    -0.082 C 
ATOM     10  C   UNL     1      -3.905   2.812   8.524  0.00  0.00    -0.010 C 
ATOM     11  C   UNL     1      -2.531   5.650   4.738  0.00  0.00    +0.247 C 
ATOM     12  O   UNL     1      -1.660   5.575   3.893  0.00  0.00    -0.270 OA
ATOM     13  H   UNL     1      -7.231   2.968   8.428  0.00  0.00    -0.086 HD
ATOM     14  H   UNL     1      -6.238   1.672   8.216  0.00  0.00    -0.086 HD
ENDROOT
BRANCH  11  15
ATOM     15  C   UNL     1      -3.578   6.685   4.628  0.00  0.00    +0.037 A 
ATOM     16  C   UNL     1      -4.300   7.073   5.760  0.00  0.00    +0.016 A 
ATOM     17  C   UNL     1      -5.275   8.040   5.653  0.00  0.00    +0.047 A 
ATOM     18  C   UNL     1      -5.541   8.629   4.423  0.00  0.00    +0.130 A 
ATOM     19  C   UNL     1      -4.825   8.245   3.295  0.00  0.00    +0.047 A 
ATOM     20  C   UNL     1      -3.844   7.284   3.394  0.00  0.00    +0.016 A 
BRANCH  18  21
ATOM     21  O   UNL     1      -6.504   9.580   4.322  0.00  0.00    -0.406 OA
BRANCH  21  22
ATOM     22  C   UNL     1      -6.726  10.144   3.028  0.00  0.00    +0.575 C 
ATOM     23  F   UNL     1      -7.102   9.133   2.137  0.00  0.00    -0.133 F 
ATOM     24  F   UNL     1      -7.744  11.101   3.104  0.00  0.00    -0.133 F 
ATOM     25  F   UNL     1      -5.549  10.750   2.575  0.00  0.00    -0.133 F 
ENDBRANCH  21  22
ENDBRANCH  18  21
ENDBRANCH  11  15
BRANCH   1  27
ATOM     26  N   UNL     1      -2.723   0.277   5.705  0.00  0.00    -0.315 N 
ATOM     27  C   UNL     1      -2.497   1.582   5.454  0.00  0.00    +0.218 C 
ATOM     28  O   UNL     1      -2.439   1.978   4.309  0.00  0.00    -0.275 OA
ATOM     29  H   UNL     1      -2.769  -0.040   6.621  0.00  0.00    +0.149 HD
BRANCH  26  30
ATOM     30  C   UNL     1      -2.900  -0.663   4.595  0.00  0.00    +0.109 C 
BRANCH  30  31
ATOM     31  C   UNL     1      -3.141  -2.068   5.150  0.00  0.00    +0.054 C 
BRANCH  31  38
ATOM     32  C   UNL     1      -0.833  -3.263   3.888  0.00  0.00    +0.044 C 
ATOM     33  C   UNL     1      -2.219  -3.607   3.405  0.00  0.00    -0.047 A 
ATOM     34  C   UNL     1      -2.386  -4.498   2.361  0.00  0.00    +0.003 A 
ATOM     35  C   UNL     1      -3.656  -4.813   1.918  0.00  0.00    +0.000 A 
ATOM     36  C   UNL     1      -4.760  -4.237   2.519  0.00  0.00    +0.000 A 
ATOM     37  C   UNL     1      -4.593  -3.347   3.563  0.00  0.00    +0.004 A 
ATOM     38  C   UNL     1      -3.322  -3.035   4.009  0.00  0.00    -0.043 A 
ENDBRANCH  31  38
ENDBRANCH  30  31
ENDBRANCH  26  30
ENDBRANCH   1  27
TORSDOF 7
