REMARK  Name = ZINC02628456
REMARK  7 active torsions:
REMARK  status: ('A' for Active; 'I' for Inactive)
REMARK    1  A    between atoms: C_4  and  N_7
REMARK    2  A    between atoms: C_8  and  C_29
REMARK    3  A    between atoms: C_11  and  S_12
REMARK    4  A    between atoms: S_12  and  C_13
REMARK    5  A    between atoms: C_13  and  C_14
REMARK    6  A    between atoms: C_29  and  O_30
REMARK    7  A    between atoms: O_30  and  C_31
REMARK                            x       y       z     vdW  Elec       q    Type
REMARK                         _______ _______ _______ _____ _____    ______ ____
ROOT
ATOM      1  N   UNL     1      -2.686  10.775  -6.029  0.00  0.00    -0.271 N 
ATOM      2  C   UNL     1      -2.937  11.059  -7.345  0.00  0.00    +0.176 A 
ATOM      3  N   UNL     1      -2.902   9.931  -7.997  0.00  0.00    -0.130 NA
ATOM      4  N   UNL     1      -2.643   8.962  -7.193  0.00  0.00    -0.122 NA
ATOM      5  C   UNL     1      -2.506   9.421  -5.971  0.00  0.00    +0.197 A 
ENDROOT
BRANCH   1   9
ATOM      6  C   UNL     1      -2.502  13.480  -2.861  0.00  0.00    +0.000 A 
ATOM      7  C   UNL     1      -1.369  12.785  -3.241  0.00  0.00    +0.002 A 
ATOM      8  C   UNL     1      -1.427  11.888  -4.290  0.00  0.00    +0.026 A 
ATOM      9  C   UNL     1      -2.624  11.685  -4.963  0.00  0.00    +0.050 A 
ATOM     10  C   UNL     1      -3.759  12.389  -4.583  0.00  0.00    +0.026 A 
ATOM     11  C   UNL     1      -3.696  13.280  -3.530  0.00  0.00    +0.002 A 
ENDBRANCH   1   9
BRANCH   5  12
ATOM     12  S   UNL     1      -2.151   8.471  -4.529  0.00  0.00    -0.078 S 
BRANCH  12  13
ATOM     13  C   UNL     1      -2.063   6.816  -5.257  0.00  0.00    +0.151 C 
BRANCH  13  14
ATOM     14  C   UNL     1      -1.760   5.809  -4.178  0.00  0.00    +0.121 A 
ATOM     15  N   UNL     1      -1.653   4.503  -4.524  0.00  0.00    -0.310 N 
ATOM     16  H   UNL     1      -1.779   4.253  -5.484  0.00  0.00    +0.170 HD
ATOM     17  C   UNL     1      -1.383   3.522  -3.631  0.00  0.00    +0.260 A 
ATOM     18  O   UNL     1      -1.290   2.352  -3.962  0.00  0.00    -0.267 OA
ATOM     19  C   UNL     1      -1.213   3.947  -2.271  0.00  0.00    +0.075 A 
ATOM     20  C   UNL     1      -0.921   3.104  -1.126  0.00  0.00    -0.023 A 
ATOM     21  C   UNL     1      -0.804   3.725   0.071  0.00  0.00    -0.004 A 
ATOM     22  S   UNL     1      -1.075   5.446  -0.270  0.00  0.00    -0.073 S 
ATOM     23  C   UNL     1      -1.344   5.329  -2.010  0.00  0.00    +0.116 A 
ATOM     24  N   UNL     1      -1.611   6.237  -2.944  0.00  0.00    -0.226 NA
ATOM     25  C   UNL     1      -0.509   3.093   1.397  0.00  0.00    +0.043 C 
ATOM     26  C   UNL     1      -0.726   1.578   1.270  0.00  0.00    +0.005 C 
ATOM     27  C   UNL     1      -0.013   1.086   0.008  0.00  0.00    +0.005 C 
ATOM     28  C   UNL     1      -0.749   1.591  -1.233  0.00  0.00    +0.037 C 
ENDBRANCH  13  14
ENDBRANCH  12  13
ENDBRANCH   5  12
BRANCH   2  29
ATOM     29  C   UNL     1      -3.203  12.421  -7.931  0.00  0.00    +0.305 C 
BRANCH  29  30
ATOM     30  O   UNL     1      -1.967  13.017  -8.333  0.00  0.00    -0.481 OA
BRANCH  30  31
ATOM     31  C   UNL     1      -2.031  14.257  -8.885  0.00  0.00    +0.156 A 
ATOM     32  C   UNL     1      -3.257  14.886  -9.042  0.00  0.00    +0.048 A 
ATOM     33  C   UNL     1      -3.318  16.148  -9.600  0.00  0.00    +0.004 A 
ATOM     34  C   UNL     1      -2.160  16.782 -10.011  0.00  0.00    +0.003 A 
ATOM     35  C   UNL     1      -0.936  16.157  -9.860  0.00  0.00    +0.042 A 
ATOM     36  C   UNL     1      -0.868  14.895  -9.298  0.00  0.00    +0.165 A 
ATOM     37  F   UNL     1       0.328  14.284  -9.151  0.00  0.00    -0.202 F 
ENDBRANCH  30  31
ENDBRANCH  29  30
ENDBRANCH   2  29
TORSDOF 7
