REMARK  Name = ZINC01901269
REMARK  3 active torsions:
REMARK  status: ('A' for Active; 'I' for Inactive)
REMARK    1  A    between atoms: C_4  and  C_7
REMARK    2  A    between atoms: C_18  and  C_22
REMARK    3  A    between atoms: C_26  and  N_28
REMARK                            x       y       z     vdW  Elec       q    Type
REMARK                         _______ _______ _______ _____ _____    ______ ____
ROOT
ATOM      1  C   UNL     1       3.684  -1.050  -0.098  0.00  0.00    +0.047 C 
ATOM      2  C   UNL     1       3.961  -2.374  -0.151  0.00  0.00    +0.023 C 
ATOM      3  C   UNL     1       5.464  -2.439  -0.127  0.00  0.00    +0.138 C 
ATOM      4  C   UNL     1       6.111  -3.448  -1.017  0.00  0.00    +0.019 A 
ATOM      5  C   UNL     1       5.571  -4.702  -1.204  0.00  0.00    +0.024 A 
ATOM      6  C   UNL     1       6.205  -5.615  -2.029  0.00  0.00    +0.019 A 
ATOM      7  C   UNL     1       7.383  -5.266  -2.665  0.00  0.00    +0.034 A 
ATOM      8  C   UNL     1       7.925  -4.010  -2.484  0.00  0.00    +0.061 A 
ATOM      9  C   UNL     1       7.292  -3.084  -1.662  0.00  0.00    +0.142 A 
ATOM     10  O   UNL     1       7.834  -1.843  -1.526  0.00  0.00    -0.467 OA
ATOM     11  C   UNL     1       7.220  -0.901  -0.629  0.00  0.00    +0.294 C 
ATOM     12  N   UNL     1       5.792  -1.097  -0.702  0.00  0.00    -0.175 NA
ATOM     13  N   UNL     1       4.894  -0.317  -0.064  0.00  0.00    -0.273 N 
ATOM     14 BR   UNL     1       9.536  -3.545  -3.357  0.00  0.00    -0.046 Br
ATOM     15 BR   UNL     1       5.463  -7.335  -2.285  0.00  0.00    -0.050 Br
ATOM     16  H   UNL     1       5.047   0.555   0.332  0.00  0.00    +0.167 HD
ENDROOT
BRANCH   1  20
ATOM     17  C   UNL     1      -0.214   0.643  -0.055  0.00  0.00    +0.000 A 
ATOM     18  C   UNL     1       0.896   1.468  -0.018  0.00  0.00    +0.001 A 
ATOM     19  C   UNL     1       2.164   0.924  -0.031  0.00  0.00    +0.010 A 
ATOM     20  C   UNL     1       2.326  -0.460  -0.082  0.00  0.00    -0.003 A 
ATOM     21  C   UNL     1       1.203  -1.287  -0.120  0.00  0.00    +0.010 A 
ATOM     22  C   UNL     1      -0.060  -0.731  -0.106  0.00  0.00    +0.001 A 
ENDBRANCH   1  20
BRANCH  11  23
ATOM     23  C   UNL     1       7.691  -1.150   0.781  0.00  0.00    +0.011 A 
ATOM     24  C   UNL     1       8.790  -1.957   1.010  0.00  0.00    +0.009 A 
ATOM     25  C   UNL     1       9.221  -2.186   2.303  0.00  0.00    +0.003 A 
ATOM     26  C   UNL     1       8.554  -1.608   3.367  0.00  0.00    +0.033 A 
ATOM     27  C   UNL     1       7.456  -0.801   3.138  0.00  0.00    +0.127 A 
ATOM     28  C   UNL     1       7.027  -0.568   1.844  0.00  0.00    +0.041 A 
BRANCH  27  29
ATOM     29  N   UNL     1       6.741  -0.182   4.277  0.00  0.00    +0.056 N 
ATOM     30  O   UNL     1       7.117  -0.384   5.408  0.00  0.00    -0.126 OA
ATOM     31  O   UNL     1       5.780   0.523   4.076  0.00  0.00    -0.126 OA
ENDBRANCH  27  29
ENDBRANCH  11  23
TORSDOF 3
