REMARK  Name = ZINC13572531
REMARK  9 active torsions:
REMARK  status: ('A' for Active; 'I' for Inactive)
REMARK    1  A    between atoms: C_1  and  C_2
REMARK    2  A    between atoms: C_5  and  C_8
REMARK    3  A    between atoms: C_13  and  C_26
REMARK    4  A    between atoms: C_13  and  C_27
REMARK    5  A    between atoms: C_16  and  C_18
REMARK    6  A    between atoms: C_21  and  O_25
REMARK    7  A    between atoms: C_22  and  O_24
REMARK    8  A    between atoms: N_28  and  C_35
REMARK    9  A    between atoms: N_31  and  C_34
REMARK                            x       y       z     vdW  Elec       q    Type
REMARK                         _______ _______ _______ _____ _____    ______ ____
ROOT
ATOM      1  C   UNL     1      -0.245   0.359   0.030  0.00  0.00    +0.064 A 
ATOM      2  C   UNL     1      -1.197   1.363   0.041  0.00  0.00    +0.089 A 
ATOM      3  C   UNL     1      -0.475   2.618   0.311  0.00  0.00    +0.083 A 
ATOM      4  C   UNL     1       0.818   2.292   0.439  0.00  0.00    +0.078 A 
ATOM      5  N   UNL     1       0.963   0.931   0.272  0.00  0.00    -0.331 N 
ATOM      6  C   UNL     1       2.265   0.253   0.355  0.00  0.00    +0.064 C 
ATOM      7  C   UNL     1       3.256   1.201   1.042  0.00  0.00    +0.189 C 
ATOM      8  O   UNL     1       3.191   2.493   0.431  0.00  0.00    -0.364 OA
ATOM      9  C   UNL     1       1.984   3.213   0.718  0.00  0.00    +0.197 C 
ATOM     10  C   UNL     1       2.126  -1.032   1.175  0.00  0.00    +0.036 C 
ATOM     11  C   UNL     1       2.763  -0.083  -1.052  0.00  0.00    +0.036 C 
ATOM     12  N   UNL     1      -1.222   3.800   0.369  0.00  0.00    -0.294 N 
ATOM     13  C   UNL     1      -2.554   3.769   0.190  0.00  0.00    +0.332 A 
ATOM     14  O   UNL     1      -3.167   4.817   0.253  0.00  0.00    -0.246 OA
ATOM     15  N   UNL     1      -3.244   2.648  -0.058  0.00  0.00    -0.263 N 
ATOM     16  C   UNL     1      -2.648   1.439  -0.144  0.00  0.00    +0.266 A 
ATOM     17  O   UNL     1      -3.301   0.437  -0.370  0.00  0.00    -0.267 OA
ATOM     18  C   UNL     1      -4.695   2.736  -0.242  0.00  0.00    +0.157 C 
ATOM     19  C   UNL     1      -0.552   5.075   0.636  0.00  0.00    +0.154 C 
ENDROOT
BRANCH   1  24
ATOM     20  C   UNL     1      -1.227  -5.237  -0.871  0.00  0.00    +0.044 C 
ATOM     21  C   UNL     1      -0.970  -3.771  -0.635  0.00  0.00    -0.050 A 
ATOM     22  C   UNL     1      -1.406  -3.175   0.535  0.00  0.00    +0.004 A 
ATOM     23  C   UNL     1      -1.174  -1.834   0.758  0.00  0.00    +0.010 A 
ATOM     24  C   UNL     1      -0.497  -1.077  -0.201  0.00  0.00    -0.001 A 
ATOM     25  C   UNL     1      -0.064  -1.684  -1.382  0.00  0.00    +0.010 A 
ATOM     26  C   UNL     1      -0.298  -3.027  -1.589  0.00  0.00    +0.004 A 
ENDBRANCH   1  24
BRANCH   9  27
ATOM     27  C   UNL     1       1.895   4.432  -0.164  0.00  0.00    -0.009 A 
ATOM     28  C   UNL     1       1.735   4.284  -1.530  0.00  0.00    +0.010 A 
ATOM     29  C   UNL     1       1.647   5.399  -2.343  0.00  0.00    +0.049 A 
ATOM     30  C   UNL     1       1.731   6.667  -1.791  0.00  0.00    +0.158 A 
ATOM     31  C   UNL     1       1.898   6.815  -0.417  0.00  0.00    +0.159 A 
ATOM     32  C   UNL     1       1.980   5.694   0.393  0.00  0.00    +0.055 A 
BRANCH  31  33
ATOM     33  O   UNL     1       1.981   8.058   0.129  0.00  0.00    -0.503 OA
ATOM     34  H   UNL     1       2.882   8.405   0.181  0.00  0.00    +0.292 HD
ENDBRANCH  31  33
BRANCH  30  35
ATOM     35  O   UNL     1       1.651   7.764  -2.590  0.00  0.00    -0.503 OA
ATOM     36  H   UNL     1       2.505   8.069  -2.926  0.00  0.00    +0.292 HD
ENDBRANCH  30  35
ENDBRANCH   9  27
TORSDOF 4
