REMARK  Name = ZINC38617827
REMARK  7 active torsions:
REMARK  status: ('A' for Active; 'I' for Inactive)
REMARK    1  A    between atoms: C_1  and  C_2
REMARK    2  A    between atoms: C_2  and  C_3
REMARK    3  A    between atoms: C_6  and  C_9
REMARK    4  A    between atoms: C_12  and  C_19
REMARK    5  A    between atoms: N_14  and  S_15
REMARK    6  A    between atoms: S_15  and  C_18
REMARK    7  A    between atoms: C_21  and  C_32
REMARK                            x       y       z     vdW  Elec       q    Type
REMARK                         _______ _______ _______ _____ _____    ______ ____
ROOT
ATOM      1  C   UNL     1       2.052  -0.541   8.097  0.00  0.00    +0.152 C 
ATOM      2  C   UNL     1       1.502  -1.368   9.244  0.00  0.00    -0.014 C 
ATOM      3  C   UNL     1       0.415  -0.838   9.944  0.00  0.00    +0.002 A 
ATOM      4  C   UNL     1      -0.159  -1.540  11.024  0.00  0.00    +0.030 A 
ATOM      5  C   UNL     1      -1.217  -1.000  11.689  0.00  0.00    +0.042 A 
ATOM      6  C   UNL     1      -1.749   0.235  11.322  0.00  0.00    +0.022 A 
ATOM      7  C   UNL     1      -1.238   0.959  10.288  0.00  0.00    +0.025 A 
ATOM      8  C   UNL     1      -0.144   0.463   9.557  0.00  0.00    +0.041 A 
ATOM      9  N   UNL     1       0.356   1.175   8.542  0.00  0.00    -0.284 N 
ATOM     10  C   UNL     1       1.378   0.781   7.809  0.00  0.00    +0.230 C 
ATOM     11  O   UNL     1       1.780   1.482   6.900  0.00  0.00    -0.274 OA
ATOM     12 CL   UNL     1      -1.919  -1.869  13.018  0.00  0.00    -0.084 Cl
ATOM     13  H   UNL     1      -0.055   2.029   8.334  0.00  0.00    +0.155 HD
ENDROOT
BRANCH   2  14
ATOM     14  C   UNL     1       2.066  -2.621   9.591  0.00  0.00    -0.020 A 
ATOM     15  C   UNL     1       1.299  -3.794   9.489  0.00  0.00    +0.008 A 
ATOM     16  C   UNL     1       1.856  -5.006   9.829  0.00  0.00    +0.001 A 
ATOM     17  C   UNL     1       3.168  -5.073  10.269  0.00  0.00    +0.000 A 
ATOM     18  C   UNL     1       3.933  -3.922  10.373  0.00  0.00    +0.001 A 
ATOM     19  C   UNL     1       3.397  -2.700  10.033  0.00  0.00    +0.008 A 
ENDBRANCH   2  14
BRANCH   1  22
ATOM     20  C   UNL     1       2.229  -2.197   4.601  0.00  0.00    +0.153 C 
ATOM     21  C   UNL     1       2.596  -1.012   5.516  0.00  0.00    +0.084 C 
ATOM     22  C   UNL     1       1.980  -1.380   6.847  0.00  0.00    +0.057 C 
ATOM     23  N   UNL     1       1.392  -2.501   6.753  0.00  0.00    -0.171 NA
ATOM     24  N   UNL     1       1.464  -3.090   5.488  0.00  0.00    -0.120 N 
BRANCH  20  28
ATOM     25  C   UNL     1      -0.191  -0.887   1.333  0.00  0.00    -0.048 A 
ATOM     26  C   UNL     1       1.153  -1.145   1.138  0.00  0.00    +0.004 A 
ATOM     27  C   UNL     1       1.936  -1.568   2.196  0.00  0.00    +0.006 A 
ATOM     28  C   UNL     1       1.375  -1.734   3.448  0.00  0.00    -0.023 A 
ATOM     29  C   UNL     1       0.031  -1.476   3.643  0.00  0.00    +0.006 A 
ATOM     30  C   UNL     1      -0.751  -1.049   2.587  0.00  0.00    +0.004 A 
BRANCH  25  32
ATOM     31  C   UNL     1      -1.020   1.103   0.107  0.00  0.00    +0.009 C 
ATOM     32  C   UNL     1      -1.045  -0.426   0.180  0.00  0.00    +0.032 C 
ENDBRANCH  25  32
ENDBRANCH  20  28
BRANCH  24  33
ATOM     33  S   UNL     1       0.801  -4.544   5.055  0.00  0.00    +0.057 S 
ATOM     34  O   UNL     1      -0.357  -4.670   5.868  0.00  0.00    -0.154 OA
ATOM     35  O   UNL     1       0.690  -4.485   3.640  0.00  0.00    -0.154 OA
ATOM     36  C   UNL     1       2.038  -5.781   5.534  0.00  0.00    +0.220 C 
ENDBRANCH  24  33
ENDBRANCH   1  22
TORSDOF 5
