REMARK  Name = ZINC38648668
REMARK  3 active torsions:
REMARK  status: ('A' for Active; 'I' for Inactive)
REMARK    1  A    between atoms: C_3  and  O_32
REMARK    2  A    between atoms: C_6  and  C_7
REMARK    3  A    between atoms: N_22  and  C_23
REMARK                            x       y       z     vdW  Elec       q    Type
REMARK                         _______ _______ _______ _____ _____    ______ ____
ROOT
ATOM      1  C   UNL     1      -1.293  -0.774   0.011  0.00  0.00    +0.145 C 
ATOM      2  C   UNL     1      -1.568  -1.305   1.379  0.00  0.00    +0.072 A 
ATOM      3  C   UNL     1      -1.761  -0.618   2.661  0.00  0.00    +0.199 A 
ATOM      4  O   UNL     1      -1.891   0.589   2.759  0.00  0.00    -0.287 OA
ATOM      5  C   UNL     1      -1.781  -1.535   3.829  0.00  0.00    +0.066 A 
ATOM      6  C   UNL     1      -1.756  -1.025   5.127  0.00  0.00    +0.035 A 
ATOM      7  C   UNL     1      -1.770  -1.891   6.199  0.00  0.00    +0.042 A 
ATOM      8  C   UNL     1      -1.808  -3.263   5.985  0.00  0.00    +0.023 A 
ATOM      9  C   UNL     1      -1.835  -3.776   4.708  0.00  0.00    +0.048 A 
ATOM     10  C   UNL     1      -1.824  -2.921   3.607  0.00  0.00    +0.140 A 
ATOM     11  O   UNL     1      -1.862  -3.452   2.363  0.00  0.00    -0.450 OA
ATOM     12  C   UNL     1      -1.622  -2.667   1.295  0.00  0.00    +0.199 A 
ATOM     13  C   UNL     1      -1.381  -3.053  -0.106  0.00  0.00    +0.283 C 
ATOM     14  O   UNL     1      -1.359  -4.195  -0.519  0.00  0.00    -0.267 OA
ATOM     15  N   UNL     1      -1.190  -1.953  -0.865  0.00  0.00    -0.279 N 
ATOM     16 CL   UNL     1      -1.738  -1.266   7.819  0.00  0.00    -0.084 Cl
ENDROOT
BRANCH  15  17
ATOM     17  C   UNL     1      -0.925  -1.934  -2.306  0.00  0.00    +0.100 C 
ATOM     18  C   UNL     1      -2.079  -2.622  -3.054  0.00  0.00    +0.047 C 
ATOM     19  C   UNL     1      -1.669  -2.892  -4.522  0.00  0.00    +0.168 C 
ATOM     20  S   UNL     1       0.158  -3.066  -4.405  0.00  0.00    -0.029 S 
ATOM     21  O   UNL     1       0.770  -2.028  -5.159  0.00  0.00    -0.174 OA
ATOM     22  O   UNL     1       0.512  -4.418  -4.662  0.00  0.00    -0.174 OA
ATOM     23  C   UNL     1       0.384  -2.716  -2.611  0.00  0.00    +0.188 C 
ENDBRANCH  15  17
BRANCH   1  29
ATOM     24  C   UNL     1      -0.017   1.378   0.010  0.00  0.00    +0.009 A 
ATOM     25  C   UNL     1       1.169   2.087   0.002  0.00  0.00    +0.046 A 
ATOM     26  C   UNL     1       2.380   1.409  -0.013  0.00  0.00    +0.117 A 
ATOM     27  C   UNL     1       2.396   0.022  -0.021  0.00  0.00    +0.046 A 
ATOM     28  C   UNL     1       1.207  -0.681  -0.013  0.00  0.00    +0.009 A 
ATOM     29  C   UNL     1       0.002  -0.004   0.002  0.00  0.00    -0.022 A 
BRANCH  26  30
ATOM     30  O   UNL     1       3.548   2.104  -0.021  0.00  0.00    -0.507 OA
ATOM     31  H   UNL     1       3.895   2.300   0.860  0.00  0.00    +0.292 HD
ENDBRANCH  26  30
ENDBRANCH   1  29
TORSDOF 3
