REMARK  Name = ZINC31893191
REMARK  7 active torsions:
REMARK  status: ('A' for Active; 'I' for Inactive)
REMARK    1  A    between atoms: C_1  and  C_2
REMARK    2  A    between atoms: C_6  and  C_15
REMARK    3  A    between atoms: N_8  and  C_9
REMARK    4  A    between atoms: N_17  and  C_18
REMARK    5  A    between atoms: C_18  and  C_19
REMARK    6  A    between atoms: C_19  and  C_21
REMARK    7  A    between atoms: C_19  and  N_29
REMARK                            x       y       z     vdW  Elec       q    Type
REMARK                         _______ _______ _______ _____ _____    ______ ____
ROOT
ATOM      1  C   UNL     1       0.166  -4.427   0.302  0.00  0.00    +0.268 C 
ATOM      2  O   UNL     1      -0.013  -5.058  -0.721  0.00  0.00    -0.268 OA
ATOM      3  N   UNL     1       0.233  -5.067   1.486  0.00  0.00    -0.311 N 
ATOM      4  H   UNL     1       0.376  -4.564   2.303  0.00  0.00    +0.149 HD
ENDROOT
BRANCH   1  10
ATOM      5  C   UNL     1       0.742   1.250   0.280  0.00  0.00    +0.066 C 
ATOM      6  C   UNL     1       0.581  -0.246   0.200  0.00  0.00    +0.044 A 
ATOM      7  C   UNL     1       0.387  -0.834  -1.004  0.00  0.00    +0.076 A 
ATOM      8  C   UNL     1       0.239  -2.245  -1.037  0.00  0.00    +0.213 A 
ATOM      9  O   UNL     1       0.062  -2.842  -2.087  0.00  0.00    -0.285 OA
ATOM     10  C   UNL     1       0.310  -2.958   0.248  0.00  0.00    +0.192 A 
ATOM     11  N   UNL     1       0.504  -2.263   1.349  0.00  0.00    -0.158 NA
ATOM     12  N   UNL     1       0.637  -0.988   1.334  0.00  0.00    -0.236 N 
BRANCH  12  13
ATOM     13  C   UNL     1       0.846  -0.328   2.549  0.00  0.00    +0.066 A 
ATOM     14  C   UNL     1      -0.024  -0.535   3.612  0.00  0.00    +0.028 A 
ATOM     15  C   UNL     1       0.185   0.118   4.811  0.00  0.00    +0.002 A 
ATOM     16  C   UNL     1       1.258   0.978   4.954  0.00  0.00    +0.000 A 
ATOM     17  C   UNL     1       2.126   1.188   3.897  0.00  0.00    +0.002 A 
ATOM     18  C   UNL     1       1.926   0.533   2.698  0.00  0.00    +0.028 A 
ENDBRANCH  12  13
ENDBRANCH   1  10
BRANCH   3  19
ATOM     19  C   UNL     1       0.090  -6.524   1.540  0.00  0.00    +0.094 C 
BRANCH  19  20
ATOM     20  C   UNL     1       0.076  -6.982   2.999  0.00  0.00    -0.016 C 
BRANCH  20  21
ATOM     21  C   UNL     1      -1.156  -6.447   3.682  0.00  0.00    -0.006 A 
ATOM     22  C   UNL     1      -2.391  -7.020   3.432  0.00  0.00    +0.126 A 
ATOM     23  C   UNL     1      -3.523  -6.527   4.059  0.00  0.00    +0.038 A 
ATOM     24  C   UNL     1      -3.419  -5.463   4.936  0.00  0.00    +0.004 A 
ATOM     25  C   UNL     1      -2.186  -4.891   5.186  0.00  0.00    +0.020 A 
ATOM     26  C   UNL     1      -1.053  -5.386   4.564  0.00  0.00    +0.045 A 
ATOM     27 CL   UNL     1       0.496  -4.671   4.884  0.00  0.00    -0.083 Cl
ATOM     28  F   UNL     1      -2.493  -8.059   2.575  0.00  0.00    -0.205 F 
ENDBRANCH  20  21
BRANCH  20  29
ATOM     29  N   UNL     1       0.066  -8.450   3.053  0.00  0.00    +0.385 N 
ATOM     30  C   UNL     1       1.367  -8.988   2.579  0.00  0.00    -0.078 C 
ATOM     31  C   UNL     1       1.414 -10.405   3.206  0.00  0.00    -0.020 C 
ATOM     32  C   UNL     1       0.768 -10.190   4.594  0.00  0.00    -0.020 C 
ATOM     33  C   UNL     1      -0.075  -8.909   4.451  0.00  0.00    -0.078 C 
ATOM     34  H   UNL     1      -0.688  -8.814   2.489  0.00  0.00    -0.081 HD
ENDBRANCH  20  29
ENDBRANCH  19  20
ENDBRANCH   3  19
TORSDOF 6
