REMARK  Name = ZINC03476435
REMARK  7 active torsions:
REMARK  status: ('A' for Active; 'I' for Inactive)
REMARK    1  A    between atoms: C_1  and  C_2
REMARK    2  A    between atoms: C_2  and  C_3
REMARK    3  A    between atoms: C_6  and  C_9
REMARK    4  A    between atoms: C_12  and  S_14
REMARK    5  A    between atoms: S_14  and  C_15
REMARK    6  A    between atoms: C_15  and  C_16
REMARK    7  A    between atoms: N_18  and  C_19
REMARK                            x       y       z     vdW  Elec       q    Type
REMARK                         _______ _______ _______ _____ _____    ______ ____
ROOT
ATOM      1  C   UNL     1       1.303  -0.368  -0.035  0.00  0.00    +0.182 A 
ATOM      2  N   UNL     1       0.001  -0.004  -0.026  0.00  0.00    -0.152 NA
ATOM      3  N   UNL     1      -0.018   1.400  -0.012  0.00  0.00    -0.253 N 
ATOM      4  C   UNL     1       1.233   1.800  -0.013  0.00  0.00    +0.185 A 
ATOM      5  N   UNL     1       2.032   0.731  -0.026  0.00  0.00    -0.201 NA
ATOM      6  H   UNL     1      -0.978   1.937  -0.004  0.00  0.00    +0.191 HD
ENDROOT
BRANCH   1  10
ATOM      7  C   UNL     1       2.784  -4.349  -0.079  0.00  0.00    -0.048 A 
ATOM      8  C   UNL     1       3.669  -3.286  -0.072  0.00  0.00    +0.004 A 
ATOM      9  C   UNL     1       3.194  -1.990  -0.058  0.00  0.00    +0.012 A 
ATOM     10  C   UNL     1       1.819  -1.754  -0.050  0.00  0.00    +0.021 A 
ATOM     11  C   UNL     1       0.932  -2.832  -0.052  0.00  0.00    +0.012 A 
ATOM     12  C   UNL     1       1.420  -4.122  -0.071  0.00  0.00    +0.004 A 
BRANCH   7  14
ATOM     13  C   UNL     1       3.493  -6.253   1.343  0.00  0.00    +0.009 C 
ATOM     14  C   UNL     1       3.310  -5.762  -0.094  0.00  0.00    +0.032 C 
ENDBRANCH   7  14
ENDBRANCH   1  10
BRANCH   4  15
ATOM     15  S   UNL     1       1.771   3.478   0.002  0.00  0.00    -0.077 S 
BRANCH  15  16
ATOM     16  C   UNL     1       0.229   4.433   0.018  0.00  0.00    +0.173 C 
BRANCH  16  17
ATOM     17  C   UNL     1       0.550   5.905   0.031  0.00  0.00    +0.227 C 
ATOM     18  O   UNL     1       1.706   6.274   0.030  0.00  0.00    -0.275 OA
ATOM     19  N   UNL     1      -0.447   6.812   0.044  0.00  0.00    -0.285 N 
ATOM     20  H   UNL     1      -1.493   6.481  -0.032  0.00  0.00    +0.155 HD
BRANCH  19  21
ATOM     21  C   UNL     1      -0.150   8.176   0.154  0.00  0.00    +0.035 A 
ATOM     22  C   UNL     1      -1.001   9.018   0.859  0.00  0.00    +0.026 A 
ATOM     23  C   UNL     1      -0.705  10.362   0.972  0.00  0.00    +0.041 A 
ATOM     24  C   UNL     1       0.433  10.874   0.373  0.00  0.00    +0.142 A 
ATOM     25  C   UNL     1       1.281  10.037  -0.336  0.00  0.00    +0.078 A 
ATOM     26  C   UNL     1       0.991   8.690  -0.445  0.00  0.00    +0.046 A 
ATOM     27 CL   UNL     1       2.708  10.682  -1.085  0.00  0.00    -0.081 Cl
ATOM     28  F   UNL     1       0.718  12.190   0.480  0.00  0.00    -0.204 F 
ENDBRANCH  19  21
ENDBRANCH  16  17
ENDBRANCH  15  16
ENDBRANCH   4  15
TORSDOF 6
