REMARK  Name = ZINC09975287
REMARK  7 active torsions:
REMARK  status: ('A' for Active; 'I' for Inactive)
REMARK    1  A    between atoms: C_4  and  C_8
REMARK    2  A    between atoms: N_9  and  N_10
REMARK    3  A    between atoms: N_19  and  C1*_20
REMARK    4  A    between atoms: C2*_22  and  O2*_32
REMARK    5  A    between atoms: C3*_24  and  O3*_31
REMARK    6  A    between atoms: C4*_26  and  C5*_29
REMARK    7  A    between atoms: C5*_29  and  O5*_30
REMARK                            x       y       z     vdW  Elec       q    Type
REMARK                         _______ _______ _______ _____ _____    ______ ____
ROOT
ATOM      1  N   UNL     1       0.001   0.955  -0.166  0.00  0.00    -0.206 N 
ATOM      2  C   UNL     1       1.180   1.667  -0.079  0.00  0.00    +0.220 A 
ATOM      3  N   UNL     1       1.280   2.972  -0.146  0.00  0.00    -0.208 NA
ATOM      4  C   UNL     1       2.581   3.331  -0.021  0.00  0.00    +0.149 A 
ATOM      5  C   UNL     1       3.269   4.557  -0.015  0.00  0.00    +0.147 A 
ATOM      6  N   UNL     1       4.590   4.541   0.126  0.00  0.00    -0.219 NA
ATOM      7  C   UNL     1       5.250   3.405   0.258  0.00  0.00    +0.225 A 
ATOM      8  N   UNL     1       4.648   2.234   0.258  0.00  0.00    -0.216 NA
ATOM      9  C   UNL     1       3.329   2.151   0.122  0.00  0.00    +0.169 A 
ATOM     10  N   UNL     1       2.423   1.117   0.083  0.00  0.00    -0.266 N 
ATOM     11  N   UNL     1       2.584   5.753  -0.153  0.00  0.00    -0.341 N 
ATOM     12  H   UNL     1       0.021  -0.014  -0.194  0.00  0.00    +0.177 HD
ATOM     13  H   UNL     1       2.741   6.321   0.655  0.00  0.00    +0.144 HD
ATOM     14  H   UNL     1       1.620   5.752  -0.255  0.00  0.00    +0.144 HD
ENDROOT
BRANCH  10  15
ATOM     15  C1* UNL     1       2.731  -0.311   0.194  0.00  0.00    +0.255 C 
ATOM     16  C2* UNL     1       3.422  -0.800  -1.094  0.00  0.00    +0.195 C 
ATOM     17  C3* UNL     1       4.823  -1.259  -0.622  0.00  0.00    +0.178 C 
ATOM     18  C4* UNL     1       4.978  -0.501   0.721  0.00  0.00    +0.177 C 
ATOM     19  O4* UNL     1       3.647  -0.530   1.280  0.00  0.00    -0.346 OA
BRANCH  17  20
ATOM     20  O3* UNL     1       4.855  -2.673  -0.416  0.00  0.00    -0.386 OA
ATOM     21  H3* UNL     1       5.683  -2.997  -0.035  0.00  0.00    +0.210 HD
ENDBRANCH  17  20
BRANCH  16  22
ATOM     22  O2* UNL     1       3.538   0.269  -2.036  0.00  0.00    -0.385 OA
ATOM     23  H2* UNL     1       3.966   0.017  -2.866  0.00  0.00    +0.210 HD
ENDBRANCH  16  22
BRANCH  18  24
ATOM     24  C5* UNL     1       5.963  -1.227   1.639  0.00  0.00    +0.190 C 
BRANCH  24  25
ATOM     25  O5* UNL     1       6.097  -0.502   2.864  0.00  0.00    -0.392 OA
ATOM     26  H5* UNL     1       6.708  -0.905   3.495  0.00  0.00    +0.210 HD
ENDBRANCH  24  25
ENDBRANCH  18  24
ENDBRANCH  10  15
BRANCH   1  28
ATOM     27  C   UNL     1      -2.333   0.963  -0.306  0.00  0.00    +0.141 C 
ATOM     28  N   UNL     1      -1.224   1.632  -0.219  0.00  0.00    -0.187 NA
BRANCH  27  32
ATOM     29  C   UNL     1      -6.046   3.015  -0.466  0.00  0.00    +0.003 A 
ATOM     30  C   UNL     1      -6.021   1.633  -0.506  0.00  0.00    +0.021 A 
ATOM     31  C   UNL     1      -4.818   0.958  -0.455  0.00  0.00    +0.051 A 
ATOM     32  C   UNL     1      -3.622   1.675  -0.362  0.00  0.00    +0.031 A 
ATOM     33  C   UNL     1      -3.655   3.072  -0.316  0.00  0.00    +0.051 A 
ATOM     34  C   UNL     1      -4.866   3.733  -0.374  0.00  0.00    +0.021 A 
ATOM     35 CL   UNL     1      -2.177   3.974  -0.193  0.00  0.00    -0.083 Cl
ATOM     36 CL   UNL     1      -4.790  -0.777  -0.506  0.00  0.00    -0.083 Cl
ENDBRANCH  27  32
ENDBRANCH   1  28
TORSDOF 7
