REMARK  Name = ZINC63809779
REMARK  6 active torsions:
REMARK  status: ('A' for Active; 'I' for Inactive)
REMARK    1  A    between atoms: C_7  and  C_10
REMARK    2  A    between atoms: C_10  and  C_11
REMARK    3  A    between atoms: C_11  and  C_13
REMARK    4  A    between atoms: C_11  and  N_22
REMARK    5  A    between atoms: N_15  and  C_16
REMARK    6  A    between atoms: C_23  and  C_25
REMARK                            x       y       z     vdW  Elec       q    Type
REMARK                         _______ _______ _______ _____ _____    ______ ____
ROOT
ATOM      1  C   UNL     1       0.459  -3.656  -1.454  0.00  0.00    +0.163 C 
ENDROOT
BRANCH   1   2
ATOM      2  C   UNL     1      -0.577  -4.750  -1.470  0.00  0.00    +0.238 C 
ATOM      3  O   UNL     1      -0.295  -5.846  -1.906  0.00  0.00    -0.273 OA
ATOM      4  N   UNL     1      -1.818  -4.510  -1.001  0.00  0.00    -0.283 N 
ATOM      5  H   UNL     1      -2.024  -3.656  -0.591  0.00  0.00    +0.155 HD
BRANCH   4   6
ATOM      6  C   UNL     1      -2.808  -5.494  -1.105  0.00  0.00    +0.052 A 
ATOM      7  C   UNL     1      -2.481  -6.842  -0.977  0.00  0.00    +0.026 A 
ATOM      8  C   UNL     1      -3.496  -7.778  -1.087  0.00  0.00    +0.021 A 
ATOM      9  C   UNL     1      -4.789  -7.348  -1.320  0.00  0.00    +0.111 A 
ATOM     10  N   UNL     1      -5.066  -6.064  -1.437  0.00  0.00    -0.261 NA
ATOM     11  C   UNL     1      -4.131  -5.140  -1.333  0.00  0.00    +0.134 A 
ENDBRANCH   4   6
ENDBRANCH   1   2
BRANCH   1  12
ATOM     12  N   UNL     1       1.714  -4.164  -2.012  0.00  0.00    -0.300 N 
ATOM     13  C   UNL     1       1.912  -4.154  -3.346  0.00  0.00    +0.246 C 
ATOM     14  O   UNL     1       1.048  -3.723  -4.085  0.00  0.00    -0.270 OA
ATOM     15  H   UNL     1       2.404  -4.508  -1.423  0.00  0.00    +0.150 HD
BRANCH  13  16
ATOM     16  C   UNL     1       3.178  -4.666  -3.909  0.00  0.00    +0.055 A 
ATOM     17  C   UNL     1       4.170  -5.168  -3.064  0.00  0.00    +0.014 A 
ATOM     18  C   UNL     1       5.349  -5.645  -3.596  0.00  0.00    +0.001 A 
ATOM     19  C   UNL     1       5.551  -5.628  -4.965  0.00  0.00    +0.001 A 
ATOM     20  C   UNL     1       4.574  -5.133  -5.809  0.00  0.00    +0.021 A 
ATOM     21  C   UNL     1       3.386  -4.657  -5.291  0.00  0.00    +0.053 A 
ATOM     22 CL   UNL     1       2.157  -4.043  -6.352  0.00  0.00    -0.083 Cl
ENDBRANCH  13  16
ENDBRANCH   1  12
BRANCH   1  23
ATOM     23  C   UNL     1       0.692  -3.195  -0.013  0.00  0.00    +0.065 C 
BRANCH  23  30
ATOM     24  C   UNL     1      -0.006   1.340   0.040  0.00  0.00    +0.001 A 
ATOM     25  C   UNL     1       1.178   2.090   0.038  0.00  0.00    +0.002 A 
ATOM     26  C   UNL     1       2.402   1.522   0.023  0.00  0.00    +0.026 A 
ATOM     27  C   UNL     1       2.537   0.106   0.007  0.00  0.00    +0.043 A 
ATOM     28  N   UNL     1       3.593  -0.670  -0.009  0.00  0.00    -0.380 N 
ATOM     29  C   UNL     1       3.147  -2.068  -0.021  0.00  0.00    +0.144 C 
ATOM     30  C   UNL     1       1.635  -2.020  -0.008  0.00  0.00    -0.039 C 
ATOM     31  C   UNL     1       1.301  -0.710   0.009  0.00  0.00    -0.001 A 
ATOM     32  C   UNL     1       0.010  -0.013   0.026  0.00  0.00    +0.010 A 
ATOM     33  H   UNL     1       4.516  -0.371  -0.014  0.00  0.00    +0.160 HD
ENDBRANCH  23  30
ENDBRANCH   1  23
TORSDOF 6
