REMARK  Name = ZINC09088150
REMARK  2 active torsions:
REMARK  status: ('A' for Active; 'I' for Inactive)
REMARK    1  A    between atoms: C_6  and  C_7
REMARK    2  A    between atoms: C_10  and  C_24
REMARK                            x       y       z     vdW  Elec       q    Type
REMARK                         _______ _______ _______ _____ _____    ______ ____
ROOT
ATOM      1  C   UNL     1      -1.293  -0.775   0.011  0.00  0.00    +0.147 C 
ATOM      2  C   UNL     1      -1.374  -1.667  -1.234  0.00  0.00    +0.087 C 
ATOM      3  C   UNL     1      -2.406  -2.745  -1.060  0.00  0.00    +0.055 C 
ATOM      4  N   UNL     1      -2.655  -3.301   0.095  0.00  0.00    -0.215 NA
ATOM      5  C   UNL     1      -2.007  -2.837   1.197  0.00  0.00    +0.251 A 
ATOM      6  N   UNL     1      -1.346  -1.638   1.190  0.00  0.00    -0.220 N 
ATOM      7  N   UNL     1      -0.801  -1.474   2.459  0.00  0.00    -0.131 NA
ATOM      8  C   UNL     1      -1.156  -2.528   3.164  0.00  0.00    +0.252 A 
ATOM      9  N   UNL     1      -1.893  -3.344   2.400  0.00  0.00    -0.175 NA
ATOM     10  N   UNL     1      -0.814  -2.761   4.503  0.00  0.00    -0.176 N 
ATOM     11  C   UNL     1      -0.075  -1.906   5.221  0.00  0.00    +0.229 C 
ATOM     12  O   UNL     1       0.376  -0.856   4.816  0.00  0.00    -0.275 OA
ATOM     13  C   UNL     1       0.106  -2.457   6.618  0.00  0.00    +0.106 C 
ATOM     14  C   UNL     1      -0.664  -3.793   6.583  0.00  0.00    +0.106 C 
ATOM     15  C   UNL     1      -1.204  -3.853   5.171  0.00  0.00    +0.229 C 
ATOM     16  O   UNL     1      -1.881  -4.750   4.716  0.00  0.00    -0.275 OA
ENDROOT
BRANCH   1  22
ATOM     17  C   UNL     1      -0.017   1.378   0.010  0.00  0.00    +0.007 A 
ATOM     18  C   UNL     1       1.171   2.086   0.002  0.00  0.00    +0.020 A 
ATOM     19  C   UNL     1       2.378   1.410  -0.013  0.00  0.00    +0.041 A 
ATOM     20  C   UNL     1       2.396   0.027  -0.021  0.00  0.00    +0.020 A 
ATOM     21  C   UNL     1       1.208  -0.679  -0.013  0.00  0.00    +0.007 A 
ATOM     22  C   UNL     1       0.002  -0.004   0.002  0.00  0.00    -0.023 A 
ATOM     23 CL   UNL     1       3.870   2.298  -0.023  0.00  0.00    -0.084 Cl
ENDBRANCH   1  22
BRANCH   3  24
ATOM     24  C   UNL     1      -3.166  -3.192  -2.238  0.00  0.00    -0.003 A 
ATOM     25  C   UNL     1      -2.919  -2.621  -3.491  0.00  0.00    +0.011 A 
ATOM     26  C   UNL     1      -3.635  -3.045  -4.590  0.00  0.00    +0.020 A 
ATOM     27  C   UNL     1      -4.597  -4.033  -4.456  0.00  0.00    +0.041 A 
ATOM     28  C   UNL     1      -4.846  -4.603  -3.218  0.00  0.00    +0.020 A 
ATOM     29  C   UNL     1      -4.134  -4.193  -2.111  0.00  0.00    +0.011 A 
ATOM     30 CL   UNL     1      -5.494  -4.560  -5.846  0.00  0.00    -0.084 Cl
ENDBRANCH   3  24
TORSDOF 2
