REMARK  Name = ZINC19914215
REMARK  4 active torsions:
REMARK  status: ('A' for Active; 'I' for Inactive)
REMARK    1  A    between atoms: C_1  and  O_2
REMARK    2  A    between atoms: O_2  and  C_3
REMARK    3  A    between atoms: C_8  and  N_9
REMARK    4  A    between atoms: N_9  and  C_10
REMARK                            x       y       z     vdW  Elec       q    Type
REMARK                         _______ _______ _______ _____ _____    ______ ____
ROOT
ATOM      1  N   UNL     1      -2.898   1.550  -2.406  0.00  0.00    -0.338 N 
ATOM      2  H   UNL     1      -2.569   2.473  -2.905  0.00  0.00    +0.146 HD
ENDROOT
BRANCH   1   3
ATOM      3  C   UNL     1      -2.190   1.067  -1.218  0.00  0.00    +0.071 C 
ATOM      4  C   UNL     1      -0.753   1.593  -1.231  0.00  0.00    +0.027 C 
ATOM      5  C   UNL     1      -0.013   1.086   0.008  0.00  0.00    +0.067 C 
ATOM      6  C   UNL     1      -0.729   1.579   1.266  0.00  0.00    +0.170 C 
ATOM      7  C   UNL     1      -2.168   1.060   1.281  0.00  0.00    +0.067 C 
ATOM      8  C   UNL     1      -2.905   1.567   0.039  0.00  0.00    +0.027 C 
ATOM      9  O   UNL     1      -0.740   3.016   1.277  0.00  0.00    -0.346 OA
ATOM     10  C   UNL     1      -0.590   3.377   2.671  0.00  0.00    +0.191 C 
ATOM     11  C   UNL     1       0.374   2.275   3.179  0.00  0.00    +0.191 C 
ATOM     12  O   UNL     1      -0.036   1.113   2.430  0.00  0.00    -0.346 OA
ENDBRANCH   1   3
BRANCH   1  18
ATOM     13  C   UNL     1      -4.671   1.297  -4.033  0.00  0.00    +0.141 A 
ATOM     14  C   UNL     1      -5.750   0.583  -4.528  0.00  0.00    +0.049 A 
ATOM     15  C   UNL     1      -6.160  -0.577  -3.897  0.00  0.00    +0.024 A 
ATOM     16  C   UNL     1      -5.492  -1.032  -2.775  0.00  0.00    +0.043 A 
ATOM     17  C   UNL     1      -4.409  -0.329  -2.278  0.00  0.00    +0.046 A 
ATOM     18  C   UNL     1      -3.993   0.836  -2.906  0.00  0.00    +0.071 A 
ATOM     19 CL   UNL     1      -6.012  -2.490  -1.988  0.00  0.00    -0.083 Cl
BRANCH  13  21
ATOM     20  C   UNL     1      -5.012   2.853  -5.799  0.00  0.00    +0.277 C 
ATOM     21  O   UNL     1      -4.270   2.441  -4.649  0.00  0.00    -0.493 OA
ENDBRANCH  13  21
ENDBRANCH   1  18
TORSDOF 3
