REMARK  Name = ZINC24015624
REMARK  4 active torsions:
REMARK  status: ('A' for Active; 'I' for Inactive)
REMARK    1  A    between atoms: C_1  and  C_2
REMARK    2  A    between atoms: N_11  and  C_15
REMARK    3  A    between atoms: C_15  and  C_16
REMARK    4  A    between atoms: C_21  and  C_24
REMARK                            x       y       z     vdW  Elec       q    Type
REMARK                         _______ _______ _______ _____ _____    ______ ____
ROOT
ATOM      1  C   UNL     1      -2.969   0.435   5.575  0.00  0.00    +0.237 C 
ATOM      2  O   UNL     1      -1.778   0.418   5.344  0.00  0.00    -0.274 OA
ATOM      3  N   UNL     1      -3.409   0.412   6.849  0.00  0.00    -0.263 N 
ATOM      4  C   UNL     1      -2.498   0.368   7.897  0.00  0.00    +0.165 A 
ATOM      5  N   UNL     1      -2.723   0.346   9.198  0.00  0.00    -0.225 NA
ATOM      6  C   UNL     1      -1.724   0.301  10.067  0.00  0.00    +0.082 A 
ATOM      7  C   UNL     1      -0.436   0.288   9.610  0.00  0.00    +0.077 A 
ATOM      8  S   UNL     1      -0.712   0.337   7.844  0.00  0.00    -0.060 S 
ATOM      9  H   UNL     1      -4.489   0.427   7.058  0.00  0.00    +0.157 HD
ENDROOT
BRANCH   6  10
ATOM     10  C   UNL     1      -2.001   0.270  11.524  0.00  0.00    +0.021 A 
ATOM     11  C   UNL     1      -1.349  -0.652  12.341  0.00  0.00    +0.031 A 
ATOM     12  C   UNL     1      -1.611  -0.676  13.697  0.00  0.00    +0.042 A 
ATOM     13  C   UNL     1      -2.520   0.214  14.245  0.00  0.00    +0.021 A 
ATOM     14  C   UNL     1      -3.170   1.131  13.439  0.00  0.00    +0.022 A 
ATOM     15  C   UNL     1      -2.911   1.168  12.083  0.00  0.00    +0.050 A 
ATOM     16 CL   UNL     1      -3.722   2.325  11.074  0.00  0.00    -0.083 Cl
ATOM     17 CL   UNL     1      -0.801  -1.824  14.716  0.00  0.00    -0.084 Cl
ENDBRANCH   6  10
BRANCH   1  18
ATOM     18  C   UNL     1      -3.956   0.482   4.438  0.00  0.00    +0.214 C 
BRANCH  18  28
ATOM     19  C   UNL     1       0.023   1.044   2.511  0.00  0.00    +0.010 C 
ATOM     20  C   UNL     1      -0.683   1.607   1.277  0.00  0.00    +0.018 C 
ATOM     21  C   UNL     1       0.012   1.094   0.013  0.00  0.00    +0.006 C 
ATOM     22  C   UNL     1      -0.708   1.641  -1.222  0.00  0.00    +0.000 C 
ATOM     23  C   UNL     1      -2.162   1.165  -1.220  0.00  0.00    +0.003 C 
ATOM     24  C   UNL     1      -2.865   1.679   0.039  0.00  0.00    +0.035 C 
ATOM     25  C   UNL     1      -2.140   1.158   1.275  0.00  0.00    +0.115 C 
ATOM     26  C   UNL     1      -2.838   1.625   2.532  0.00  0.00    +0.247 C 
ATOM     27  O   UNL     1      -3.007   2.769   2.896  0.00  0.00    -0.273 OA
ATOM     28  N   UNL     1      -3.233   0.500   3.163  0.00  0.00    -0.215 N 
ATOM     29  C   UNL     1      -2.883  -0.598   2.482  0.00  0.00    +0.310 C 
ATOM     30  O   UNL     1      -3.129  -1.730   2.850  0.00  0.00    -0.252 OA
ATOM     31  N   UNL     1      -2.227  -0.307   1.342  0.00  0.00    -0.285 N 
ATOM     32  H   UNL     1      -1.791  -0.921   0.540  0.00  0.00    +0.151 HD
ENDBRANCH  18  28
ENDBRANCH   1  18
TORSDOF 3
