REMARK  Name = ZINC63772089
REMARK  7 active torsions:
REMARK  status: ('A' for Active; 'I' for Inactive)
REMARK    1  A    between atoms: C_4  and  C_7
REMARK    2  A    between atoms: C_7  and  C_9
REMARK    3  A    between atoms: C_14  and  N_15
REMARK    4  A    between atoms: C_16  and  C_18
REMARK    5  A    between atoms: C_18  and  S_19
REMARK    6  A    between atoms: S_19  and  C_20
REMARK    7  A    between atoms: C_23  and  C_25
REMARK                            x       y       z     vdW  Elec       q    Type
REMARK                         _______ _______ _______ _____ _____    ______ ____
ROOT
ATOM      1  N   UNL     1       6.003  -2.270   0.042  0.00  0.00    -0.284 N 
ATOM      2  C   UNL     1       7.151  -2.973  -0.017  0.00  0.00    +0.228 C 
ATOM      3  O   UNL     1       7.119  -4.185  -0.064  0.00  0.00    -0.275 OA
ATOM      4  H   UNL     1       6.030  -1.306   0.150  0.00  0.00    +0.155 HD
ENDROOT
BRANCH   1  10
ATOM      5  C   UNL     1       3.691  -2.303  -0.683  0.00  0.00    +0.045 A 
ATOM      6  C   UNL     1       2.468  -2.976  -0.775  0.00  0.00    +0.033 A 
ATOM      7  C   UNL     1       2.338  -4.240  -0.242  0.00  0.00    +0.042 A 
ATOM      8  C   UNL     1       3.414  -4.850   0.386  0.00  0.00    +0.022 A 
ATOM      9  C   UNL     1       4.626  -4.198   0.485  0.00  0.00    +0.025 A 
ATOM     10  C   UNL     1       4.779  -2.926  -0.051  0.00  0.00    +0.044 A 
ATOM     11 CL   UNL     1       0.819  -5.073  -0.357  0.00  0.00    -0.084 Cl
BRANCH   5  12
ATOM     12  C   UNL     1       3.838  -0.951  -1.250  0.00  0.00    +0.195 C 
ATOM     13  O   UNL     1       3.361   0.006  -0.672  0.00  0.00    -0.287 OA
BRANCH  12  17
ATOM     14  C   UNL     1       5.928  -0.398  -4.906  0.00  0.00    +0.000 A 
ATOM     15  C   UNL     1       5.300   0.677  -4.303  0.00  0.00    +0.001 A 
ATOM     16  C   UNL     1       4.619   0.505  -3.115  0.00  0.00    +0.012 A 
ATOM     17  C   UNL     1       4.565  -0.759  -2.523  0.00  0.00    +0.022 A 
ATOM     18  C   UNL     1       5.201  -1.839  -3.137  0.00  0.00    +0.012 A 
ATOM     19  C   UNL     1       5.878  -1.653  -4.324  0.00  0.00    +0.001 A 
ENDBRANCH  12  17
ENDBRANCH   5  12
ENDBRANCH   1  10
BRANCH   2  20
ATOM     20  C   UNL     1       8.476  -2.255  -0.025  0.00  0.00    +0.175 C 
BRANCH  20  21
ATOM     21  S   UNL     1       9.822  -3.468  -0.109  0.00  0.00    -0.056 S 
BRANCH  21  22
ATOM     22  C   UNL     1      11.283  -2.484  -0.110  0.00  0.00    +0.278 A 
ATOM     23  N   UNL     1      11.337  -1.162  -0.054  0.00  0.00    -0.101 NA
ATOM     24  N   UNL     1      12.566  -0.783  -0.075  0.00  0.00    -0.107 NA
ATOM     25  C   UNL     1      13.349  -1.848  -0.145  0.00  0.00    +0.248 A 
ATOM     26  O   UNL     1      12.547  -2.939  -0.163  0.00  0.00    -0.411 OA
BRANCH  25  27
ATOM     27  C   UNL     1      14.751  -1.846  -0.188  0.00  0.00    +0.044 C 
ATOM     28  C   UNL     1      15.595  -0.735  -0.158  0.00  0.00    +0.008 A 
ATOM     29  C   UNL     1      15.343   0.651  -0.083  0.00  0.00    +0.010 A 
ATOM     30  C   UNL     1      16.382   1.525  -0.071  0.00  0.00    +0.001 A 
ATOM     31  C   UNL     1      17.707   1.087  -0.132  0.00  0.00    +0.002 A 
ATOM     32  C   UNL     1      18.022  -0.230  -0.206  0.00  0.00    +0.026 A 
ATOM     33  C   UNL     1      16.989  -1.202  -0.223  0.00  0.00    +0.043 A 
ATOM     34  N   UNL     1      17.032  -2.518  -0.288  0.00  0.00    -0.380 N 
ATOM     35  C   UNL     1      15.665  -3.049  -0.268  0.00  0.00    +0.154 C 
ATOM     36  H   UNL     1      17.840  -3.052  -0.339  0.00  0.00    +0.160 HD
ENDBRANCH  25  27
ENDBRANCH  21  22
ENDBRANCH  20  21
ENDBRANCH   2  20
TORSDOF 7
