REMARK  Name = ZINC53855745
REMARK  3 active torsions:
REMARK  status: ('A' for Active; 'I' for Inactive)
REMARK    1  A    between atoms: C_1  and  C_2
REMARK    2  A    between atoms: C_2  and  C_4
REMARK    3  A    between atoms: C_7  and  C_10
REMARK                            x       y       z     vdW  Elec       q    Type
REMARK                         _______ _______ _______ _____ _____    ______ ____
ROOT
ATOM      1  C   UNL     1      -0.007  -2.841  -4.974  0.00  0.00    +0.164 A 
ATOM      2  N   UNL     1      -0.016  -2.142  -6.108  0.00  0.00    -0.189 NA
ATOM      3  C   UNL     1      -0.018  -2.740  -7.287  0.00  0.00    +0.281 A 
ATOM      4  O   UNL     1      -0.027  -2.017  -8.431  0.00  0.00    -0.265 OA
ATOM      5  C   UNL     1      -0.011  -4.155  -7.323  0.00  0.00    +0.069 A 
ATOM      6  C   UNL     1      -0.012  -4.866  -8.528  0.00  0.00    +0.035 A 
ATOM      7  C   UNL     1      -0.004  -6.231  -8.503  0.00  0.00    +0.043 A 
ATOM      8  C   UNL     1       0.005  -6.925  -7.296  0.00  0.00    +0.042 A 
ATOM      9  C   UNL     1       0.006  -6.262  -6.104  0.00  0.00    +0.068 A 
ATOM     10  C   UNL     1      -0.001  -4.858  -6.092  0.00  0.00    +0.097 A 
ATOM     11  N   UNL     1       0.006  -4.160  -4.950  0.00  0.00    -0.226 NA
ATOM     12 CL   UNL     1       0.018  -7.148  -4.611  0.00  0.00    -0.081 Cl
ATOM     13 CL   UNL     1      -0.006  -7.114  -9.998  0.00  0.00    -0.083 Cl
ENDROOT
BRANCH   1  17
ATOM     14  C   UNL     1      -0.000  -0.733  -1.276  0.00  0.00    +0.017 A 
ATOM     15  C   UNL     1      -0.015  -0.028  -2.485  0.00  0.00    +0.012 A 
ATOM     16  C   UNL     1      -0.018  -0.712  -3.679  0.00  0.00    +0.012 A 
ATOM     17  C   UNL     1      -0.004  -2.107  -3.686  0.00  0.00    +0.019 A 
ATOM     18  C   UNL     1       0.010  -2.812  -2.482  0.00  0.00    +0.012 A 
ATOM     19  C   UNL     1       0.019  -2.132  -1.285  0.00  0.00    +0.012 A 
BRANCH  14  21
ATOM     20  C   UNL     1      -0.018   1.503   0.010  0.00  0.00    +0.091 C 
ATOM     21  C   UNL     1       0.002  -0.004   0.002  0.00  0.00    +0.160 C 
ATOM     22  O   UNL     1       0.020  -0.616   1.049  0.00  0.00    -0.292 OA
ENDBRANCH  14  21
ENDBRANCH   1  17
TORSDOF 2
