REMARK  Name = ZINC02713961
REMARK  1 active torsions:
REMARK  status: ('A' for Active; 'I' for Inactive)
REMARK    1  A    between atoms: C_4  and  C_8
REMARK                            x       y       z     vdW  Elec       q    Type
REMARK                         _______ _______ _______ _____ _____    ______ ____
ROOT
ATOM      1  C   UNL     1      -2.507   1.284   0.021  0.00  0.00    +0.255 C 
ATOM      2  O   UNL     1      -3.026   0.970   1.075  0.00  0.00    -0.270 OA
ATOM      3  N   UNL     1      -3.093   0.948  -1.145  0.00  0.00    -0.260 N 
ATOM      4  C   UNL     1      -4.287   0.246  -1.143  0.00  0.00    +0.166 A 
ATOM      5  N   UNL     1      -4.988  -0.183  -0.120  0.00  0.00    -0.223 NA
ATOM      6  C   UNL     1      -6.148  -0.859  -0.267  0.00  0.00    +0.100 A 
ATOM      7  C   UNL     1      -6.558  -1.089  -1.600  0.00  0.00    +0.042 A 
ATOM      8  S   UNL     1      -5.259  -0.316  -2.534  0.00  0.00    -0.052 S 
ATOM      9  C   UNL     1      -7.710  -1.766  -1.916  0.00  0.00    +0.019 A 
ATOM     10  C   UNL     1      -8.517  -2.250  -0.903  0.00  0.00    +0.023 A 
ATOM     11  C   UNL     1      -8.147  -2.043   0.419  0.00  0.00    +0.061 A 
ATOM     12  C   UNL     1      -6.997  -1.368   0.744  0.00  0.00    +0.086 A 
ATOM     13 CL   UNL     1      -6.579  -1.137   2.413  0.00  0.00    -0.080 Cl
ATOM     14 CL   UNL     1      -9.161  -2.652   1.690  0.00  0.00    -0.082 Cl
ATOM     15  H   UNL     1      -2.679   1.199  -1.986  0.00  0.00    +0.157 HD
ENDROOT
BRANCH   1  19
ATOM     16  C   UNL     1       1.153   3.439   0.009  0.00  0.00    +0.006 A 
ATOM     17  C   UNL     1      -0.048   4.124   0.024  0.00  0.00    +0.039 A 
ATOM     18  C   UNL     1      -1.244   3.431   0.031  0.00  0.00    +0.138 A 
ATOM     19  C   UNL     1      -1.236   2.032   0.019  0.00  0.00    +0.107 A 
ATOM     20  C   UNL     1      -0.016   1.347   0.009  0.00  0.00    +0.138 A 
ATOM     21  C   UNL     1       1.170   2.056   0.002  0.00  0.00    +0.039 A 
ATOM     22  F   UNL     1       0.002  -0.004   0.002  0.00  0.00    -0.205 F 
ATOM     23  F   UNL     1      -2.416   4.103   0.044  0.00  0.00    -0.205 F 
ENDBRANCH   1  19
TORSDOF 1
