REMARK  Name = ZINC39016675
REMARK  11 active torsions:
REMARK  status: ('A' for Active; 'I' for Inactive)
REMARK    1  A    between atoms: C_1  and  C_2
REMARK    2  A    between atoms: C_2  and  C_3
REMARK    3  A    between atoms: C_3  and  C_5
REMARK    4  A    between atoms: C_3  and  C_6
REMARK    5  A    between atoms: C_9  and  N_12
REMARK    6  A    between atoms: C_13  and  C_15
REMARK    7  A    between atoms: C_15  and  S_16
REMARK    8  A    between atoms: S_16  and  C_17
REMARK    9  A    between atoms: C_21  and  C_25
REMARK   10  A    between atoms: N_23  and  N_24
REMARK   11  A    between atoms: C_28  and  C_31
REMARK                            x       y       z     vdW  Elec       q    Type
REMARK                         _______ _______ _______ _____ _____    ______ ____
ROOT
ATOM      1  C   UNL     1       4.250 -10.501  -1.466  0.00  0.00    +0.214 C 
ATOM      2  N   UNL     1       3.374 -10.976  -2.569  0.00  0.00    -0.228 NA
ATOM      3  N   UNL     1       2.971 -12.325  -2.162  0.00  0.00    -0.234 NA
ATOM      4  C   UNL     1       3.100 -12.385  -0.692  0.00  0.00    +0.185 C 
ATOM      5  N   UNL     1       3.592 -11.057  -0.254  0.00  0.00    -0.197 NA
ATOM      6  H   UNL     1       3.874 -10.996  -3.445  0.00  0.00    +0.143 HD
ATOM      7  H   UNL     1       2.024 -12.522  -2.450  0.00  0.00    +0.143 HD
ENDROOT
BRANCH   4   8
ATOM      8  C   UNL     1       1.739 -12.679  -0.058  0.00  0.00    +0.187 C 
ATOM      9  C   UNL     1       1.240 -14.052  -0.471  0.00  0.00    +0.034 C 
ATOM     10  C   UNL     1       0.094 -13.794  -1.131  0.00  0.00    +0.091 C 
ATOM     11  N   UNL     1      -0.145 -12.457  -1.160  0.00  0.00    -0.154 NA
ATOM     12  N   UNL     1       0.710 -11.770  -0.590  0.00  0.00    -0.176 NA
BRANCH  10  13
ATOM     13  C   UNL     1      -0.782 -14.825  -1.741  0.00  0.00    +0.002 A 
ATOM     14  C   UNL     1      -0.444 -16.174  -1.649  0.00  0.00    +0.010 A 
ATOM     15  C   UNL     1      -1.263 -17.128  -2.217  0.00  0.00    +0.001 A 
ATOM     16  C   UNL     1      -2.417 -16.748  -2.878  0.00  0.00    +0.000 A 
ATOM     17  C   UNL     1      -2.757 -15.410  -2.972  0.00  0.00    +0.001 A 
ATOM     18  C   UNL     1      -1.949 -14.448  -2.403  0.00  0.00    +0.010 A 
ENDBRANCH  10  13
ENDBRANCH   4   8
BRANCH   5  19
ATOM     19  N   UNL     1       4.540 -11.183   0.842  0.00  0.00    -0.264 NA
ATOM     20  H   UNL     1       4.934 -10.286   1.084  0.00  0.00    +0.137 HD
ATOM     21  H   UNL     1       4.110 -11.618   1.644  0.00  0.00    +0.137 HD
ENDBRANCH   5  19
BRANCH   1  22
ATOM     22  S   UNL     1       4.280  -8.688  -1.405  0.00  0.00    -0.115 S 
BRANCH  22  23
ATOM     23  C   UNL     1       2.534  -8.224  -1.246  0.00  0.00    +0.168 C 
BRANCH  23  25
ATOM     24  N   UNL     1       1.204  -6.146  -1.065  0.00  0.00    -0.285 N 
ATOM     25  C   UNL     1       2.416  -6.723  -1.184  0.00  0.00    +0.227 C 
ATOM     26  O   UNL     1       3.413  -6.034  -1.242  0.00  0.00    -0.275 OA
ATOM     27  H   UNL     1       0.415  -6.697  -0.941  0.00  0.00    +0.155 HD
BRANCH  24  31
ATOM     28  C   UNL     1       0.844  -1.999  -1.225  0.00  0.00    -0.044 A 
ATOM     29  C   UNL     1       1.815  -2.637  -1.975  0.00  0.00    +0.006 A 
ATOM     30  C   UNL     1       1.937  -4.012  -1.924  0.00  0.00    +0.023 A 
ATOM     31  C   UNL     1       1.083  -4.753  -1.118  0.00  0.00    +0.033 A 
ATOM     32  C   UNL     1       0.110  -4.110  -0.366  0.00  0.00    +0.023 A 
ATOM     33  C   UNL     1      -0.004  -2.734  -0.418  0.00  0.00    +0.006 A 
BRANCH  28  34
ATOM     34  C   UNL     1       0.714  -0.499  -1.283  0.00  0.00    +0.016 C 
ATOM     35  C   UNL     1       2.025   0.145  -0.827  0.00  0.00    +0.012 C 
BRANCH  34  37
ATOM     36  C   UNL     1       0.153   1.439  -2.757  0.00  0.00    +0.004 C 
ATOM     37  C   UNL     1       0.408  -0.069  -2.720  0.00  0.00    +0.004 C 
ENDBRANCH  34  37
ENDBRANCH  28  34
ENDBRANCH  24  31
ENDBRANCH  23  25
ENDBRANCH  22  23
ENDBRANCH   1  22
TORSDOF 9
