REMARK  Name = ZINC48464067
REMARK  6 active torsions:
REMARK  status: ('A' for Active; 'I' for Inactive)
REMARK    1  A    between atoms: C_1  and  C_2
REMARK    2  A    between atoms: C_6  and  C_22
REMARK    3  A    between atoms: C_7  and  N_8
REMARK    4  A    between atoms: C_14  and  C_17
REMARK    5  A    between atoms: N_19  and  C_20
REMARK    6  A    between atoms: N_19  and  C_21
REMARK                            x       y       z     vdW  Elec       q    Type
REMARK                         _______ _______ _______ _____ _____    ______ ____
ROOT
ATOM      1  N   UNL     1      -0.154   0.023   2.423  0.00  0.00    -0.269 N 
ATOM      2  C   UNL     1      -0.345  -0.658   3.570  0.00  0.00    +0.306 C 
ATOM      3  O   UNL     1      -0.354  -1.874   3.562  0.00  0.00    -0.252 OA
ATOM      4  N   UNL     1      -0.525   0.009   4.728  0.00  0.00    -0.285 N 
ATOM      5  C   UNL     1      -0.409   1.473   4.774  0.00  0.00    +0.110 C 
ATOM      6  C   UNL     1       0.595   1.853   5.867  0.00  0.00    +0.032 C 
ATOM      7  C   UNL     1       0.168   1.214   7.191  0.00  0.00    +0.078 C 
ATOM      8  C   UNL     1       0.166  -0.309   7.046  0.00  0.00    +0.032 C 
ATOM      9  C   UNL     1      -0.848  -0.714   5.965  0.00  0.00    +0.110 C 
ATOM     10  H   UNL     1      -0.097   0.991   2.437  0.00  0.00    +0.156 HD
ENDROOT
BRANCH   1  17
ATOM     11  C   UNL     1       1.959   0.749   0.661  0.00  0.00    +0.046 C 
ATOM     12  C   UNL     1       0.979  -0.345   0.322  0.00  0.00    -0.028 A 
ATOM     13  C   UNL     1       1.095  -1.031  -0.871  0.00  0.00    +0.020 A 
ATOM     14  C   UNL     1       0.196  -2.035  -1.183  0.00  0.00    +0.018 A 
ATOM     15  C   UNL     1      -0.822  -2.354  -0.302  0.00  0.00    +0.020 A 
ATOM     16  C   UNL     1      -0.943  -1.671   0.892  0.00  0.00    -0.028 A 
ATOM     17  C   UNL     1      -0.038  -0.667   1.211  0.00  0.00    +0.041 A 
ATOM     18  C   UNL     1      -2.052  -2.018   1.851  0.00  0.00    +0.046 C 
ATOM     19 BR   UNL     1       0.357  -2.973  -2.818  0.00  0.00    -0.050 Br
ENDBRANCH   1  17
BRANCH   7  20
ATOM     20  C   UNL     1       1.135   1.614   8.275  0.00  0.00    +0.218 C 
ATOM     21  O   UNL     1       2.072   2.339   8.016  0.00  0.00    -0.275 OA
ATOM     22  N   UNL     1       0.957   1.167   9.534  0.00  0.00    -0.307 N 
ATOM     23  C   UNL     1       1.897   1.555  10.589  0.00  0.00    +0.131 C 
ATOM     24  C   UNL     1      -0.175   0.291   9.848  0.00  0.00    +0.131 C 
ENDBRANCH   7  20
TORSDOF 2
