REMARK  Name = ZINC39337085
REMARK  8 active torsions:
REMARK  status: ('A' for Active; 'I' for Inactive)
REMARK    1  A    between atoms: C_1  and  N_2
REMARK    2  A    between atoms: N_2  and  C_3
REMARK    3  A    between atoms: C_3  and  N_5
REMARK    4  A    between atoms: N_5  and  N_6
REMARK    5  A    between atoms: C_7  and  C_9
REMARK    6  A    between atoms: C_11  and  S_19
REMARK    7  A    between atoms: S_19  and  C_20
REMARK    8  A    between atoms: C_20  and  C_21
REMARK                            x       y       z     vdW  Elec       q    Type
REMARK                         _______ _______ _______ _____ _____    ______ ____
ROOT
ATOM      1  C   UNL     1      -0.597  -4.842   1.152  0.00  0.00    +0.075 C 
ATOM      2  C   UNL     1       0.094  -4.477   2.468  0.00  0.00    +0.004 C 
ATOM      3  N   UNL     1       0.690  -5.673   3.070  0.00  0.00    +0.388 N 
ATOM      4  C   UNL     1      -0.343  -6.664   3.377  0.00  0.00    -0.077 C 
ATOM      5  C   UNL     1      -1.049  -7.102   2.092  0.00  0.00    -0.015 C 
ATOM      6  C   UNL     1      -0.434  -6.348   0.905  0.00  0.00    -0.003 C 
ATOM      7  C   UNL     1       1.065  -6.671   0.855  0.00  0.00    -0.015 C 
ATOM      8  C   UNL     1       1.706  -6.244   2.184  0.00  0.00    -0.077 C 
ATOM      9  H   UNL     1       1.134  -5.406   3.936  0.00  0.00    -0.080 HD
ENDROOT
BRANCH   1  11
ATOM     10  N   UNL     1       0.016  -2.726   0.027  0.00  0.00    -0.235 N 
ATOM     11  C   UNL     1       0.035  -4.074   0.020  0.00  0.00    +0.232 C 
ATOM     12  O   UNL     1       0.559  -4.668  -0.898  0.00  0.00    -0.274 OA
ATOM     13  H   UNL     1      -0.403  -2.251   0.761  0.00  0.00    +0.173 HD
BRANCH  10  14
ATOM     14  N   UNL     1       0.603  -2.012  -1.025  0.00  0.00    -0.246 N 
ATOM     15  H   UNL     1       1.023  -2.487  -1.760  0.00  0.00    +0.172 HD
BRANCH  14  16
ATOM     16  C   UNL     1       0.585  -0.664  -1.018  0.00  0.00    +0.147 C 
ATOM     17  S   UNL     1       1.302   0.208  -2.304  0.00  0.00    -0.017 S 
BRANCH  16  19
ATOM     18  C   UNL     1      -0.018   1.461   0.010  0.00  0.00    +0.127 C 
ATOM     19  N   UNL     1       0.002  -0.004   0.002  0.00  0.00    -0.329 N 
ATOM     20  H   UNL     1      -0.404  -0.499   0.731  0.00  0.00    +0.147 HD
ENDBRANCH  16  19
ENDBRANCH  14  16
ENDBRANCH  10  14
ENDBRANCH   1  11
BRANCH   2  21
ATOM     21  S   UNL     1      -1.124  -3.773   3.612  0.00  0.00    -0.171 S 
BRANCH  21  22
ATOM     22  C   UNL     1      -1.415  -2.102   2.971  0.00  0.00    +0.102 C 
BRANCH  22  23
ATOM     23  C   UNL     1      -2.422  -1.397   3.842  0.00  0.00    -0.038 A 
ATOM     24  C   UNL     1      -3.772  -1.497   3.558  0.00  0.00    +0.006 A 
ATOM     25  C   UNL     1      -4.696  -0.851   4.357  0.00  0.00    +0.020 A 
ATOM     26  C   UNL     1      -4.271  -0.104   5.442  0.00  0.00    +0.041 A 
ATOM     27  C   UNL     1      -2.920  -0.005   5.726  0.00  0.00    +0.020 A 
ATOM     28  C   UNL     1      -1.997  -0.656   4.929  0.00  0.00    +0.006 A 
ATOM     29 CL   UNL     1      -5.431   0.708   6.446  0.00  0.00    -0.084 Cl
ENDBRANCH  22  23
ENDBRANCH  21  22
ENDBRANCH   2  21
TORSDOF 7
