REMARK  Name = ZINC13086019
REMARK  6 active torsions:
REMARK  status: ('A' for Active; 'I' for Inactive)
REMARK    1  A    between atoms: C_1  and  O_2
REMARK    2  A    between atoms: O_2  and  C_3
REMARK    3  A    between atoms: C_8  and  O_9
REMARK    4  A    between atoms: O_9  and  C_10
REMARK    5  A    between atoms: C_11  and  C_21
REMARK    6  A    between atoms: C_16  and  C_18
REMARK                            x       y       z     vdW  Elec       q    Type
REMARK                         _______ _______ _______ _____ _____    ______ ____
ROOT
ATOM      1  C   UNL     1       1.186   2.059   0.002  0.00  0.00    +0.162 A 
ATOM      2  C   UNL     1       2.357   1.325  -0.013  0.00  0.00    +0.053 A 
ATOM      3  C   UNL     1       3.592   1.963  -0.022  0.00  0.00    -0.037 A 
ATOM      4  C   UNL     1       3.648   3.339  -0.027  0.00  0.00    -0.016 A 
ATOM      5  C   UNL     1       2.474   4.081  -0.006  0.00  0.00    +0.055 A 
ATOM      6  C   UNL     1       1.244   3.449   0.003  0.00  0.00    +0.162 A 
ATOM      7  C   UNL     1       4.953   4.093  -0.069  0.00  0.00    +0.142 C 
ATOM      8  N   UNL     1       6.065   3.172   0.188  0.00  0.00    -0.290 N 
ATOM      9  C   UNL     1       6.042   1.874  -0.507  0.00  0.00    +0.113 C 
ATOM     10  C   UNL     1       4.824   1.096  -0.009  0.00  0.00    +0.054 C 
ATOM     11  C   UNL     1       7.068   3.499   1.027  0.00  0.00    +0.219 C 
ATOM     12  O   UNL     1       7.063   4.575   1.587  0.00  0.00    -0.275 OA
ENDROOT
BRANCH   7  13
ATOM     13  C   UNL     1       4.944   5.171   0.984  0.00  0.00    +0.042 A 
ATOM     14  C   UNL     1       4.985   6.477   0.616  0.00  0.00    +0.021 A 
ATOM     15  C   UNL     1       4.969   7.500   1.661  0.00  0.00    +0.003 A 
ATOM     16  C   UNL     1       5.003   8.862   1.338  0.00  0.00    +0.059 A 
ATOM     17  C   UNL     1       4.994   9.803   2.345  0.00  0.00    +0.167 A 
ATOM     18  C   UNL     1       4.951   9.400   3.686  0.00  0.00    +0.168 A 
ATOM     19  C   UNL     1       4.916   8.057   4.013  0.00  0.00    +0.075 A 
ATOM     20  C   UNL     1       4.924   7.097   3.010  0.00  0.00    +0.053 A 
ATOM     21  N   UNL     1       4.889   5.752   3.317  0.00  0.00    -0.322 N 
ATOM     22  H   UNL     1       4.857   5.475   4.247  0.00  0.00    +0.169 HD
ATOM     23  C   UNL     1       4.898   4.820   2.349  0.00  0.00    +0.254 A 
ATOM     24  O   UNL     1       4.866   3.641   2.658  0.00  0.00    -0.268 OA
ATOM     25  O   UNL     1       4.951  10.516   4.472  0.00  0.00    -0.453 OA
ATOM     26  C   UNL     1       5.409  11.585   3.624  0.00  0.00    +0.466 C 
ATOM     27  O   UNL     1       5.022  11.168   2.302  0.00  0.00    -0.453 OA
ENDBRANCH   7  13
BRANCH  11  28
ATOM     28  C   UNL     1       8.195   2.529   1.268  0.00  0.00    +0.075 C 
ATOM     29  C   UNL     1       8.292   1.890   2.655  0.00  0.00    +0.013 C 
ATOM     30  C   UNL     1       9.303   2.959   2.233  0.00  0.00    +0.013 C 
ENDBRANCH  11  28
BRANCH   1  32
ATOM     31  C   UNL     1       0.002  -0.004   0.002  0.00  0.00    +0.277 C 
ATOM     32  O   UNL     1      -0.017   1.425   0.010  0.00  0.00    -0.491 OA
ENDBRANCH   1  32
BRANCH   6  33
ATOM     33  O   UNL     1       0.098   4.182   0.018  0.00  0.00    -0.491 OA
ATOM     34  C   UNL     1       0.238   5.604   0.018  0.00  0.00    +0.277 C 
ENDBRANCH   6  33
TORSDOF 4
