REMARK  Name = ZINC07057742
REMARK  10 active torsions:
REMARK  status: ('A' for Active; 'I' for Inactive)
REMARK    1  A    between atoms: C_1  and  C_2
REMARK    2  A    between atoms: C_4  and  O_25
REMARK    3  A    between atoms: C_5  and  O_23
REMARK    4  A    between atoms: C_7  and  N_8
REMARK    5  A    between atoms: N_8  and  C_9
REMARK    6  A    between atoms: C_9  and  C_11
REMARK    7  A    between atoms: C_9  and  C_12
REMARK    8  A    between atoms: N_14  and  C_15
REMARK    9  A    between atoms: O_23  and  C_24
REMARK   10  A    between atoms: O_25  and  C_26
REMARK                            x       y       z     vdW  Elec       q    Type
REMARK                         _______ _______ _______ _____ _____    ______ ____
ROOT
ATOM      1  C   UNL     1      -0.729   1.579   1.251  0.00  0.00    +0.154 C 
ATOM      2  C   UNL     1      -0.014   1.096  -0.013  0.00  0.00    +0.038 C 
ENDROOT
BRANCH   1   3
ATOM      3  C   UNL     1      -0.749   3.086   1.272  0.00  0.00    +0.237 C 
ATOM      4  O   UNL     1      -1.808   3.678   1.291  0.00  0.00    -0.273 OA
ATOM      5  N   UNL     1       0.409   3.776   1.268  0.00  0.00    -0.283 N 
ATOM      6  H   UNL     1       1.254   3.305   1.333  0.00  0.00    +0.155 HD
BRANCH   5   7
ATOM      7  C   UNL     1       0.391   5.172   1.170  0.00  0.00    +0.053 A 
ATOM      8  C   UNL     1      -0.688   5.814   0.578  0.00  0.00    +0.044 A 
ATOM      9  C   UNL     1      -0.703   7.193   0.482  0.00  0.00    +0.043 A 
ATOM     10  C   UNL     1       0.357   7.933   0.977  0.00  0.00    +0.021 A 
ATOM     11  C   UNL     1       1.433   7.297   1.567  0.00  0.00    +0.023 A 
ATOM     12  C   UNL     1       1.451   5.918   1.670  0.00  0.00    +0.062 A 
ATOM     13 CL   UNL     1       2.799   5.120   2.418  0.00  0.00    -0.082 Cl
ATOM     14 CL   UNL     1      -2.052   7.997  -0.257  0.00  0.00    -0.083 Cl
ENDBRANCH   5   7
ENDBRANCH   1   3
BRANCH   1  15
ATOM     15  N   UNL     1      -2.103   1.072   1.260  0.00  0.00    -0.333 N 
ATOM     16  H   UNL     1      -2.825   1.623   0.920  0.00  0.00    +0.147 HD
BRANCH  15  23
ATOM     17  C   UNL     1      -4.799   0.173   1.250  0.00  0.00    +0.046 C 
ATOM     18  C   UNL     1      -3.676  -0.686   1.772  0.00  0.00    -0.026 A 
ATOM     19  C   UNL     1      -3.944  -1.952   2.258  0.00  0.00    +0.054 A 
ATOM     20  C   UNL     1      -2.915  -2.741   2.744  0.00  0.00    +0.162 A 
ATOM     21  C   UNL     1      -1.608  -2.262   2.737  0.00  0.00    +0.163 A 
ATOM     22  C   UNL     1      -1.339  -0.996   2.244  0.00  0.00    +0.072 A 
ATOM     23  C   UNL     1      -2.373  -0.208   1.758  0.00  0.00    +0.034 A 
BRANCH  21  24
ATOM     24  O   UNL     1      -0.597  -3.037   3.213  0.00  0.00    -0.491 OA
ATOM     25  C   UNL     1       0.719  -2.481   3.175  0.00  0.00    +0.277 C 
ENDBRANCH  21  24
BRANCH  20  26
ATOM     26  O   UNL     1      -3.181  -3.985   3.228  0.00  0.00    -0.491 OA
ATOM     27  C   UNL     1      -4.544  -4.412   3.204  0.00  0.00    +0.277 C 
ENDBRANCH  20  26
ENDBRANCH  15  23
ENDBRANCH   1  15
TORSDOF 6
