REMARK  Name = ZINC62824354
REMARK  4 active torsions:
REMARK  status: ('A' for Active; 'I' for Inactive)
REMARK    1  A    between atoms: C_1  and  C_2
REMARK    2  A    between atoms: C_7  and  C_8
REMARK    3  A    between atoms: C_10  and  C_13
REMARK    4  A    between atoms: C_18  and  N_19
REMARK                            x       y       z     vdW  Elec       q    Type
REMARK                         _______ _______ _______ _____ _____    ______ ____
ROOT
ATOM      1  C   UNL     1      -0.093  -0.072   2.569  0.00  0.00    +0.203 A 
ATOM      2  N   UNL     1       0.089  -0.686   3.749  0.00  0.00    -0.187 NA
ATOM      3  C   UNL     1      -0.139   0.156   4.731  0.00  0.00    +0.261 A 
ATOM      4  O   UNL     1      -0.476   1.343   4.198  0.00  0.00    -0.332 OA
ATOM      5  N   UNL     1      -0.435   1.174   2.789  0.00  0.00    -0.056 NA
ENDROOT
BRANCH   1  12
ATOM      6  C   UNL     1       2.246  -1.683   2.024  0.00  0.00    +0.044 C 
ATOM      7  C   UNL     1       1.196  -1.477   0.963  0.00  0.00    -0.039 A 
ATOM      8  C   UNL     1       1.344  -2.064  -0.278  0.00  0.00    +0.007 A 
ATOM      9  C   UNL     1       0.382  -1.877  -1.254  0.00  0.00    +0.038 A 
ATOM     10  C   UNL     1      -0.735  -1.100  -0.992  0.00  0.00    +0.124 A 
ATOM     11  C   UNL     1      -0.892  -0.508   0.248  0.00  0.00    +0.050 A 
ATOM     12  C   UNL     1       0.073  -0.700   1.234  0.00  0.00    +0.028 A 
ATOM     13  F   UNL     1      -1.671  -0.920  -1.949  0.00  0.00    -0.205 F 
ENDBRANCH   1  12
BRANCH   3  14
ATOM     14  C   UNL     1      -0.043  -0.150   6.172  0.00  0.00    +0.061 A 
ATOM     15  C   UNL     1      -0.626  -1.310   6.684  0.00  0.00    +0.029 A 
ATOM     16  C   UNL     1      -0.532  -1.590   8.031  0.00  0.00    +0.014 A 
ATOM     17  C   UNL     1       0.139  -0.725   8.880  0.00  0.00    +0.016 A 
ATOM     18  C   UNL     1       0.720   0.426   8.388  0.00  0.00    +0.024 A 
ATOM     19  C   UNL     1       0.640   0.721   7.033  0.00  0.00    +0.037 A 
ATOM     20  I   UNL     1      -1.409  -3.332   8.797  0.00  0.00    -0.044 I 
BRANCH  19  21
ATOM     21  N   UNL     1       1.230   1.878   6.534  0.00  0.00    -0.357 N 
ATOM     22  H   UNL     1       1.243   2.043   5.578  0.00  0.00    +0.142 HD
ATOM     23  H   UNL     1       1.629   2.520   7.142  0.00  0.00    +0.142 HD
ENDBRANCH  19  21
ENDBRANCH   3  14
TORSDOF 3
