REMARK  Name = ZINC01901490
REMARK  6 active torsions:
REMARK  status: ('A' for Active; 'I' for Inactive)
REMARK    1  A    between atoms: C_1  and  C_2
REMARK    2  A    between atoms: C_5  and  N_8
REMARK    3  A    between atoms: C_20  and  S_21
REMARK    4  A    between atoms: S_21  and  C_22
REMARK    5  A    between atoms: C_22  and  C_23
REMARK    6  A    between atoms: C_23  and  C_25
REMARK                            x       y       z     vdW  Elec       q    Type
REMARK                         _______ _______ _______ _____ _____    ______ ____
ROOT
ATOM      1  N   UNL     1       0.059  -4.170  -0.021  0.00  0.00    -0.245 N 
ATOM      2  C   UNL     1      -0.035  -4.823  -1.191  0.00  0.00    +0.268 A 
ATOM      3  O   UNL     1      -0.135  -4.200  -2.232  0.00  0.00    -0.266 OA
ATOM      4  C   UNL     1      -0.017  -6.303  -1.210  0.00  0.00    +0.075 A 
ATOM      5  C   UNL     1      -0.111  -7.191  -2.370  0.00  0.00    -0.023 A 
ATOM      6  C   UNL     1      -0.067  -8.507  -2.082  0.00  0.00    -0.004 A 
ATOM      7  S   UNL     1       0.096  -8.574  -0.322  0.00  0.00    -0.074 S 
ATOM      8  C   UNL     1       0.102  -6.938   0.021  0.00  0.00    +0.102 A 
ATOM      9  N   UNL     1       0.195  -6.224   1.198  0.00  0.00    -0.249 N 
ATOM     10  C   UNL     1       0.179  -4.854   1.179  0.00  0.00    +0.245 A 
ATOM     11  N   UNL     1       0.287  -4.431   2.416  0.00  0.00    -0.109 NA
ATOM     12  N   UNL     1       0.381  -5.550   3.252  0.00  0.00    -0.120 NA
ATOM     13  C   UNL     1       0.316  -6.624   2.503  0.00  0.00    +0.198 A 
ATOM     14  C   UNL     1      -0.142  -9.645  -3.053  0.00  0.00    +0.043 C 
ATOM     15  C   UNL     1      -0.656  -9.100  -4.393  0.00  0.00    +0.005 C 
ATOM     16  C   UNL     1       0.134  -7.838  -4.751  0.00  0.00    +0.005 C 
ATOM     17  C   UNL     1      -0.247  -6.698  -3.803  0.00  0.00    +0.037 C 
ENDROOT
BRANCH   1  22
ATOM     18  C   UNL     1      -0.017   1.503   0.008  0.00  0.00    +0.044 C 
ATOM     19  C   UNL     1       0.003  -0.004   0.001  0.00  0.00    -0.050 A 
ATOM     20  C   UNL     1       1.206  -0.677  -0.110  0.00  0.00    +0.005 A 
ATOM     21  C   UNL     1       1.228  -2.058  -0.117  0.00  0.00    +0.026 A 
ATOM     22  C   UNL     1       0.040  -2.771  -0.013  0.00  0.00    +0.053 A 
ATOM     23  C   UNL     1      -1.166  -2.091   0.098  0.00  0.00    +0.026 A 
ATOM     24  C   UNL     1      -1.181  -0.710   0.109  0.00  0.00    +0.005 A 
ENDBRANCH   1  22
BRANCH  13  25
ATOM     25  S   UNL     1       0.391  -8.289   3.073  0.00  0.00    -0.078 S 
BRANCH  25  26
ATOM     26  C   UNL     1       0.547  -8.130   4.873  0.00  0.00    +0.157 C 
BRANCH  26  27
ATOM     27  C   UNL     1       0.623  -9.502   5.494  0.00  0.00    +0.173 C 
ATOM     28  O   UNL     1       0.575 -10.489   4.791  0.00  0.00    -0.291 OA
BRANCH  27  29
ATOM     29  C   UNL     1       0.753  -9.643   6.952  0.00  0.00    +0.018 A 
ATOM     30  C   UNL     1       0.802  -8.507   7.767  0.00  0.00    +0.012 A 
ATOM     31  C   UNL     1       0.925  -8.647   9.132  0.00  0.00    +0.016 A 
ATOM     32  C   UNL     1       0.999  -9.909   9.699  0.00  0.00    +0.018 A 
ATOM     33  C   UNL     1       0.951 -11.038   8.898  0.00  0.00    +0.016 A 
ATOM     34  C   UNL     1       0.823 -10.914   7.532  0.00  0.00    +0.012 A 
ATOM     35 BR   UNL     1       1.168 -10.090  11.573  0.00  0.00    -0.050 Br
ENDBRANCH  27  29
ENDBRANCH  26  27
ENDBRANCH  25  26
ENDBRANCH  13  25
TORSDOF 5
