REMARK  Name = ZINC13045845
REMARK  13 active torsions:
REMARK  status: ('A' for Active; 'I' for Inactive)
REMARK    1  A    between atoms: C_1  and  C_2
REMARK    2  A    between atoms: C_2  and  C_3
REMARK    3  A    between atoms: C_3  and  C_5
REMARK    4  A    between atoms: C_3  and  C_6
REMARK    5  A    between atoms: C_9  and  N_12
REMARK    6  A    between atoms: C_13  and  C_15
REMARK    7  A    between atoms: C_15  and  C_17
REMARK    8  A    between atoms: C_15  and  S_18
REMARK    9  A    between atoms: S_18  and  C_19
REMARK   10  A    between atoms: C_23  and  C_33
REMARK   11  A    between atoms: N_29  and  C_30
REMARK   12  A    between atoms: C_30  and  C_31
REMARK   13  A    between atoms: C_31  and  O_32
REMARK                            x       y       z     vdW  Elec       q    Type
REMARK                         _______ _______ _______ _____ _____    ______ ____
ROOT
ATOM      1  C   UNL     1      -1.201   3.384   0.021  0.00  0.00    +0.173 A 
ATOM      2  N   UNL     1      -1.185   2.074   0.010  0.00  0.00    -0.223 NA
ATOM      3  C   UNL     1      -0.022   1.381  -0.018  0.00  0.00    +0.080 A 
ATOM      4  C   UNL     1      -0.007  -0.017  -0.034  0.00  0.00    +0.043 A 
ATOM      5  C   UNL     1       1.210  -0.686  -0.058  0.00  0.00    +0.065 A 
ATOM      6  C   UNL     1       2.414   0.029  -0.066  0.00  0.00    +0.016 A 
ATOM      7  C   UNL     1       2.412   1.394  -0.050  0.00  0.00    +0.016 A 
ATOM      8  C   UNL     1       1.202   2.087  -0.026  0.00  0.00    +0.065 A 
ATOM      9  C   UNL     1       1.153   3.558  -0.009  0.00  0.00    +0.262 A 
ATOM     10  O   UNL     1       2.172   4.222  -0.014  0.00  0.00    -0.267 OA
ATOM     11  N   UNL     1      -0.066   4.144   0.015  0.00  0.00    -0.285 N 
ENDROOT
BRANCH   5  12
ATOM     12  C   UNL     1       1.234  -2.166  -0.075  0.00  0.00    +0.387 C 
ATOM     13  O   UNL     1       0.193  -2.790  -0.069  0.00  0.00    -0.241 OA
ATOM     14  O   UNL     1       2.411  -2.820  -0.098  0.00  0.00    -0.241 OA
ENDBRANCH   5  12
BRANCH   1  15
ATOM     15  S   UNL     1      -2.760   4.205   0.051  0.00  0.00    -0.075 S 
BRANCH  15  16
ATOM     16  C   UNL     1      -3.868   2.773   0.050  0.00  0.00    +0.137 C 
ATOM     17  C   UNL     1      -3.716   2.012  -1.268  0.00  0.00    +0.029 C 
BRANCH  16  19
ATOM     18  N   UNL     1      -6.223   2.415   0.718  0.00  0.00    -0.285 N 
ATOM     19  C   UNL     1      -5.293   3.241   0.198  0.00  0.00    +0.230 C 
ATOM     20  O   UNL     1      -5.603   4.361  -0.149  0.00  0.00    -0.274 OA
ATOM     21  H   UNL     1      -5.991   1.498   0.934  0.00  0.00    +0.155 HD
BRANCH  18  25
ATOM     22  C   UNL     1     -10.094   3.798   1.395  0.00  0.00    -0.044 A 
ATOM     23  C   UNL     1      -9.379   4.256   0.303  0.00  0.00    +0.006 A 
ATOM     24  C   UNL     1      -8.095   3.800   0.076  0.00  0.00    +0.023 A 
ATOM     25  C   UNL     1      -7.523   2.880   0.945  0.00  0.00    +0.033 A 
ATOM     26  C   UNL     1      -8.246   2.418   2.038  0.00  0.00    +0.023 A 
ATOM     27  C   UNL     1      -9.527   2.882   2.262  0.00  0.00    +0.006 A 
BRANCH  22  28
ATOM     28  C   UNL     1     -11.494   4.298   1.639  0.00  0.00    +0.016 C 
ATOM     29  C   UNL     1     -12.468   3.119   1.620  0.00  0.00    +0.012 C 
BRANCH  28  31
ATOM     30  C   UNL     1     -12.944   5.606   3.198  0.00  0.00    +0.004 C 
ATOM     31  C   UNL     1     -11.558   4.990   3.003  0.00  0.00    +0.004 C 
ENDBRANCH  28  31
ENDBRANCH  22  28
ENDBRANCH  18  25
ENDBRANCH  16  19
ENDBRANCH  15  16
ENDBRANCH   1  15
BRANCH  11  32
ATOM     32  C   UNL     1      -0.169   5.605   0.033  0.00  0.00    +0.155 C 
BRANCH  32  33
ATOM     33  C   UNL     1      -0.225   6.130  -1.403  0.00  0.00    +0.177 C 
BRANCH  33  34
ATOM     34  O   UNL     1      -1.424   5.675  -2.031  0.00  0.00    -0.393 OA
ATOM     35  H   UNL     1      -1.526   5.971  -2.946  0.00  0.00    +0.209 HD
ENDBRANCH  33  34
ENDBRANCH  32  33
ENDBRANCH  11  32
TORSDOF 10
