REMARK  Name = ZINC12599001
REMARK  9 active torsions:
REMARK  status: ('A' for Active; 'I' for Inactive)
REMARK    1  A    between atoms: C_4  and  C_7
REMARK    2  A    between atoms: C_10  and  O_13
REMARK    3  A    between atoms: O_13  and  C_14
REMARK    4  A    between atoms: C_14  and  C_15
REMARK    5  A    between atoms: N_17  and  N_18
REMARK    6  A    between atoms: C_19  and  C_21
REMARK    7  A    between atoms: C_21  and  C_22
REMARK    8  A    between atoms: C_22  and  C_24
REMARK    9  A    between atoms: C_22  and  N_31
REMARK                            x       y       z     vdW  Elec       q    Type
REMARK                         _______ _______ _______ _____ _____    ______ ____
ROOT
ATOM      1  N   UNL     1      -2.120   9.922   0.019  0.00  0.00    -0.234 N 
ATOM      2  C   UNL     1      -3.192  10.736   0.078  0.00  0.00    +0.231 C 
ATOM      3  O   UNL     1      -4.300  10.270   0.244  0.00  0.00    -0.274 OA
ATOM      4  H   UNL     1      -1.234  10.295  -0.114  0.00  0.00    +0.173 HD
ENDROOT
BRANCH   1   7
ATOM      5  C   UNL     1      -1.212   7.722   0.089  0.00  0.00    +0.267 C 
ATOM      6  O   UNL     1      -0.105   8.189  -0.076  0.00  0.00    -0.271 OA
ATOM      7  N   UNL     1      -2.285   8.537   0.149  0.00  0.00    -0.232 N 
ATOM      8  H   UNL     1      -3.170   8.164   0.282  0.00  0.00    +0.173 HD
BRANCH   5   9
ATOM      9  C   UNL     1      -1.389   6.232   0.229  0.00  0.00    +0.326 C 
BRANCH   9  10
ATOM     10  O   UNL     1      -0.116   5.590   0.133  0.00  0.00    -0.483 OA
BRANCH  10  14
ATOM     11  C   UNL     1      -0.063   1.474   0.455  0.00  0.00    -0.018 A 
ATOM     12  C   UNL     1      -1.271   2.166   0.534  0.00  0.00    +0.012 A 
ATOM     13  C   UNL     1      -1.285   3.541   0.432  0.00  0.00    +0.046 A 
ATOM     14  C   UNL     1      -0.099   4.236   0.239  0.00  0.00    +0.121 A 
ATOM     15  C   UNL     1       1.105   3.550   0.154  0.00  0.00    +0.046 A 
ATOM     16  C   UNL     1       1.126   2.175   0.261  0.00  0.00    +0.012 A 
BRANCH  11  20
ATOM     17  C   UNL     1      -0.009  -2.764   0.785  0.00  0.00    +0.000 A 
ATOM     18  C   UNL     1      -1.209  -2.082   0.871  0.00  0.00    +0.001 A 
ATOM     19  C   UNL     1      -1.233  -0.706   0.764  0.00  0.00    +0.008 A 
ATOM     20  C   UNL     1      -0.044  -0.004   0.571  0.00  0.00    -0.018 A 
ATOM     21  C   UNL     1       1.161  -0.698   0.480  0.00  0.00    +0.008 A 
ATOM     22  C   UNL     1       1.174  -2.073   0.593  0.00  0.00    +0.001 A 
ENDBRANCH  11  20
ENDBRANCH  10  14
ENDBRANCH   9  10
ENDBRANCH   5   9
ENDBRANCH   1   7
BRANCH   2  23
ATOM     23  C   UNL     1      -3.015  12.227  -0.061  0.00  0.00    +0.124 C 
BRANCH  23  24
ATOM     24  C   UNL     1      -4.378  12.914   0.042  0.00  0.00    +0.115 C 
BRANCH  24  25
ATOM     25  C   UNL     1      -4.190  14.409   0.025  0.00  0.00    -0.008 A 
ATOM     26  C   UNL     1      -2.979  14.949  -0.368  0.00  0.00    +0.007 A 
ATOM     27  C   UNL     1      -2.808  16.320  -0.388  0.00  0.00    +0.000 A 
ATOM     28  C   UNL     1      -3.843  17.152  -0.004  0.00  0.00    +0.001 A 
ATOM     29  C   UNL     1      -5.051  16.614   0.395  0.00  0.00    +0.020 A 
ATOM     30  C   UNL     1      -5.225  15.241   0.410  0.00  0.00    +0.046 A 
ATOM     31 CL   UNL     1      -6.743  14.564   0.912  0.00  0.00    -0.083 Cl
ENDBRANCH  24  25
BRANCH  24  32
ATOM     32  N   UNL     1      -5.214  12.515  -1.093  0.00  0.00    -0.292 N 
ATOM     33  C   UNL     1      -4.856  12.857  -2.347  0.00  0.00    +0.298 C 
ATOM     34  O   UNL     1      -3.794  13.416  -2.545  0.00  0.00    -0.253 OA
ATOM     35  N   UNL     1      -5.674  12.579  -3.381  0.00  0.00    -0.313 N 
ATOM     36  H   UNL     1      -6.025  12.004  -0.943  0.00  0.00    +0.151 HD
ATOM     37  H   UNL     1      -6.521  12.133  -3.223  0.00  0.00    +0.146 HD
ATOM     38  H   UNL     1      -5.416  12.825  -4.283  0.00  0.00    +0.146 HD
ENDBRANCH  24  32
ENDBRANCH  23  24
ENDBRANCH   2  23
TORSDOF 9
