REMARK  Name = ZINC08948540
REMARK  10 active torsions:
REMARK  status: ('A' for Active; 'I' for Inactive)
REMARK    1  A    between atoms: C_1  and  C_2
REMARK    2  A    between atoms: C_8  and  N_10
REMARK    3  A    between atoms: C_14  and  C_16
REMARK    4  A    between atoms: C_16  and  N_17
REMARK    5  A    between atoms: C_20  and  C_24
REMARK    6  A    between atoms: C_20  and  C_25
REMARK    7  A    between atoms: C_28  and  C_31
REMARK    8  A    between atoms: C_31  and  C_32
REMARK    9  A    between atoms: C_31  and  C_33
REMARK   10  A    between atoms: C_31  and  C_34
REMARK                            x       y       z     vdW  Elec       q    Type
REMARK                         _______ _______ _______ _____ _____    ______ ____
ROOT
ATOM      1  N   UNL     1       0.002  -0.004   0.002  0.00  0.00    -0.215 N 
ATOM      2  C   UNL     1      -0.016   1.343   0.009  0.00  0.00    +0.251 C 
ATOM      3  O   UNL     1      -0.992   2.062   0.018  0.00  0.00    -0.272 OA
ATOM      4  C   UNL     1       1.437   1.773  -0.002  0.00  0.00    +0.135 C 
ATOM      5  N   UNL     1       2.175   0.498  -0.016  0.00  0.00    -0.281 N 
ATOM      6  C   UNL     1       1.252  -0.481  -0.013  0.00  0.00    +0.310 C 
ATOM      7  O   UNL     1       1.524  -1.665  -0.021  0.00  0.00    -0.252 OA
ATOM      8  C   UNL     1       1.748   2.588  -1.259  0.00  0.00    +0.047 C 
ATOM      9  H   UNL     1       3.139   0.386  -0.025  0.00  0.00    +0.152 HD
ENDROOT
BRANCH   4  10
ATOM     10  C   UNL     1       1.767   2.563   1.238  0.00  0.00    -0.015 A 
ATOM     11  C   UNL     1       0.791   3.325   1.852  0.00  0.00    +0.006 A 
ATOM     12  C   UNL     1       1.092   4.047   2.992  0.00  0.00    +0.004 A 
ATOM     13  C   UNL     1       2.371   4.012   3.514  0.00  0.00    -0.042 A 
ATOM     14  C   UNL     1       3.349   3.253   2.898  0.00  0.00    +0.004 A 
ATOM     15  C   UNL     1       3.047   2.529   1.760  0.00  0.00    +0.006 A 
BRANCH  13  16
ATOM     16  C   UNL     1       2.701   4.802   4.754  0.00  0.00    -0.013 C 
ATOM     17  C   UNL     1       3.807   5.811   4.438  0.00  0.00    +0.015 C 
ATOM     18  C   UNL     1       1.452   5.547   5.231  0.00  0.00    +0.015 C 
ATOM     19  C   UNL     1       3.177   3.850   5.853  0.00  0.00    +0.015 C 
ENDBRANCH  13  16
ENDBRANCH   4  10
BRANCH   1  20
ATOM     20  C   UNL     1      -1.199  -0.844   0.010  0.00  0.00    +0.214 C 
BRANCH  20  25
ATOM     21  N   UNL     1      -4.183  -2.890  -3.155  0.00  0.00    -0.296 N 
ATOM     22  C   UNL     1      -3.094  -2.132  -2.916  0.00  0.00    +0.306 C 
ATOM     23  O   UNL     1      -2.457  -1.675  -3.844  0.00  0.00    -0.252 OA
ATOM     24  N   UNL     1      -2.713  -1.882  -1.648  0.00  0.00    -0.239 N 
ATOM     25  C   UNL     1      -1.625  -1.124  -1.408  0.00  0.00    +0.238 C 
ATOM     26  O   UNL     1      -0.988  -0.667  -2.334  0.00  0.00    -0.274 OA
ATOM     27  H   UNL     1      -4.692  -3.255  -2.415  0.00  0.00    +0.151 HD
ATOM     28  H   UNL     1      -3.222  -2.247  -0.907  0.00  0.00    +0.159 HD
BRANCH  21  35
ATOM     29  C   UNL     1      -4.527  -5.617  -4.070  0.00  0.00    +0.009 C 
ATOM     30  C   UNL     1      -5.398  -4.465  -4.578  0.00  0.00    +0.006 C 
ATOM     31  C   UNL     1      -5.830  -4.750  -6.017  0.00  0.00    +0.005 C 
ATOM     32  C   UNL     1      -6.701  -3.599  -6.525  0.00  0.00    +0.000 C 
ATOM     33  C   UNL     1      -5.901  -2.296  -6.481  0.00  0.00    +0.002 C 
ATOM     34  C   UNL     1      -5.468  -2.011  -5.041  0.00  0.00    +0.022 C 
ATOM     35  C   UNL     1      -4.597  -3.162  -4.534  0.00  0.00    +0.077 C 
ENDBRANCH  21  35
ENDBRANCH  20  25
ENDBRANCH   1  20
TORSDOF 5
