REMARK  Name = ZINC13266957
REMARK  8 active torsions:
REMARK  status: ('A' for Active; 'I' for Inactive)
REMARK    1  A    between atoms: C_1  and  C_2
REMARK    2  A    between atoms: C_5  and  N_9
REMARK    3  A    between atoms: C_13  and  S_14
REMARK    4  A    between atoms: S_14  and  C_15
REMARK    5  A    between atoms: C_15  and  C_16
REMARK    6  A    between atoms: N_18  and  C_19
REMARK    7  A    between atoms: C_21  and  C_27
REMARK    8  A    between atoms: C_23  and  C_25
REMARK                            x       y       z     vdW  Elec       q    Type
REMARK                         _______ _______ _______ _____ _____    ______ ____
ROOT
ATOM      1  C   UNL     1      -5.713   2.424  -3.740  0.00  0.00    +0.227 C 
ATOM      2  O   UNL     1      -4.971   1.509  -4.030  0.00  0.00    -0.275 OA
ATOM      3  N   UNL     1      -6.842   2.625  -4.447  0.00  0.00    -0.285 N 
ATOM      4  H   UNL     1      -7.473   3.307  -4.170  0.00  0.00    +0.155 HD
ENDROOT
BRANCH   3   5
ATOM      5  C   UNL     1      -7.104   1.849  -5.583  0.00  0.00    +0.035 A 
ATOM      6  C   UNL     1      -6.057   1.420  -6.385  0.00  0.00    +0.038 A 
ATOM      7  C   UNL     1      -6.314   0.642  -7.515  0.00  0.00    +0.066 A 
ATOM      8  C   UNL     1      -7.626   0.306  -7.844  0.00  0.00    +0.030 A 
ATOM      9  C   UNL     1      -8.677   0.744  -7.039  0.00  0.00    +0.066 A 
ATOM     10  C   UNL     1      -8.411   1.517  -5.908  0.00  0.00    +0.038 A 
BRANCH   9  11
ATOM     11  C   UNL     1     -10.069   0.390  -7.384  0.00  0.00    +0.387 C 
ATOM     12  O   UNL     1     -10.984   0.771  -6.682  0.00  0.00    -0.241 OA
ATOM     13  O   UNL     1     -10.324  -0.357  -8.476  0.00  0.00    -0.241 OA
ENDBRANCH   9  11
BRANCH   7  14
ATOM     14  C   UNL     1      -5.197   0.180  -8.365  0.00  0.00    +0.387 C 
ATOM     15  O   UNL     1      -4.054   0.473  -8.078  0.00  0.00    -0.241 OA
ATOM     16  O   UNL     1      -5.447  -0.566  -9.458  0.00  0.00    -0.241 OA
ENDBRANCH   7  14
ENDBRANCH   3   5
BRANCH   1  17
ATOM     17  C   UNL     1      -5.372   3.335  -2.589  0.00  0.00    +0.173 C 
BRANCH  17  18
ATOM     18  S   UNL     1      -3.808   2.809  -1.846  0.00  0.00    -0.076 S 
BRANCH  18  23
ATOM     19  N   UNL     1      -2.639   4.110   0.341  0.00  0.00    -0.277 N 
ATOM     20  C   UNL     1      -2.948   5.189   1.126  0.00  0.00    +0.230 A 
ATOM     21  N   UNL     1      -4.078   5.673   0.694  0.00  0.00    -0.137 NA
ATOM     22  N   UNL     1      -4.503   4.981  -0.302  0.00  0.00    -0.122 NA
ATOM     23  C   UNL     1      -3.657   4.011  -0.567  0.00  0.00    +0.196 A 
BRANCH  19  28
ATOM     24  C   UNL     1       1.928   0.764   0.756  0.00  0.00    +0.045 C 
ATOM     25  C   UNL     1       0.715   1.652   0.646  0.00  0.00    -0.032 A 
ATOM     26  C   UNL     1       0.867   3.026   0.616  0.00  0.00    +0.007 A 
ATOM     27  C   UNL     1      -0.242   3.842   0.515  0.00  0.00    +0.026 A 
ATOM     28  C   UNL     1      -1.511   3.283   0.443  0.00  0.00    +0.051 A 
ATOM     29  C   UNL     1      -1.661   1.904   0.468  0.00  0.00    +0.046 A 
ATOM     30  C   UNL     1      -0.547   1.091   0.575  0.00  0.00    +0.046 A 
ATOM     31 CL   UNL     1      -0.734  -0.635   0.613  0.00  0.00    -0.083 Cl
ENDBRANCH  19  28
ENDBRANCH  18  23
ENDBRANCH  17  18
ENDBRANCH   1  17
TORSDOF 7
