REMARK  Name = ZINC12602482
REMARK  3 active torsions:
REMARK  status: ('A' for Active; 'I' for Inactive)
REMARK    1  A    between atoms: C_1  and  C_2
REMARK    2  A    between atoms: C_4  and  C_16
REMARK    3  A    between atoms: N_25  and  C_28
REMARK                            x       y       z     vdW  Elec       q    Type
REMARK                         _______ _______ _______ _____ _____    ______ ____
ROOT
ATOM      1  C   UNL     1      -4.675   2.930   5.381  0.00  0.00    +0.065 C 
ATOM      2  C   UNL     1      -3.385   2.756   4.620  0.00  0.00    +0.041 A 
ATOM      3  C   UNL     1      -2.199   3.172   5.198  0.00  0.00    +0.038 A 
ATOM      4  C   UNL     1      -1.002   3.010   4.497  0.00  0.00    +0.068 A 
ATOM      5  C   UNL     1      -1.063   2.422   3.217  0.00  0.00    +0.120 A 
ATOM      6  C   UNL     1      -2.317   2.034   2.706  0.00  0.00    +0.161 A 
ATOM      7  N   UNL     1      -3.414   2.211   3.422  0.00  0.00    -0.233 NA
ATOM      8  N   UNL     1      -2.065   1.509   1.457  0.00  0.00    -0.312 N 
ATOM      9  C   UNL     1      -0.721   1.573   1.250  0.00  0.00    +0.112 A 
ATOM     10  N   UNL     1      -0.140   2.115   2.286  0.00  0.00    -0.230 NA
ATOM     11  C   UNL     1      -0.013   1.086   0.008  0.00  0.00    +0.074 C 
ATOM     12  C   UNL     1      -0.754   1.593  -1.231  0.00  0.00    +0.008 C 
ATOM     13  C   UNL     1      -1.839   0.595  -1.622  0.00  0.00    +0.002 C 
ATOM     14  C   UNL     1      -2.422  -0.073  -0.377  0.00  0.00    +0.022 C 
ATOM     15  C   UNL     1      -3.064   0.987   0.520  0.00  0.00    +0.125 C 
ENDROOT
BRANCH   4  16
ATOM     16  C   UNL     1       0.286   3.441   5.078  0.00  0.00    +0.252 C 
ATOM     17  O   UNL     1       1.316   3.291   4.450  0.00  0.00    -0.270 OA
ATOM     18  N   UNL     1       0.319   4.001   6.303  0.00  0.00    -0.261 N 
ATOM     19  C   UNL     1       1.530   4.406   6.849  0.00  0.00    +0.165 A 
ATOM     20  N   UNL     1       1.764   4.972   8.017  0.00  0.00    -0.229 NA
ATOM     21  C   UNL     1       2.990   5.302   8.408  0.00  0.00    +0.056 A 
ATOM     22  C   UNL     1       3.991   5.035   7.527  0.00  0.00    +0.028 A 
ATOM     23  S   UNL     1       3.125   4.305   6.165  0.00  0.00    -0.055 S 
ATOM     24  C   UNL     1       5.445   5.308   7.706  0.00  0.00    +0.128 C 
ATOM     25  N   UNL     1       5.601   6.234   8.846  0.00  0.00    -0.300 NA
ATOM     26  C   UNL     1       4.824   5.768  10.003  0.00  0.00    +0.090 C 
ATOM     27  C   UNL     1       3.325   5.950   9.747  0.00  0.00    +0.071 C 
ATOM     28  C   UNL     1       7.017   6.404   9.196  0.00  0.00    +0.105 C 
ATOM     29  H   UNL     1      -0.614   4.137   6.871  0.00  0.00    +0.157 HD
ENDBRANCH   4  16
TORSDOF 1
