REMARK  Name = ZINC13046224
REMARK  10 active torsions:
REMARK  status: ('A' for Active; 'I' for Inactive)
REMARK    1  A    between atoms: C_1  and  C_2
REMARK    2  A    between atoms: C_2  and  C_4
REMARK    3  A    between atoms: C_2  and  N_13
REMARK    4  A    between atoms: C_14  and  C_16
REMARK    5  A    between atoms: C_16  and  S_17
REMARK    6  A    between atoms: S_17  and  C_18
REMARK    7  A    between atoms: C_22  and  C_32
REMARK    8  A    between atoms: N_28  and  C_29
REMARK    9  A    between atoms: C_29  and  C_30
REMARK   10  A    between atoms: C_30  and  O_31
REMARK                            x       y       z     vdW  Elec       q    Type
REMARK                         _______ _______ _______ _____ _____    ______ ____
ROOT
ATOM      1  C   UNL     1      -0.340   2.751   1.773  0.00  0.00    +0.173 A 
ATOM      2  N   UNL     1      -0.913   3.238   2.846  0.00  0.00    -0.223 NA
ATOM      3  C   UNL     1      -1.904   2.572   3.484  0.00  0.00    +0.080 A 
ATOM      4  C   UNL     1      -2.510   3.091   4.632  0.00  0.00    +0.043 A 
ATOM      5  C   UNL     1      -3.523   2.373   5.253  0.00  0.00    +0.065 A 
ATOM      6  C   UNL     1      -3.939   1.138   4.737  0.00  0.00    +0.016 A 
ATOM      7  C   UNL     1      -3.354   0.622   3.616  0.00  0.00    +0.016 A 
ATOM      8  C   UNL     1      -2.334   1.326   2.977  0.00  0.00    +0.065 A 
ATOM      9  C   UNL     1      -1.678   0.806   1.767  0.00  0.00    +0.262 A 
ATOM     10  O   UNL     1      -2.003  -0.261   1.281  0.00  0.00    -0.267 OA
ATOM     11  N   UNL     1      -0.698   1.558   1.213  0.00  0.00    -0.285 N 
ENDROOT
BRANCH   5  12
ATOM     12  C   UNL     1      -4.170   2.915   6.468  0.00  0.00    +0.387 C 
ATOM     13  O   UNL     1      -3.813   3.985   6.920  0.00  0.00    -0.241 OA
ATOM     14  O   UNL     1      -5.153   2.222   7.074  0.00  0.00    -0.241 OA
ENDBRANCH   5  12
BRANCH   1  15
ATOM     15  S   UNL     1       0.947   3.683   1.011  0.00  0.00    -0.078 S 
BRANCH  15  16
ATOM     16  C   UNL     1       1.002   5.110   2.124  0.00  0.00    +0.173 C 
BRANCH  16  18
ATOM     17  N   UNL     1       2.286   7.214   2.335  0.00  0.00    -0.308 N 
ATOM     18  C   UNL     1       2.064   6.071   1.655  0.00  0.00    +0.224 C 
ATOM     19  O   UNL     1       2.719   5.817   0.667  0.00  0.00    -0.275 OA
ATOM     20  H   UNL     1       1.762   7.417   3.126  0.00  0.00    +0.149 HD
BRANCH  17  22
ATOM     21  C   UNL     1       2.734   9.071   0.808  0.00  0.00    +0.033 C 
ATOM     22  C   UNL     1       3.318   8.148   1.879  0.00  0.00    +0.100 C 
BRANCH  22  23
ATOM     23  C   UNL     1       3.799   8.973   3.045  0.00  0.00    -0.024 A 
ATOM     24  C   UNL     1       2.894   9.434   3.984  0.00  0.00    +0.009 A 
ATOM     25  C   UNL     1       3.330  10.190   5.056  0.00  0.00    +0.050 A 
ATOM     26  C   UNL     1       4.676  10.489   5.191  0.00  0.00    +0.166 A 
ATOM     27  C   UNL     1       5.588  10.025   4.245  0.00  0.00    +0.167 A 
ATOM     28  C   UNL     1       5.144   9.263   3.177  0.00  0.00    +0.055 A 
ATOM     29  O   UNL     1       6.837  10.449   4.599  0.00  0.00    -0.453 OA
ATOM     30  C   UNL     1       6.736  10.828   5.984  0.00  0.00    +0.466 C 
ATOM     31  O   UNL     1       5.354  11.203   6.137  0.00  0.00    -0.453 OA
ENDBRANCH  22  23
ENDBRANCH  17  22
ENDBRANCH  16  18
ENDBRANCH  15  16
ENDBRANCH   1  15
BRANCH  11  32
ATOM     32  C   UNL     1      -0.013   1.086   0.008  0.00  0.00    +0.155 C 
BRANCH  32  33
ATOM     33  C   UNL     1      -0.753   1.593  -1.232  0.00  0.00    +0.177 C 
BRANCH  33  34
ATOM     34  O   UNL     1      -0.672   3.018  -1.285  0.00  0.00    -0.393 OA
ATOM     35  H   UNL     1      -1.120   3.410  -2.047  0.00  0.00    +0.209 HD
ENDBRANCH  33  34
ENDBRANCH  32  33
ENDBRANCH  11  32
TORSDOF 9
