REMARK  Name = ZINC17080685
REMARK  11 active torsions:
REMARK  status: ('A' for Active; 'I' for Inactive)
REMARK    1  A    between atoms: C_1  and  C_2
REMARK    2  A    between atoms: C_11  and  N_13
REMARK    3  A    between atoms: N_13  and  C_14
REMARK    4  A    between atoms: C_14  and  N_16
REMARK    5  A    between atoms: N_16  and  C_17
REMARK    6  A    between atoms: C_17  and  C_19
REMARK    7  A    between atoms: C_17  and  C_20
REMARK    8  A    between atoms: C_23  and  C_26
REMARK    9  A    between atoms: C_26  and  C_27
REMARK   10  A    between atoms: C_26  and  C_28
REMARK   11  A    between atoms: C_26  and  C_29
REMARK                            x       y       z     vdW  Elec       q    Type
REMARK                         _______ _______ _______ _____ _____    ______ ____
ROOT
ATOM      1  C   UNL     1      -1.079  -1.816   1.258  0.00  0.00    +0.135 C 
ATOM      2  S   UNL     1       0.123  -2.879   0.662  0.00  0.00    -0.019 S 
ENDROOT
BRANCH   1   3
ATOM      3  N   UNL     1      -1.878  -2.202   2.272  0.00  0.00    -0.297 N 
ATOM      4  H   UNL     1      -2.504  -1.573   2.663  0.00  0.00    +0.154 HD
BRANCH   3  15
ATOM      5  C   UNL     1      -1.455  -8.645   3.304  0.00  0.00    +0.045 C 
ATOM      6  C   UNL     1      -1.579  -7.465   4.234  0.00  0.00    -0.033 A 
ATOM      7  C   UNL     1      -1.621  -7.639   5.580  0.00  0.00    +0.096 A 
ATOM      8  C   UNL     1      -1.736  -6.519   6.429  0.00  0.00    +0.337 A 
ATOM      9  O   UNL     1      -1.773  -6.690   7.634  0.00  0.00    -0.245 OA
ATOM     10  O   UNL     1      -1.806  -5.270   5.942  0.00  0.00    -0.422 OA
ATOM     11  C   UNL     1      -1.770  -5.028   4.614  0.00  0.00    +0.141 A 
ATOM     12  C   UNL     1      -1.656  -6.101   3.709  0.00  0.00    +0.021 A 
ATOM     13  C   UNL     1      -1.617  -5.855   2.332  0.00  0.00    +0.013 A 
ATOM     14  C   UNL     1      -1.696  -4.574   1.869  0.00  0.00    +0.024 A 
ATOM     15  C   UNL     1      -1.804  -3.506   2.761  0.00  0.00    +0.036 A 
ATOM     16  C   UNL     1      -1.843  -3.732   4.129  0.00  0.00    +0.070 A 
ENDBRANCH   3  15
ENDBRANCH   1   3
BRANCH   1  17
ATOM     17  N   UNL     1      -1.227  -0.592   0.712  0.00  0.00    -0.320 N 
ATOM     18  H   UNL     1      -1.908   0.010   1.049  0.00  0.00    +0.148 HD
BRANCH  17  19
ATOM     19  C   UNL     1      -0.359  -0.173  -0.391  0.00  0.00    +0.099 C 
ATOM     20  C   UNL     1      -0.939  -0.673  -1.716  0.00  0.00    +0.033 C 
BRANCH  19  21
ATOM     21  C   UNL     1      -0.272   1.332  -0.417  0.00  0.00    -0.027 A 
ATOM     22  C   UNL     1      -1.400   2.094  -0.177  0.00  0.00    +0.006 A 
ATOM     23  C   UNL     1      -1.319   3.474  -0.196  0.00  0.00    +0.004 A 
ATOM     24  C   UNL     1      -0.112   4.091  -0.466  0.00  0.00    -0.042 A 
ATOM     25  C   UNL     1       1.015   3.329  -0.711  0.00  0.00    +0.004 A 
ATOM     26  C   UNL     1       0.935   1.949  -0.687  0.00  0.00    +0.006 A 
BRANCH  24  27
ATOM     27  C   UNL     1      -0.024   5.596  -0.491  0.00  0.00    -0.013 C 
ATOM     28  C   UNL     1       0.439   6.056  -1.875  0.00  0.00    +0.015 C 
ATOM     29  C   UNL     1      -1.401   6.191  -0.190  0.00  0.00    +0.015 C 
ATOM     30  C   UNL     1       0.978   6.066   0.564  0.00  0.00    +0.015 C 
ENDBRANCH  24  27
ENDBRANCH  19  21
ENDBRANCH  17  19
ENDBRANCH   1  17
TORSDOF 6
