REMARK  Name = ZINC19291868
REMARK  3 active torsions:
REMARK  status: ('A' for Active; 'I' for Inactive)
REMARK    1  A    between atoms: C_2  and  C_11
REMARK    2  A    between atoms: C_11  and  N_12
REMARK    3  A    between atoms: C_20  and  N_21
REMARK                            x       y       z     vdW  Elec       q    Type
REMARK                         _______ _______ _______ _____ _____    ______ ____
ROOT
ATOM      1  N   UNL     1       1.393   4.082   1.375  0.00  0.00    -0.292 NA
ATOM      2  C   UNL     1       1.050   5.508   1.496  0.00  0.00    +0.090 C 
ATOM      3  C   UNL     1       0.973   5.865   2.982  0.00  0.00    +0.056 C 
ATOM      4  C   UNL     1       2.212   5.383   3.688  0.00  0.00    +0.014 A 
ATOM      5  C   UNL     1       3.050   4.448   3.128  0.00  0.00    +0.039 A 
ATOM      6  N   UNL     1       4.126   4.059   3.805  0.00  0.00    -0.330 N 
ATOM      7  C   UNL     1       4.399   4.560   4.999  0.00  0.00    +0.197 A 
ATOM      8  N   UNL     1       3.618   5.465   5.569  0.00  0.00    -0.201 NA
ATOM      9  C   UNL     1       2.525   5.897   4.949  0.00  0.00    +0.125 A 
ATOM     10  N   UNL     1       5.530   4.127   5.670  0.00  0.00    -0.301 N 
ATOM     11  C   UNL     1       6.495   3.136   5.171  0.00  0.00    +0.108 C 
ATOM     12  C   UNL     1       7.569   2.952   6.263  0.00  0.00    +0.020 C 
ATOM     13  C   UNL     1       6.842   3.427   7.549  0.00  0.00    +0.020 C 
ATOM     14  C   UNL     1       5.969   4.586   7.000  0.00  0.00    +0.108 C 
ATOM     15  C   UNL     1       2.788   3.857   1.769  0.00  0.00    +0.138 C 
ATOM     16  H   UNL     1       4.720   3.397   3.417  0.00  0.00    +0.168 HD
ENDROOT
BRANCH   9  17
ATOM     17  N   UNL     1       1.708   6.844   5.545  0.00  0.00    -0.343 N 
ATOM     18  H   UNL     1       0.911   7.155   5.087  0.00  0.00    +0.144 HD
ATOM     19  H   UNL     1       1.931   7.196   6.421  0.00  0.00    +0.144 HD
ENDBRANCH   9  17
BRANCH   1  20
ATOM     20  C   UNL     1       1.147   3.596   0.010  0.00  0.00    +0.121 C 
BRANCH  20  22
ATOM     21  C   UNL     1       2.107   1.335  -0.467  0.00  0.00    +0.056 A 
ATOM     22  C   UNL     1       1.058   2.092   0.022  0.00  0.00    -0.011 A 
ATOM     23  C   UNL     1      -0.073   1.471   0.520  0.00  0.00    +0.049 A 
ATOM     24  C   UNL     1      -0.159   0.090   0.532  0.00  0.00    +0.069 A 
ATOM     25  C   UNL     1       0.888  -0.673   0.044  0.00  0.00    +0.168 A 
ATOM     26  C   UNL     1       2.027  -0.048  -0.457  0.00  0.00    +0.167 A 
ATOM     27  O   UNL     1       2.905  -1.008  -0.872  0.00  0.00    -0.453 OA
ATOM     28  C   UNL     1       2.465  -2.228  -0.245  0.00  0.00    +0.466 C 
ATOM     29  O   UNL     1       1.052  -2.025  -0.056  0.00  0.00    -0.453 OA
ATOM     30 CL   UNL     1      -1.387   2.427   1.133  0.00  0.00    -0.083 Cl
ENDBRANCH  20  22
ENDBRANCH   1  20
TORSDOF 3
