REMARK  Name = ZINC44948726
REMARK  4 active torsions:
REMARK  status: ('A' for Active; 'I' for Inactive)
REMARK    1  A    between atoms: C_8  and  C_10
REMARK    2  A    between atoms: C_10  and  C_11
REMARK    3  A    between atoms: C_14  and  N_17
REMARK    4  A    between atoms: C_18  and  C_20
REMARK                            x       y       z     vdW  Elec       q    Type
REMARK                         _______ _______ _______ _____ _____    ______ ____
ROOT
ATOM      1  C   UNL     1      -4.246  -4.502  -0.299  0.00  0.00    -0.039 A 
ATOM      2  C   UNL     1      -4.045  -5.066  -1.546  0.00  0.00    +0.006 A 
ATOM      3  C   UNL     1      -3.716  -6.403  -1.656  0.00  0.00    +0.023 A 
ATOM      4  C   UNL     1      -3.587  -7.181  -0.512  0.00  0.00    +0.034 A 
ATOM      5  C   UNL     1      -3.789  -6.611   0.738  0.00  0.00    +0.023 A 
ATOM      6  C   UNL     1      -4.112  -5.272   0.841  0.00  0.00    +0.006 A 
ENDROOT
BRANCH   4   7
ATOM      7  N   UNL     1      -3.255  -8.535  -0.620  0.00  0.00    -0.279 N 
ATOM      8  C   UNL     1      -3.776  -9.428   0.244  0.00  0.00    +0.284 C 
ATOM      9  O   UNL     1      -4.471  -9.046   1.168  0.00  0.00    -0.266 OA
ATOM     10  H   UNL     1      -2.648  -8.831  -1.317  0.00  0.00    +0.155 HD
BRANCH   8  11
ATOM     11  C   UNL     1      -3.508 -10.858   0.071  0.00  0.00    +0.191 A 
ATOM     12  C   UNL     1      -3.976 -11.864   0.868  0.00  0.00    +0.056 A 
ATOM     13  C   UNL     1      -3.476 -13.063   0.339  0.00  0.00    +0.058 A 
ATOM     14  C   UNL     1      -2.732 -12.741  -0.745  0.00  0.00    +0.171 A 
ATOM     15  O   UNL     1      -2.759 -11.412  -0.905  0.00  0.00    -0.444 OA
ATOM     16 BR   UNL     1      -1.813 -13.966  -1.854  0.00  0.00    -0.008 Br
ENDBRANCH   8  11
ENDBRANCH   4   7
BRANCH   1  17
ATOM     17  C   UNL     1      -4.604  -3.043  -0.183  0.00  0.00    +0.131 C 
BRANCH  17  25
ATOM     18  C   UNL     1       0.038   1.358   0.007  0.00  0.00    +0.021 A 
ATOM     19  C   UNL     1      -1.178   2.028  -0.013  0.00  0.00    +0.056 A 
ATOM     20  C   UNL     1      -2.345   1.279  -0.004  0.00  0.00    +0.217 A 
ATOM     21  C   UNL     1      -2.256  -0.113   0.024  0.00  0.00    +0.150 A 
ATOM     22  N   UNL     1      -1.076  -0.710   0.042  0.00  0.00    -0.346 N 
ATOM     23  C   UNL     1       0.050  -0.022   0.034  0.00  0.00    +0.084 A 
ATOM     24  N   UNL     1      -3.421  -0.882   0.033  0.00  0.00    -0.269 N 
ATOM     25  C   UNL     1      -3.345  -2.222  -0.080  0.00  0.00    +0.223 C 
ATOM     26  O   UNL     1      -2.262  -2.769  -0.099  0.00  0.00    -0.275 OA
ATOM     27  O   UNL     1      -3.559   1.892  -0.021  0.00  0.00    -0.284 OA
ATOM     28  H   UNL     1      -4.285  -0.451   0.121  0.00  0.00    +0.156 HD
ATOM     29  H   UNL     1      -1.037  -1.679   0.061  0.00  0.00    +0.167 HD
ENDBRANCH  17  25
ENDBRANCH   1  17
TORSDOF 4
