REMARK  Name = ZINC08425740
REMARK  2 active torsions:
REMARK  status: ('A' for Active; 'I' for Inactive)
REMARK    1  A    between atoms: C_16  and  C_19
REMARK    2  A    between atoms: N_28  and  C_31
REMARK                            x       y       z     vdW  Elec       q    Type
REMARK                         _______ _______ _______ _____ _____    ______ ____
ROOT
ATOM      1  C   UNL     1       0.115   1.442   0.204  0.00  0.00    +0.001 A 
ATOM      2  C   UNL     1       1.314   2.132   0.189  0.00  0.00    +0.001 A 
ATOM      3  C   UNL     1       2.514   1.450   0.135  0.00  0.00    +0.012 A 
ATOM      4  C   UNL     1       2.524   0.054   0.095  0.00  0.00    +0.031 A 
ATOM      5  C   UNL     1       1.303  -0.649   0.108  0.00  0.00    +0.031 A 
ATOM      6  C   UNL     1       0.102   0.061   0.164  0.00  0.00    +0.012 A 
ATOM      7  C   UNL     1       1.562  -2.101   0.057  0.00  0.00    +0.204 C 
ATOM      8  O   UNL     1       0.730  -2.983   0.050  0.00  0.00    -0.288 OA
ATOM      9  C   UNL     1       3.054  -2.280   0.013  0.00  0.00    +0.206 C 
ATOM     10  C   UNL     1       3.649  -0.900   0.038  0.00  0.00    +0.204 C 
ATOM     11  O   UNL     1       4.829  -0.622   0.014  0.00  0.00    -0.288 OA
ATOM     12  C   UNL     1       3.483  -3.043  -1.249  0.00  0.00    +0.138 C 
ATOM     13  C   UNL     1       4.678  -3.914  -0.763  0.00  0.00    +0.125 C 
ATOM     14  C   UNL     1       4.807  -3.562   0.735  0.00  0.00    +0.163 C 
ATOM     15  O   UNL     1       3.516  -3.063   1.124  0.00  0.00    -0.348 OA
ATOM     16  C   UNL     1       5.854  -3.347  -1.525  0.00  0.00    +0.233 C 
ATOM     17  O   UNL     1       6.997  -3.743  -1.444  0.00  0.00    -0.274 OA
ATOM     18  N   UNL     1       5.438  -2.341  -2.303  0.00  0.00    -0.210 N 
ATOM     19  C   UNL     1       4.110  -2.082  -2.233  0.00  0.00    +0.234 C 
ATOM     20  O   UNL     1       3.515  -1.225  -2.851  0.00  0.00    -0.274 OA
ENDROOT
BRANCH  18  21
ATOM     21  C   UNL     1       6.305  -1.614  -3.130  0.00  0.00    +0.045 A 
ATOM     22  C   UNL     1       6.186  -1.703  -4.511  0.00  0.00    +0.025 A 
ATOM     23  C   UNL     1       7.041  -0.986  -5.325  0.00  0.00    +0.023 A 
ATOM     24  C   UNL     1       8.016  -0.178  -4.766  0.00  0.00    +0.059 A 
ATOM     25  C   UNL     1       8.137  -0.088  -3.389  0.00  0.00    +0.061 A 
ATOM     26  C   UNL     1       7.280  -0.800  -2.571  0.00  0.00    +0.045 A 
ATOM     27 CL   UNL     1       9.362   0.925  -2.691  0.00  0.00    -0.082 Cl
ATOM     28 CL   UNL     1       9.089   0.721  -5.792  0.00  0.00    -0.082 Cl
ENDBRANCH  18  21
BRANCH  14  29
ATOM     29  C   UNL     1       5.178  -4.787   1.530  0.00  0.00    -0.018 A 
ATOM     30  C   UNL     1       4.207  -5.709   1.872  0.00  0.00    +0.009 A 
ATOM     31  C   UNL     1       4.546  -6.833   2.601  0.00  0.00    +0.039 A 
ATOM     32  C   UNL     1       5.860  -7.036   2.989  0.00  0.00    +0.123 A 
ATOM     33  C   UNL     1       6.832  -6.111   2.647  0.00  0.00    +0.039 A 
ATOM     34  C   UNL     1       6.491  -4.991   1.913  0.00  0.00    +0.009 A 
ATOM     35  F   UNL     1       6.192  -8.134   3.703  0.00  0.00    -0.205 F 
ENDBRANCH  14  29
TORSDOF 2
