REMARK  Name = ZINC41990780
REMARK  8 active torsions:
REMARK  status: ('A' for Active; 'I' for Inactive)
REMARK    1  A    between atoms: C_1  and  C_2
REMARK    2  A    between atoms: C_4  and  C_21
REMARK    3  A    between atoms: C_5  and  C_9
REMARK    4  A    between atoms: C_6  and  C_8
REMARK    5  A    between atoms: C_9  and  C_10
REMARK    6  A    between atoms: C_9  and  C_11
REMARK    7  A    between atoms: C_9  and  S_14
REMARK    8  A    between atoms: S_14  and  C_15
REMARK                            x       y       z     vdW  Elec       q    Type
REMARK                         _______ _______ _______ _____ _____    ______ ____
ROOT
ATOM      1  C   UNL     1       1.379  -3.909   0.135  0.00  0.00    +0.146 C 
ATOM      2  C   UNL     1       2.195  -3.629   1.399  0.00  0.00    +0.040 C 
ENDROOT
BRANCH   1   7
ATOM      3  C   UNL     1       1.293   0.817  -3.189  0.00  0.00    +0.044 C 
ATOM      4  C   UNL     1       1.316  -0.416  -2.322  0.00  0.00    -0.050 A 
ATOM      5  C   UNL     1       1.348  -1.669  -2.904  0.00  0.00    +0.007 A 
ATOM      6  C   UNL     1       1.369  -2.800  -2.108  0.00  0.00    -0.045 A 
ATOM      7  C   UNL     1       1.358  -2.677  -0.732  0.00  0.00    -0.015 A 
ATOM      8  C   UNL     1       1.327  -1.423  -0.150  0.00  0.00    -0.045 A 
ATOM      9  C   UNL     1       1.310  -0.292  -0.946  0.00  0.00    +0.007 A 
ATOM     10  C   UNL     1       1.314  -1.289   1.351  0.00  0.00    +0.044 C 
ATOM     11  C   UNL     1       1.403  -4.167  -2.742  0.00  0.00    +0.044 C 
ENDBRANCH   1   7
BRANCH   1  12
ATOM     12  C   UNL     1      -0.030  -4.278   0.519  0.00  0.00    +0.376 C 
ATOM     13  O   UNL     1      -0.527  -5.309   0.098  0.00  0.00    -0.244 OA
ATOM     14  O   UNL     1      -0.675  -3.546   1.250  0.00  0.00    -0.244 OA
ENDBRANCH   1  12
BRANCH   1  15
ATOM     15  S   UNL     1       2.135  -5.280  -0.781  0.00  0.00    -0.074 S 
BRANCH  15  16
ATOM     16  C   UNL     1       2.087  -6.628   0.352  0.00  0.00    +0.161 A 
ATOM     17  N   UNL     1       1.614  -6.670   1.583  0.00  0.00    -0.133 NA
ATOM     18  N   UNL     1       1.676  -7.841   2.301  0.00  0.00    -0.125 NA
ATOM     19  C   UNL     1       2.209  -8.917   1.757  0.00  0.00    +0.180 A 
ATOM     20  S   UNL     1       2.659  -8.307   0.139  0.00  0.00    -0.025 S 
ATOM     21  N   UNL     1       2.372 -10.188   2.295  0.00  0.00    -0.336 N 
ATOM     22  H   UNL     1       2.071 -10.375   3.198  0.00  0.00    +0.144 HD
ATOM     23  H   UNL     1       2.788 -10.889   1.768  0.00  0.00    +0.144 HD
ENDBRANCH  15  16
ENDBRANCH   1  15
TORSDOF 4
