REMARK  Name = ZINC67012815
REMARK  5 active torsions:
REMARK  status: ('A' for Active; 'I' for Inactive)
REMARK    1  A    between atoms: C_1  and  N_2
REMARK    2  A    between atoms: N_2  and  C_3
REMARK    3  A    between atoms: C_3  and  C_4
REMARK    4  A    between atoms: N_6  and  C_7
REMARK    5  A    between atoms: N_17  and  C_18
REMARK                            x       y       z     vdW  Elec       q    Type
REMARK                         _______ _______ _______ _____ _____    ______ ____
ROOT
ATOM      1  C   UNL     1       0.015   1.532   0.046  0.00  0.00    +0.134 C 
ATOM      2  N   UNL     1       0.220   0.082   0.041  0.00  0.00    -0.280 N 
ATOM      3  C   UNL     1       0.253  -0.589  -1.128  0.00  0.00    +0.307 C 
ATOM      4  O   UNL     1       0.423  -1.793  -1.133  0.00  0.00    -0.252 OA
ATOM      5  N   UNL     1       0.097   0.074  -2.291  0.00  0.00    -0.269 N 
ATOM      6  H   UNL     1       0.037   1.042  -2.292  0.00  0.00    +0.156 HD
ENDROOT
BRANCH   5   7
ATOM      7  C   UNL     1       0.023  -0.635  -3.497  0.00  0.00    +0.036 A 
ATOM      8  C   UNL     1      -0.575  -1.893  -3.527  0.00  0.00    +0.027 A 
ATOM      9  C   UNL     1      -0.656  -2.603  -4.705  0.00  0.00    +0.049 A 
ATOM     10  C   UNL     1      -0.139  -2.066  -5.878  0.00  0.00    +0.139 A 
ATOM     11  C   UNL     1       0.465  -0.797  -5.853  0.00  0.00    +0.019 A 
ATOM     12  C   UNL     1       0.538  -0.081  -4.654  0.00  0.00    +0.035 A 
ATOM     13  C   UNL     1       1.007  -0.242  -7.097  0.00  0.00    +0.018 A 
ATOM     14  C   UNL     1       0.902  -0.983  -8.229  0.00  0.00    +0.092 A 
ATOM     15  C   UNL     1       0.283  -2.251  -8.182  0.00  0.00    +0.337 A 
ATOM     16  O   UNL     1       0.195  -2.907  -9.204  0.00  0.00    -0.245 OA
ATOM     17  O   UNL     1      -0.211  -2.753  -7.040  0.00  0.00    -0.422 OA
ENDBRANCH   5   7
BRANCH   2  18
ATOM     18  C   UNL     1       0.389  -0.639   1.305  0.00  0.00    +0.205 C 
BRANCH  18  19
ATOM     19  C   UNL     1      -0.958  -1.085   1.812  0.00  0.00    +0.235 C 
ATOM     20  O   UNL     1      -1.961  -0.826   1.181  0.00  0.00    -0.274 OA
ATOM     21  N   UNL     1      -1.049  -1.772   2.969  0.00  0.00    -0.284 N 
ATOM     22  H   UNL     1      -0.244  -2.038   3.439  0.00  0.00    +0.155 HD
BRANCH  21  23
ATOM     23  C   UNL     1      -2.305  -2.101   3.490  0.00  0.00    +0.039 A 
ATOM     24  C   UNL     1      -2.510  -2.099   4.863  0.00  0.00    +0.061 A 
ATOM     25  C   UNL     1      -3.753  -2.425   5.377  0.00  0.00    +0.128 A 
ATOM     26  C   UNL     1      -4.791  -2.754   4.522  0.00  0.00    +0.076 A 
ATOM     27  C   UNL     1      -4.589  -2.757   3.152  0.00  0.00    +0.128 A 
ATOM     28  C   UNL     1      -3.350  -2.425   2.634  0.00  0.00    +0.061 A 
ATOM     29  F   UNL     1      -5.604  -3.078   2.320  0.00  0.00    -0.205 F 
ATOM     30  F   UNL     1      -3.953  -2.424   6.713  0.00  0.00    -0.205 F 
ENDBRANCH  21  23
ENDBRANCH  18  19
ENDBRANCH   2  18
TORSDOF 4
