REMARK  Name = ZINC64651478
REMARK  3 active torsions:
REMARK  status: ('A' for Active; 'I' for Inactive)
REMARK    1  A    between atoms: C_5  and  C_7
REMARK    2  A    between atoms: C_22  and  C_24
REMARK    3  A    between atoms: C_29  and  C_30
REMARK                            x       y       z     vdW  Elec       q    Type
REMARK                         _______ _______ _______ _____ _____    ______ ____
ROOT
ATOM      1  C   UNL     1       1.298  -1.317   0.600  0.00  0.00    +0.136 C 
ATOM      2  C   UNL     1       1.752  -1.883  -0.750  0.00  0.00    +0.131 C 
ATOM      3  C   UNL     1       1.807  -3.397  -0.590  0.00  0.00    -0.035 C 
ATOM      4  C   UNL     1       3.040  -3.764  -0.919  0.00  0.00    -0.001 A 
ATOM      5  C   UNL     1       3.671  -5.090  -1.025  0.00  0.00    +0.010 A 
ATOM      6  C   UNL     1       4.983  -5.101  -1.383  0.00  0.00    +0.001 A 
ATOM      7  C   UNL     1       5.720  -3.942  -1.642  0.00  0.00    +0.002 A 
ATOM      8  C   UNL     1       5.219  -2.683  -1.573  0.00  0.00    +0.026 A 
ATOM      9  C   UNL     1       3.848  -2.541  -1.210  0.00  0.00    +0.043 A 
ATOM     10  N   UNL     1       3.108  -1.452  -1.093  0.00  0.00    -0.375 N 
ATOM     11  C   UNL     1       0.639  -4.200  -0.071  0.00  0.00    +0.052 C 
ATOM     12  C   UNL     1       0.182  -3.523   1.234  0.00  0.00    +0.113 C 
ATOM     13  N   UNL     1       0.112  -2.072   1.031  0.00  0.00    -0.288 N 
ATOM     14  C   UNL     1      -1.052  -1.424   1.242  0.00  0.00    +0.248 C 
ATOM     15  O   UNL     1      -1.147  -0.242   0.971  0.00  0.00    -0.270 OA
ATOM     16  H   UNL     1       3.400  -0.534  -1.207  0.00  0.00    +0.160 HD
ENDROOT
BRANCH   1  21
ATOM     17  C   UNL     1       0.361   2.000  -0.941  0.00  0.00    +0.000 A 
ATOM     18  C   UNL     1       0.307   2.818   0.173  0.00  0.00    +0.003 A 
ATOM     19  C   UNL     1       0.573   2.299   1.425  0.00  0.00    +0.039 A 
ATOM     20  C   UNL     1       0.894   0.959   1.565  0.00  0.00    +0.128 A 
ATOM     21  C   UNL     1       0.948   0.141   0.449  0.00  0.00    +0.010 A 
ATOM     22  C   UNL     1       0.682   0.663  -0.803  0.00  0.00    +0.008 A 
ATOM     23  F   UNL     1       1.155   0.450   2.789  0.00  0.00    -0.205 F 
ENDBRANCH   1  21
BRANCH  14  24
ATOM     24  C   UNL     1      -2.210  -2.149   1.800  0.00  0.00    +0.048 A 
ATOM     25  C   UNL     1      -2.100  -2.812   3.022  0.00  0.00    +0.014 A 
ATOM     26  C   UNL     1      -3.186  -3.487   3.540  0.00  0.00    +0.001 A 
ATOM     27  C   UNL     1      -4.389  -3.514   2.854  0.00  0.00    +0.001 A 
ATOM     28  C   UNL     1      -4.517  -2.865   1.643  0.00  0.00    +0.012 A 
ATOM     29  C   UNL     1      -3.434  -2.171   1.105  0.00  0.00    +0.029 A 
BRANCH  29  30
ATOM     30  C   UNL     1      -3.568  -1.470  -0.188  0.00  0.00    +0.139 A 
ATOM     31  N   UNL     1      -2.593  -0.893  -0.856  0.00  0.00    -0.236 NA
ATOM     32  C   UNL     1      -3.083  -0.361  -1.979  0.00  0.00    +0.130 A 
ATOM     33  C   UNL     1      -4.410  -0.608  -2.024  0.00  0.00    +0.104 A 
ATOM     34  N   UNL     1      -4.724  -1.315  -0.897  0.00  0.00    -0.344 N 
ATOM     35  H   UNL     1      -5.602  -1.642  -0.647  0.00  0.00    +0.167 HD
ENDBRANCH  29  30
ENDBRANCH  14  24
TORSDOF 3
