REMARK  Name = ZINC16952806
REMARK  9 active torsions:
REMARK  status: ('A' for Active; 'I' for Inactive)
REMARK    1  A    between atoms: C_1  and  C_2
REMARK    2  A    between atoms: C_4  and  N_12
REMARK    3  A    between atoms: C_7  and  S_8
REMARK    4  A    between atoms: C_13  and  C_15
REMARK    5  A    between atoms: C_15  and  C_16
REMARK    6  A    between atoms: C_16  and  C_17
REMARK    7  A    between atoms: C_20  and  N_23
REMARK    8  A    between atoms: C_28  and  C_29
REMARK    9  A    between atoms: C_28  and  C_30
REMARK                            x       y       z     vdW  Elec       q    Type
REMARK                         _______ _______ _______ _____ _____    ______ ____
ROOT
ATOM      1  C   UNL     1      -2.200  -2.776  -1.897  0.00  0.00    -0.047 A 
ATOM      2  C   UNL     1      -1.025  -2.066  -1.735  0.00  0.00    +0.005 A 
ATOM      3  C   UNL     1      -1.043  -0.828  -1.122  0.00  0.00    +0.024 A 
ATOM      4  C   UNL     1      -2.244  -0.297  -0.669  0.00  0.00    +0.038 A 
ATOM      5  C   UNL     1      -3.422  -1.015  -0.829  0.00  0.00    +0.024 A 
ATOM      6  C   UNL     1      -3.398  -2.249  -1.448  0.00  0.00    +0.005 A 
ENDROOT
BRANCH   4   7
ATOM      7  N   UNL     1      -2.265   0.956  -0.047  0.00  0.00    -0.250 N 
ATOM      8  C   UNL     1      -1.680   1.152   1.182  0.00  0.00    +0.189 C 
ATOM      9  N   UNL     1      -1.205   2.350   1.471  0.00  0.00    -0.187 NA
ATOM     10  C   UNL     1      -1.302   3.362   0.592  0.00  0.00    +0.191 C 
ATOM     11  N   UNL     1      -2.080   3.296  -0.455  0.00  0.00    -0.337 N 
ATOM     12  C   UNL     1      -2.916   2.112  -0.685  0.00  0.00    +0.109 C 
ATOM     13  C   UNL     1      -3.053   1.861  -2.188  0.00  0.00    +0.056 C 
ATOM     14  C   UNL     1      -4.299   2.329  -0.070  0.00  0.00    +0.056 C 
ATOM     15  N   UNL     1      -0.563   4.508   0.806  0.00  0.00    -0.329 N 
ATOM     16  N   UNL     1      -1.597   0.131   2.087  0.00  0.00    -0.331 N 
ATOM     17  H   UNL     1      -0.630   5.346   0.096  0.00  0.00    +0.145 HD
ATOM     18  H   UNL     1       0.094   4.583   1.685  0.00  0.00    +0.145 HD
ATOM     19  H   UNL     1      -1.126   0.301   3.067  0.00  0.00    +0.145 HD
ATOM     20  H   UNL     1      -2.001  -0.861   1.836  0.00  0.00    +0.145 HD
ATOM     21  H   UNL     1      -2.110   4.130  -1.171  0.00  0.00    +0.164 HD
ENDBRANCH   4   7
BRANCH   1  22
ATOM     22  C   UNL     1      -2.177  -4.126  -2.566  0.00  0.00    +0.044 C 
BRANCH  22  23
ATOM     23  C   UNL     1      -1.965  -5.214  -1.511  0.00  0.00    +0.101 C 
BRANCH  23  25
ATOM     24  N   UNL     1      -1.766  -7.678  -1.443  0.00  0.00    -0.285 N 
ATOM     25  C   UNL     1      -1.941  -6.564  -2.180  0.00  0.00    +0.218 C 
ATOM     26  O   UNL     1      -2.081  -6.648  -3.382  0.00  0.00    -0.275 OA
ATOM     27  H   UNL     1      -1.726  -7.611  -0.346  0.00  0.00    +0.155 HD
BRANCH  24  31
ATOM     28  C   UNL     1       0.262 -12.155  -1.591  0.00  0.00    +0.046 C 
ATOM     29  C   UNL     1      -0.657 -11.109  -2.167  0.00  0.00    -0.021 A 
ATOM     30  C   UNL     1      -0.786  -9.884  -1.542  0.00  0.00    +0.028 A 
ATOM     31  C   UNL     1      -1.634  -8.921  -2.073  0.00  0.00    +0.034 A 
ATOM     32  C   UNL     1      -2.355  -9.195  -3.228  0.00  0.00    +0.025 A 
ATOM     33  C   UNL     1      -2.217 -10.420  -3.851  0.00  0.00    +0.031 A 
ATOM     34  C   UNL     1      -1.372 -11.377  -3.320  0.00  0.00    +0.123 A 
BRANCH  34  35
ATOM     35  S   UNL     1      -1.205 -12.941  -4.113  0.00  0.00    +0.140 S 
ATOM     36  O   UNL     1      -0.241 -12.773  -5.144  0.00  0.00    -0.140 OA
ATOM     37  O   UNL     1      -1.056 -13.907  -3.081  0.00  0.00    -0.140 OA
ATOM     38  O   UNL     1      -2.530 -13.240  -4.801  0.00  0.00    -0.043 OA
ENDBRANCH  34  35
ENDBRANCH  24  31
ENDBRANCH  23  25
ENDBRANCH  22  23
ENDBRANCH   1  22
TORSDOF 6
