REMARK  Name = ZINC58994163
REMARK  8 active torsions:
REMARK  status: ('A' for Active; 'I' for Inactive)
REMARK    1  A    between atoms: C_6  and  N_7
REMARK    2  A    between atoms: C_8  and  C_10
REMARK    3  A    between atoms: C_10  and  S_11
REMARK    4  A    between atoms: S_11  and  C_12
REMARK    5  A    between atoms: N_17  and  N_18
REMARK    6  A    between atoms: C_19  and  C_20
REMARK    7  A    between atoms: C_23  and  O_27
REMARK    8  A    between atoms: C_25  and  O_26
REMARK                            x       y       z     vdW  Elec       q    Type
REMARK                         _______ _______ _______ _____ _____    ______ ____
ROOT
ATOM      1  C   UNL     1      -6.463  -0.736   0.523  0.00  0.00    +0.211 A 
ATOM      2  N   UNL     1      -7.729  -0.323   0.643  0.00  0.00    -0.186 NA
ATOM      3  C   UNL     1      -8.530  -1.365   0.718  0.00  0.00    +0.232 A 
ATOM      4  N   UNL     1      -7.772  -2.479   0.646  0.00  0.00    -0.245 N 
ATOM      5  N   UNL     1      -6.442  -2.048   0.515  0.00  0.00    -0.144 NA
ATOM      6  N   UNL     1      -9.906  -1.325   0.849  0.00  0.00    -0.205 N 
ATOM      7  H   UNL     1     -10.413  -2.150   0.897  0.00  0.00    +0.177 HD
ATOM      8  H   UNL     1      -8.084  -3.397   0.676  0.00  0.00    +0.192 HD
ENDROOT
BRANCH   6   9
ATOM      9  N   UNL     1     -10.568  -0.092   0.911  0.00  0.00    -0.187 NA
ATOM     10  C   UNL     1     -11.860  -0.054   1.034  0.00  0.00    +0.142 C 
BRANCH  10  11
ATOM     11  C   UNL     1     -12.557   1.243   1.100  0.00  0.00    +0.036 A 
ATOM     12  C   UNL     1     -13.946   1.286   1.237  0.00  0.00    +0.016 A 
ATOM     13  C   UNL     1     -14.594   2.501   1.299  0.00  0.00    +0.046 A 
ATOM     14  C   UNL     1     -13.869   3.684   1.224  0.00  0.00    +0.120 A 
ATOM     15  C   UNL     1     -12.489   3.652   1.087  0.00  0.00    +0.091 A 
ATOM     16  C   UNL     1     -11.827   2.438   1.030  0.00  0.00    +0.129 A 
BRANCH  16  17
ATOM     17  O   UNL     1     -10.475   2.404   0.902  0.00  0.00    -0.506 OA
ATOM     18  H   UNL     1     -10.167   2.394  -0.015  0.00  0.00    +0.292 HD
ENDBRANCH  16  17
BRANCH  14  19
ATOM     19  O   UNL     1     -14.514   4.878   1.285  0.00  0.00    -0.507 OA
ATOM     20  H   UNL     1     -14.615   5.226   2.182  0.00  0.00    +0.292 HD
ENDBRANCH  14  19
ENDBRANCH  10  11
ENDBRANCH   6   9
BRANCH   1  21
ATOM     21  S   UNL     1      -5.052   0.311   0.390  0.00  0.00    -0.075 S 
BRANCH  21  22
ATOM     22  C   UNL     1      -3.660  -0.844   0.249  0.00  0.00    +0.173 C 
BRANCH  22  24
ATOM     23  N   UNL     1      -1.202  -0.721   0.010  0.00  0.00    -0.285 N 
ATOM     24  C   UNL     1      -2.374  -0.068   0.127  0.00  0.00    +0.227 C 
ATOM     25  O   UNL     1      -2.395   1.145   0.134  0.00  0.00    -0.275 OA
ATOM     26  H   UNL     1      -1.191  -1.688  -0.072  0.00  0.00    +0.155 HD
BRANCH  23  32
ATOM     27  C   UNL     1       0.122   1.154   0.763  0.00  0.00    +0.027 A 
ATOM     28  C   UNL     1       1.309   1.862   0.762  0.00  0.00    +0.051 A 
ATOM     29  C   UNL     1       2.383   1.417   0.008  0.00  0.00    +0.166 A 
ATOM     30  C   UNL     1       2.266   0.255  -0.751  0.00  0.00    +0.168 A 
ATOM     31  C   UNL     1       1.076  -0.454  -0.750  0.00  0.00    +0.072 A 
ATOM     32  C   UNL     1       0.002  -0.004   0.008  0.00  0.00    +0.037 A 
ATOM     33  O   UNL     1       3.448   0.034  -1.396  0.00  0.00    -0.453 OA
ATOM     34  C   UNL     1       4.153   1.288  -1.348  0.00  0.00    +0.466 C 
ATOM     35  O   UNL     1       3.640   1.924  -0.162  0.00  0.00    -0.453 OA
ENDBRANCH  23  32
ENDBRANCH  22  24
ENDBRANCH  21  22
ENDBRANCH   1  21
TORSDOF 8
