REMARK  Name = ZINC41517576
REMARK  6 active torsions:
REMARK  status: ('A' for Active; 'I' for Inactive)
REMARK    1  A    between atoms: C_1  and  C_2
REMARK    2  A    between atoms: C_12  and  C_15
REMARK    3  A    between atoms: C_15  and  N_16
REMARK    4  A    between atoms: C_17  and  C_19
REMARK    5  A    between atoms: N_21  and  C_22
REMARK    6  A    between atoms: C_25  and  C_28
REMARK                            x       y       z     vdW  Elec       q    Type
REMARK                         _______ _______ _______ _____ _____    ______ ____
ROOT
ATOM      1  N   UNL     1       0.482  -5.572  -6.247  0.00  0.00    -0.303 N 
ATOM      2  C   UNL     1       0.354  -6.381  -7.318  0.00  0.00    +0.300 C 
ATOM      3  O   UNL     1      -0.665  -7.020  -7.477  0.00  0.00    -0.265 OA
ATOM      4  H   UNL     1       1.297  -5.061  -6.119  0.00  0.00    +0.149 HD
ENDROOT
BRANCH   2   5
ATOM      5  C   UNL     1       1.466  -6.490  -8.308  0.00  0.00    +0.303 C 
ATOM      6  O   UNL     1       2.486  -5.851  -8.149  0.00  0.00    -0.265 OA
ATOM      7  N   UNL     1       1.339  -7.298  -9.379  0.00  0.00    -0.278 N 
ATOM      8  H   UNL     1       0.496  -7.748  -9.549  0.00  0.00    +0.155 HD
BRANCH   7   9
ATOM      9  C   UNL     1       2.416  -7.487 -10.241  0.00  0.00    +0.034 A 
ATOM     10  C   UNL     1       3.713  -7.514  -9.737  0.00  0.00    +0.024 A 
ATOM     11  C   UNL     1       4.779  -7.701 -10.586  0.00  0.00    +0.015 A 
ATOM     12  C   UNL     1       4.559  -7.865 -11.957  0.00  0.00    +0.037 A 
ATOM     13  C   UNL     1       3.256  -7.838 -12.460  0.00  0.00    +0.015 A 
ATOM     14  C   UNL     1       2.193  -7.656 -11.605  0.00  0.00    +0.024 A 
BRANCH  12  15
ATOM     15  C   UNL     1       5.701  -8.065 -12.870  0.00  0.00    +0.242 C 
ATOM     16  O   UNL     1       6.835  -8.088 -12.431  0.00  0.00    -0.270 OA
ATOM     17  N   UNL     1       5.487  -8.223 -14.192  0.00  0.00    -0.325 N 
ATOM     18  H   UNL     1       4.583  -8.205 -14.542  0.00  0.00    +0.145 HD
ATOM     19  H   UNL     1       6.237  -8.355 -14.792  0.00  0.00    +0.145 HD
ENDBRANCH  12  15
ENDBRANCH   7   9
ENDBRANCH   2   5
BRANCH   1  20
ATOM     20  C   UNL     1      -0.609  -5.465  -5.275  0.00  0.00    +0.141 C 
BRANCH  20  31
ATOM     21  C   UNL     1       3.325  -2.175   1.777  0.00  0.00    +0.039 C 
ATOM     22  C   UNL     1       2.793  -1.768   0.401  0.00  0.00    +0.132 C 
ATOM     23  C   UNL     1       1.498  -2.534   0.107  0.00  0.00    +0.137 C 
ATOM     24  N   UNL     1       0.908  -1.992  -1.128  0.00  0.00    -0.312 N 
ATOM     25  C   UNL     1       0.739  -0.534  -1.231  0.00  0.00    +0.134 C 
ATOM     26  C   UNL     1       2.071   0.134  -0.871  0.00  0.00    +0.179 C 
ATOM     27  O   UNL     1       2.523  -0.364   0.390  0.00  0.00    -0.374 OA
ATOM     28  C   UNL     1       0.524  -2.832  -2.166  0.00  0.00    +0.099 A 
ATOM     29  C   UNL     1      -0.127  -2.304  -3.276  0.00  0.00    +0.042 A 
ATOM     30  C   UNL     1      -0.504  -3.151  -4.302  0.00  0.00    +0.010 A 
ATOM     31  C   UNL     1      -0.217  -4.505  -4.182  0.00  0.00    -0.014 A 
ATOM     32  C   UNL     1       0.432  -4.961  -3.053  0.00  0.00    +0.089 A 
ATOM     33  N   UNL     1       0.785  -4.128  -2.092  0.00  0.00    -0.349 N 
ATOM     34  H   UNL     1       1.243  -4.475  -1.310  0.00  0.00    +0.167 HD
ENDBRANCH  20  31
ENDBRANCH   1  20
TORSDOF 5
