REMARK  Name = ZINC40393100
REMARK  7 active torsions:
REMARK  status: ('A' for Active; 'I' for Inactive)
REMARK    1  A    between atoms: C_4  and  C_7
REMARK    2  A    between atoms: C_10  and  N_30
REMARK    3  A    between atoms: C_11  and  N_13
REMARK    4  A    between atoms: C_14  and  C_16
REMARK    5  A    between atoms: C_19  and  C_22
REMARK    6  A    between atoms: C_22  and  N_23
REMARK    7  A    between atoms: N_23  and  C_24
REMARK                            x       y       z     vdW  Elec       q    Type
REMARK                         _______ _______ _______ _____ _____    ______ ____
ROOT
ATOM      1  N   UNL     1       4.958  -4.153  -0.083  0.00  0.00    -0.280 N 
ATOM      2  C   UNL     1       3.810  -4.849   0.021  0.00  0.00    +0.248 C 
ATOM      3  O   UNL     1       2.744  -4.265   0.036  0.00  0.00    -0.270 OA
ATOM      4  H   UNL     1       5.804  -4.621  -0.161  0.00  0.00    +0.155 HD
ENDROOT
BRANCH   1   9
ATOM      5  C   UNL     1       3.854  -0.684  -0.666  0.00  0.00    -0.016 A 
ATOM      6  C   UNL     1       4.891   0.027  -0.064  0.00  0.00    +0.010 A 
ATOM      7  C   UNL     1       5.939  -0.647   0.527  0.00  0.00    +0.025 A 
ATOM      8  C   UNL     1       5.966  -2.035   0.523  0.00  0.00    +0.046 A 
ATOM      9  C   UNL     1       4.931  -2.752  -0.079  0.00  0.00    +0.055 A 
ATOM     10  C   UNL     1       3.875  -2.078  -0.667  0.00  0.00    +0.033 A 
BRANCH   5  14
ATOM     11  C   UNL     1       0.625   1.396  -2.489  0.00  0.00    +0.000 A 
ATOM     12  C   UNL     1       1.654   2.105  -1.896  0.00  0.00    +0.001 A 
ATOM     13  C   UNL     1       2.704   1.435  -1.303  0.00  0.00    +0.008 A 
ATOM     14  C   UNL     1       2.727   0.042  -1.302  0.00  0.00    -0.018 A 
ATOM     15  C   UNL     1       1.687  -0.667  -1.901  0.00  0.00    +0.008 A 
ATOM     16  C   UNL     1       0.642   0.013  -2.491  0.00  0.00    +0.001 A 
ENDBRANCH   5  14
BRANCH   8  17
ATOM     17  N   UNL     1       7.031  -2.714   1.122  0.00  0.00    -0.357 N 
ATOM     18  H   UNL     1       7.750  -2.216   1.540  0.00  0.00    +0.142 HD
ATOM     19  H   UNL     1       7.050  -3.684   1.120  0.00  0.00    +0.142 HD
ENDBRANCH   8  17
ENDBRANCH   1   9
BRANCH   2  20
ATOM     20  C   UNL     1       3.846  -6.324   0.117  0.00  0.00    +0.037 A 
ATOM     21  C   UNL     1       5.068  -6.998   0.106  0.00  0.00    +0.013 A 
ATOM     22  C   UNL     1       5.095  -8.374   0.196  0.00  0.00    +0.006 A 
ATOM     23  C   UNL     1       3.913  -9.087   0.297  0.00  0.00    -0.030 A 
ATOM     24  C   UNL     1       2.698  -8.425   0.308  0.00  0.00    +0.006 A 
ATOM     25  C   UNL     1       2.657  -7.049   0.225  0.00  0.00    +0.013 A 
BRANCH  23  26
ATOM     26  C   UNL     1       3.950 -10.590   0.395  0.00  0.00    +0.136 C 
BRANCH  26  27
ATOM     27  N   UNL     1       4.024 -10.986   1.803  0.00  0.00    -0.340 N 
ATOM     28  H   UNL     1       4.043 -10.309   2.497  0.00  0.00    +0.146 HD
BRANCH  27  29
ATOM     29  C   UNL     1       4.069 -12.334   2.146  0.00  0.00    +0.030 A 
ATOM     30  C   UNL     1       4.050 -13.323   1.162  0.00  0.00    +0.040 A 
ATOM     31  C   UNL     1       4.097 -14.648   1.543  0.00  0.00    +0.084 A 
ATOM     32  N   UNL     1       4.159 -14.983   2.818  0.00  0.00    -0.367 N 
ATOM     33  C   UNL     1       4.178 -14.077   3.778  0.00  0.00    +0.084 A 
ATOM     34  C   UNL     1       4.141 -12.731   3.481  0.00  0.00    +0.040 A 
ATOM     35  H   UNL     1       4.190 -15.923   3.057  0.00  0.00    +0.165 HD
ENDBRANCH  27  29
ENDBRANCH  26  27
ENDBRANCH  23  26
ENDBRANCH   2  20
TORSDOF 7
