REMARK  Name = ZINC57794181
REMARK  3 active torsions:
REMARK  status: ('A' for Active; 'I' for Inactive)
REMARK    1  A    between atoms: C_1  and  C_2
REMARK    2  A    between atoms: C_11  and  C_13
REMARK    3  A    between atoms: N_15  and  C_16
REMARK                            x       y       z     vdW  Elec       q    Type
REMARK                         _______ _______ _______ _____ _____    ______ ____
ROOT
ATOM      1  C   UNL     1      -0.018   1.500   0.061  0.00  0.00    +0.109 C 
ATOM      2  C   UNL     1       0.002  -0.007   0.057  0.00  0.00    +0.217 C 
ATOM      3  O   UNL     1       1.060  -0.599   0.053  0.00  0.00    -0.276 OA
ATOM      4  N   UNL     1      -1.157  -0.696   0.059  0.00  0.00    -0.271 N 
ATOM      5  C   UNL     1      -1.263  -2.157   0.061  0.00  0.00    +0.118 C 
ATOM      6  C   UNL     1      -2.772  -2.452   0.063  0.00  0.00    +0.056 C 
ATOM      7  C   UNL     1      -3.425  -1.088   0.061  0.00  0.00    -0.024 A 
ATOM      8  C   UNL     1      -2.427  -0.122   0.064  0.00  0.00    +0.040 A 
ATOM      9  C   UNL     1      -2.785   1.231   0.067  0.00  0.00    +0.024 A 
ATOM     10  C   UNL     1      -4.108   1.602   0.071  0.00  0.00    +0.015 A 
ATOM     11  C   UNL     1      -5.109   0.626   0.072  0.00  0.00    +0.037 A 
ATOM     12  C   UNL     1      -4.753  -0.725   0.061  0.00  0.00    +0.018 A 
ENDROOT
BRANCH  11  13
ATOM     13  C   UNL     1      -6.530   1.021   0.077  0.00  0.00    +0.248 C 
ATOM     14  O   UNL     1      -7.398   0.169   0.078  0.00  0.00    -0.270 OA
ATOM     15  N   UNL     1      -6.868   2.326   0.080  0.00  0.00    -0.280 N 
ATOM     16  H   UNL     1      -6.178   3.005   0.146  0.00  0.00    +0.155 HD
BRANCH  15  17
ATOM     17  C   UNL     1      -8.213   2.701  -0.010  0.00  0.00    +0.052 A 
ATOM     18  C   UNL     1      -9.195   1.921   0.587  0.00  0.00    +0.026 A 
ATOM     19  C   UNL     1     -10.521   2.293   0.496  0.00  0.00    +0.017 A 
ATOM     20  C   UNL     1     -10.874   3.442  -0.190  0.00  0.00    +0.019 A 
ATOM     21  C   UNL     1      -9.899   4.222  -0.787  0.00  0.00    +0.037 A 
ATOM     22  C   UNL     1      -8.569   3.858  -0.693  0.00  0.00    +0.063 A 
ATOM     23 CL   UNL     1      -7.345   4.840  -1.435  0.00  0.00    -0.082 Cl
ATOM     24 BR   UNL     1     -12.692   3.948  -0.313  0.00  0.00    -0.050 Br
ENDBRANCH  15  17
ENDBRANCH  11  13
TORSDOF 2
