REMARK  Name = ZINC12162218
REMARK  12 active torsions:
REMARK  status: ('A' for Active; 'I' for Inactive)
REMARK    1  A    between atoms: C_1  and  C_2
REMARK    2  A    between atoms: C_3  and  C_7
REMARK    3  A    between atoms: C_7  and  N_71
REMARK    4  A    between atoms: C_8  and  N_71
REMARK    5  A    between atoms: C_9  and  C_10
REMARK    6  A    between atoms: C_9  and  N_71
REMARK    7  A    between atoms: C_12  and  C_28
REMARK    8  A    between atoms: C_15  and  O_16
REMARK    9  A    between atoms: O_16  and  C_17
REMARK   10  A    between atoms: C_17  and  C_18
REMARK   11  A    between atoms: N_20  and  C_21
REMARK   12  A    between atoms: N_20  and  C_22
REMARK                            x       y       z     vdW  Elec       q    Type
REMARK                         _______ _______ _______ _____ _____    ______ ____
ROOT
ATOM      1  C   UNL     1       1.296   3.494   0.255  0.00  0.00    -0.022 A 
ATOM      2  C   UNL     1       1.399   4.378  -0.799  0.00  0.00    +0.013 A 
ATOM      3  C   UNL     1       1.348   5.751  -0.562  0.00  0.00    -0.017 A 
ATOM      4  C   UNL     1       1.203   6.226   0.740  0.00  0.00    +0.012 A 
ATOM      5  C   UNL     1       1.105   5.337   1.790  0.00  0.00    +0.046 A 
ATOM      6  C   UNL     1       1.152   3.970   1.551  0.00  0.00    +0.123 A 
ENDROOT
BRANCH   3   7
ATOM      7  C   UNL     1       1.452   6.704  -1.694  0.00  0.00    -0.014 A 
ATOM      8  C   UNL     1       1.597   6.229  -2.996  0.00  0.00    +0.012 A 
ATOM      9  C   UNL     1       1.694   7.117  -4.048  0.00  0.00    +0.050 A 
ATOM     10  C   UNL     1       1.648   8.483  -3.815  0.00  0.00    +0.166 A 
ATOM     11  C   UNL     1       1.503   8.963  -2.514  0.00  0.00    +0.167 A 
ATOM     12  C   UNL     1       1.400   8.077  -1.458  0.00  0.00    +0.058 A 
ATOM     13  O   UNL     1       1.485  10.328  -2.553  0.00  0.00    -0.453 OA
ATOM     14  C   UNL     1       2.030  10.683  -3.838  0.00  0.00    +0.466 C 
ATOM     15  O   UNL     1       1.720   9.547  -4.667  0.00  0.00    -0.453 OA
ENDBRANCH   3   7
BRANCH   1  16
ATOM     16  C   UNL     1       1.346   2.010   0.000  0.00  0.00    -0.039 C 
BRANCH  16  18
ATOM     17  C   UNL     1      -0.802   1.987  -1.117  0.00  0.00    -0.095 C 
ATOM     18  N   UNL     1      -0.030   1.473   0.034  0.00  0.00    +0.384 N 
ATOM     19  H   UNL     1      -0.486   1.778   0.903  0.00  0.00    -0.081 HD
BRANCH  18  20
ATOM     20  C   UNL     1       0.002  -0.004   0.002  0.00  0.00    -0.017 C 
BRANCH  20  23
ATOM     21  C   UNL     1      -2.148  -0.628  -2.215  0.00  0.00    +0.071 C 
ATOM     22  C   UNL     1      -2.349  -0.806  -0.732  0.00  0.00    +0.103 A 
ATOM     23  C   UNL     1      -1.388  -0.527   0.259  0.00  0.00    +0.091 A 
ATOM     24  N   UNL     1      -1.884  -0.796   1.430  0.00  0.00    -0.056 NA
ATOM     25  O   UNL     1      -3.211  -1.258   1.232  0.00  0.00    -0.242 OA
ATOM     26  N   UNL     1      -3.436  -1.241  -0.169  0.00  0.00    -0.054 NA
ENDBRANCH  20  23
ENDBRANCH  18  20
ENDBRANCH  16  18
ENDBRANCH   1  16
BRANCH   6  27
ATOM     27  O   UNL     1       1.056   3.097   2.588  0.00  0.00    -0.483 OA
BRANCH  27  28
ATOM     28  C   UNL     1       0.910   3.655   3.895  0.00  0.00    +0.324 C 
BRANCH  28  29
ATOM     29  C   UNL     1       0.821   2.544   4.909  0.00  0.00    +0.253 C 
ATOM     30  O   UNL     1       0.876   1.388   4.547  0.00  0.00    -0.272 OA
ATOM     31  N   UNL     1       0.678   2.835   6.217  0.00  0.00    -0.299 N 
ATOM     32  C   UNL     1       0.611   4.232   6.654  0.00  0.00    +0.132 C 
BRANCH  31  33
ATOM     33  C   UNL     1       0.591   1.755   7.202  0.00  0.00    +0.076 C 
ATOM     34  C   UNL     1      -0.745   1.846   7.943  0.00  0.00    +0.022 C 
ATOM     35  C   UNL     1      -0.836   0.718   8.972  0.00  0.00    +0.002 C 
ATOM     36  C   UNL     1       0.313   0.848   9.974  0.00  0.00    +0.000 C 
ATOM     37  C   UNL     1       1.649   0.756   9.234  0.00  0.00    +0.002 C 
ATOM     38  C   UNL     1       1.740   1.885   8.205  0.00  0.00    +0.022 C 
ENDBRANCH  31  33
ENDBRANCH  28  29
ENDBRANCH  27  28
ENDBRANCH   6  27
TORSDOF 9
