REMARK  Name = ZINC12311574
REMARK  9 active torsions:
REMARK  status: ('A' for Active; 'I' for Inactive)
REMARK    1  A    between atoms: C_3  and  N_14
REMARK    2  A    between atoms: C_4  and  N_11
REMARK    3  A    between atoms: C_6  and  S_7
REMARK    4  A    between atoms: S_7  and  N_10
REMARK    5  A    between atoms: N_14  and  N_15
REMARK    6  A    between atoms: C_16  and  C_17
REMARK    7  A    between atoms: C_20  and  O_25
REMARK    8  A    between atoms: C_21  and  O_24
REMARK    9  A    between atoms: C_22  and  O_23
REMARK                            x       y       z     vdW  Elec       q    Type
REMARK                         _______ _______ _______ _____ _____    ______ ____
ROOT
ATOM      1  N   UNL     1       3.594   2.054  -0.129  0.00  0.00    -0.236 N 
ATOM      2  H   UNL     1       4.430   1.566  -0.068  0.00  0.00    +0.174 HD
ENDROOT
BRANCH   1   5
ATOM      3  C   UNL     1       0.000   1.383  -0.205  0.00  0.00    +0.030 A 
ATOM      4  C   UNL     1       1.195   2.066  -0.268  0.00  0.00    +0.029 A 
ATOM      5  C   UNL     1       2.400   1.381  -0.068  0.00  0.00    +0.079 A 
ATOM      6  C   UNL     1       2.380   0.005   0.196  0.00  0.00    +0.150 A 
ATOM      7  C   UNL     1       1.178  -0.664   0.255  0.00  0.00    +0.063 A 
ATOM      8  C   UNL     1      -0.011   0.021   0.056  0.00  0.00    +0.107 A 
BRANCH   8   9
ATOM      9  S   UNL     1      -1.544  -0.843   0.135  0.00  0.00    +0.056 S 
ATOM     10  O   UNL     1      -1.319  -1.998   0.931  0.00  0.00    -0.153 OA
ATOM     11  O   UNL     1      -2.538   0.121   0.454  0.00  0.00    -0.153 OA
BRANCH   9  12
ATOM     12  N   UNL     1      -1.882  -1.382  -1.395  0.00  0.00    -0.204 NA
ATOM     13  H   UNL     1      -1.269  -1.192  -2.122  0.00  0.00    +0.144 HD
ATOM     14  H   UNL     1      -2.693  -1.886  -1.563  0.00  0.00    +0.144 HD
ENDBRANCH   9  12
ENDBRANCH   8   9
BRANCH   6  15
ATOM     15  N   UNL     1       3.649  -0.728   0.409  0.00  0.00    +0.058 N 
ATOM     16  O   UNL     1       3.788  -1.952  -0.056  0.00  0.00    -0.126 OA
ATOM     17  O   UNL     1       4.638  -0.156   1.064  0.00  0.00    -0.126 OA
ENDBRANCH   6  15
ENDBRANCH   1   5
BRANCH   1  18
ATOM     18  N   UNL     1       3.605   3.337  -0.268  0.00  0.00    -0.190 NA
ATOM     19  C   UNL     1       4.776   3.997  -0.329  0.00  0.00    +0.142 C 
BRANCH  19  20
ATOM     20  C   UNL     1       4.787   5.378  -0.479  0.00  0.00    +0.040 A 
ATOM     21  C   UNL     1       6.056   6.116  -0.553  0.00  0.00    +0.017 A 
ATOM     22  C   UNL     1       6.034   7.461  -0.699  0.00  0.00    +0.050 A 
ATOM     23  C   UNL     1       4.818   8.164  -0.782  0.00  0.00    +0.162 A 
ATOM     24  C   UNL     1       3.586   7.510  -0.717  0.00  0.00    +0.201 A 
ATOM     25  C   UNL     1       3.528   6.138  -0.574  0.00  0.00    +0.171 A 
BRANCH  25  26
ATOM     26  O   UNL     1       2.334   5.502  -0.516  0.00  0.00    -0.503 OA
ATOM     27  H   UNL     1       1.979   5.412   0.379  0.00  0.00    +0.292 HD
ENDBRANCH  25  26
BRANCH  24  28
ATOM     28  O   UNL     1       2.435   8.229  -0.801  0.00  0.00    -0.501 OA
ATOM     29  H   UNL     1       2.106   8.342  -1.704  0.00  0.00    +0.292 HD
ENDBRANCH  24  28
BRANCH  23  30
ATOM     30  O   UNL     1       4.843   9.507  -0.928  0.00  0.00    -0.503 OA
ATOM     31  H   UNL     1       4.855   9.802  -1.849  0.00  0.00    +0.292 HD
ENDBRANCH  23  30
ENDBRANCH  19  20
ENDBRANCH   1  18
TORSDOF 9
