REMARK  Name = ZINC14157935
REMARK  10 active torsions:
REMARK  status: ('A' for Active; 'I' for Inactive)
REMARK    1  A    between atoms: C_1  and  C_2
REMARK    2  A    between atoms: C_4  and  C_28
REMARK    3  A    between atoms: N_10  and  C_11
REMARK    4  A    between atoms: C_11  and  N_13
REMARK    5  A    between atoms: N_13  and  C_14
REMARK    6  A    between atoms: N_15  and  C_16
REMARK    7  A    between atoms: C_16  and  C_17
REMARK    8  A    between atoms: C_17  and  C_18
REMARK    9  A    between atoms: C_21  and  S_24
REMARK   10  A    between atoms: S_24  and  N_27
REMARK                            x       y       z     vdW  Elec       q    Type
REMARK                         _______ _______ _______ _____ _____    ______ ____
ROOT
ATOM      1  C   UNL     1      -3.876   2.511   0.373  0.00  0.00    +0.066 C 
ATOM      2  C   UNL     1      -2.757   3.519   0.346  0.00  0.00    +0.044 A 
ATOM      3  C   UNL     1      -3.031   4.875   0.441  0.00  0.00    +0.046 A 
ATOM      4  C   UNL     1      -1.972   5.768   0.412  0.00  0.00    +0.044 A 
ATOM      5  N   UNL     1      -0.739   5.304   0.295  0.00  0.00    -0.217 NA
ATOM      6  C   UNL     1      -0.511   4.002   0.206  0.00  0.00    +0.231 A 
ATOM      7  N   UNL     1      -1.501   3.122   0.225  0.00  0.00    -0.217 NA
ATOM      8  N   UNL     1       0.795   3.550   0.084  0.00  0.00    -0.297 N 
ATOM      9  C   UNL     1       1.049   2.208  -0.010  0.00  0.00    +0.195 C 
ATOM     10  N   UNL     1       0.050   1.343   0.017  0.00  0.00    -0.160 NA
ATOM     11  N   UNL     1       2.334   1.763  -0.130  0.00  0.00    -0.357 N 
ATOM     12  C   UNL     1      -2.222   7.251   0.514  0.00  0.00    +0.066 C 
ATOM     13  H   UNL     1       1.529   4.184   0.064  0.00  0.00    +0.171 HD
ATOM     14  H   UNL     1       2.509   0.820  -0.273  0.00  0.00    +0.162 HD
ENDROOT
BRANCH  10  15
ATOM     15  C   UNL     1       0.303   0.026   0.038  0.00  0.00    +0.157 C 
ATOM     16  S   UNL     1       1.298  -0.634   1.265  0.00  0.00    -0.017 S 
BRANCH  15  17
ATOM     17  N   UNL     1      -0.225  -0.777  -0.906  0.00  0.00    -0.328 N 
ATOM     18  C   UNL     1       0.052  -2.216  -0.883  0.00  0.00    +0.127 C 
ATOM     19  H   UNL     1      -0.788  -0.403  -1.602  0.00  0.00    +0.147 HD
ENDBRANCH  15  17
ENDBRANCH  10  15
BRANCH  11  20
ATOM     20  C   UNL     1       3.448   2.710  -0.044  0.00  0.00    +0.120 C 
BRANCH  20  21
ATOM     21  C   UNL     1       4.772   1.945  -0.085  0.00  0.00    +0.056 C 
BRANCH  21  22
ATOM     22  C   UNL     1       5.919   2.919   0.003  0.00  0.00    -0.046 A 
ATOM     23  C   UNL     1       6.463   3.452  -1.150  0.00  0.00    +0.005 A 
ATOM     24  C   UNL     1       7.512   4.349  -1.069  0.00  0.00    +0.029 A 
ATOM     25  C   UNL     1       8.022   4.707   0.165  0.00  0.00    +0.105 A 
ATOM     26  C   UNL     1       7.481   4.170   1.318  0.00  0.00    +0.029 A 
ATOM     27  C   UNL     1       6.429   3.276   1.237  0.00  0.00    +0.005 A 
BRANCH  25  28
ATOM     28  S   UNL     1       9.361   5.847   0.269  0.00  0.00    +0.056 S 
ATOM     29  O   UNL     1       9.328   6.621  -0.923  0.00  0.00    -0.153 OA
ATOM     30  O   UNL     1       9.295   6.434   1.561  0.00  0.00    -0.153 OA
BRANCH  28  31
ATOM     31  N   UNL     1      10.761   4.963   0.221  0.00  0.00    -0.204 NA
ATOM     32  H   UNL     1      11.565   5.349  -0.161  0.00  0.00    +0.144 HD
ATOM     33  H   UNL     1      10.777   4.060   0.575  0.00  0.00    +0.144 HD
ENDBRANCH  28  31
ENDBRANCH  25  28
ENDBRANCH  21  22
ENDBRANCH  20  21
ENDBRANCH  11  20
TORSDOF 7
