REMARK  Name = ZINC08814450
REMARK  9 active torsions:
REMARK  status: ('A' for Active; 'I' for Inactive)
REMARK    1  A    between atoms: C_1  and  C_2
REMARK    2  A    between atoms: C_2  and  C_3
REMARK    3  A    between atoms: C_3  and  C_5
REMARK    4  A    between atoms: C_3  and  S_18
REMARK    5  A    between atoms: N_7  and  C_8
REMARK    6  A    between atoms: C_11  and  S_14
REMARK    7  A    between atoms: S_14  and  N_17
REMARK    8  A    between atoms: S_18  and  C_19
REMARK    9  A    between atoms: C_23  and  N_25
REMARK                            x       y       z     vdW  Elec       q    Type
REMARK                         _______ _______ _______ _____ _____    ______ ____
ROOT
ATOM      1  C   UNL     1       2.417  -4.203  -0.250  0.00  0.00    +0.140 C 
ENDROOT
BRANCH   1   2
ATOM      2  C   UNL     1       2.576  -2.741   0.080  0.00  0.00    +0.231 C 
ATOM      3  O   UNL     1       3.684  -2.252   0.148  0.00  0.00    -0.274 OA
ATOM      4  N   UNL     1       1.487  -1.977   0.298  0.00  0.00    -0.285 N 
ATOM      5  H   UNL     1       0.606  -2.382   0.316  0.00  0.00    +0.155 HD
BRANCH   4   6
ATOM      6  C   UNL     1       1.629  -0.599   0.499  0.00  0.00    +0.034 A 
ATOM      7  C   UNL     1       0.664   0.276   0.018  0.00  0.00    +0.025 A 
ATOM      8  C   UNL     1       0.806   1.635   0.218  0.00  0.00    +0.030 A 
ATOM      9  C   UNL     1       1.908   2.125   0.895  0.00  0.00    +0.105 A 
ATOM     10  C   UNL     1       2.871   1.256   1.374  0.00  0.00    +0.030 A 
ATOM     11  C   UNL     1       2.734  -0.105   1.178  0.00  0.00    +0.025 A 
BRANCH   9  12
ATOM     12  S   UNL     1       2.087   3.860   1.147  0.00  0.00    +0.056 S 
ATOM     13  O   UNL     1       3.474   4.103   1.330  0.00  0.00    -0.153 OA
ATOM     14  O   UNL     1       1.329   4.498   0.127  0.00  0.00    -0.153 OA
BRANCH  12  15
ATOM     15  N   UNL     1       1.348   4.224   2.583  0.00  0.00    -0.204 NA
ATOM     16  H   UNL     1       0.927   3.522   3.104  0.00  0.00    +0.144 HD
ATOM     17  H   UNL     1       1.337   5.140   2.904  0.00  0.00    +0.144 HD
ENDBRANCH  12  15
ENDBRANCH   9  12
ENDBRANCH   4   6
ENDBRANCH   1   2
BRANCH   1  19
ATOM     18  C   UNL     1       1.900  -6.458   0.694  0.00  0.00    +0.005 C 
ATOM     19  C   UNL     1       2.168  -4.992   1.038  0.00  0.00    +0.020 C 
ENDBRANCH   1  19
BRANCH   1  20
ATOM     20  S   UNL     1       3.924  -4.810  -1.048  0.00  0.00    -0.073 S 
BRANCH  20  21
ATOM     21  C   UNL     1       3.860  -3.899  -2.555  0.00  0.00    +0.192 A 
ATOM     22  N   UNL     1       2.896  -3.006  -2.729  0.00  0.00    -0.207 NA
ATOM     23  C   UNL     1       2.820  -2.296  -3.852  0.00  0.00    +0.122 A 
ATOM     24  C   UNL     1       3.762  -2.509  -4.854  0.00  0.00    +0.086 A 
ATOM     25  C   UNL     1       4.756  -3.459  -4.637  0.00  0.00    +0.122 A 
ATOM     26  N   UNL     1       4.773  -4.128  -3.487  0.00  0.00    -0.207 NA
ATOM     27  N   UNL     1       1.812  -1.360  -4.024  0.00  0.00    -0.343 N 
ATOM     28  H   UNL     1       1.760  -0.849  -4.846  0.00  0.00    +0.144 HD
ATOM     29  H   UNL     1       1.158  -1.216  -3.321  0.00  0.00    +0.144 HD
BRANCH  25  30
ATOM     30  N   UNL     1       5.716  -3.705  -5.607  0.00  0.00    -0.343 N 
ATOM     31  H   UNL     1       6.406  -4.368  -5.449  0.00  0.00    +0.144 HD
ATOM     32  H   UNL     1       5.697  -3.214  -6.443  0.00  0.00    +0.144 HD
ENDBRANCH  25  30
ENDBRANCH  20  21
ENDBRANCH   1  20
TORSDOF 8
