REMARK  Name = ZINC21902307
REMARK  1 active torsions:
REMARK  status: ('A' for Active; 'I' for Inactive)
REMARK    1  A    between atoms: C_8  and  C_11
REMARK                            x       y       z     vdW  Elec       q    Type
REMARK                         _______ _______ _______ _____ _____    ______ ____
ROOT
ATOM      1  C   UNL     1      -0.781   1.601   1.198  0.00  0.00    +0.260 C 
ATOM      2  O   UNL     1      -0.254   2.372   1.972  0.00  0.00    -0.271 OA
ATOM      3  N   UNL     1      -2.053   1.205   1.401  0.00  0.00    -0.262 N 
ATOM      4  C   UNL     1      -2.761   1.680   2.499  0.00  0.00    +0.165 A 
ATOM      5  N   UNL     1      -2.367   2.508   3.445  0.00  0.00    -0.229 NA
ATOM      6  C   UNL     1      -3.168   2.873   4.449  0.00  0.00    +0.054 A 
ATOM      7  C   UNL     1      -4.409   2.352   4.426  0.00  0.00    +0.014 A 
ATOM      8  S   UNL     1      -4.395   1.328   2.982  0.00  0.00    -0.057 S 
ATOM      9  C   UNL     1      -5.534   2.627   5.389  0.00  0.00    +0.044 C 
ATOM     10  C   UNL     1      -5.136   1.998   6.738  0.00  0.00    +0.005 C 
ATOM     11  C   UNL     1      -4.144   2.887   7.452  0.00  0.00    +0.001 C 
ATOM     12  C   UNL     1      -2.752   2.944   6.878  0.00  0.00    +0.006 C 
ATOM     13  C   UNL     1      -2.694   3.774   5.593  0.00  0.00    +0.056 C 
ATOM     14  H   UNL     1      -2.530   0.506   0.699  0.00  0.00    +0.157 HD
ENDROOT
BRANCH   1  22
ATOM     15  C   UNL     1       1.001   4.984  -2.364  0.00  0.00    +0.000 A 
ATOM     16  C   UNL     1       2.110   4.896  -1.542  0.00  0.00    +0.004 A 
ATOM     17  C   UNL     1       2.285   3.800  -0.723  0.00  0.00    +0.046 A 
ATOM     18  C   UNL     1       1.346   2.772  -0.717  0.00  0.00    +0.125 A 
ATOM     19  C   UNL     1       0.233   2.875  -1.541  0.00  0.00    -0.002 A 
ATOM     20  C   UNL     1       0.061   3.969  -2.361  0.00  0.00    +0.007 A 
ATOM     21  C   UNL     1      -0.607   1.633  -1.312  0.00  0.00    +0.093 C 
ATOM     22  C   UNL     1      -0.013   1.086   0.008  0.00  0.00    +0.263 C 
ATOM     23  O   UNL     1       1.325   1.613  -0.002  0.00  0.00    -0.479 OA
ENDBRANCH   1  22
TORSDOF 1
