REMARK  Name = ZINC09441052
REMARK  10 active torsions:
REMARK  status: ('A' for Active; 'I' for Inactive)
REMARK    1  A    between atoms: C_1  and  O_2
REMARK    2  A    between atoms: O_2  and  C_3
REMARK    3  A    between atoms: C_6  and  N_13
REMARK    4  A    between atoms: C_8  and  S_9
REMARK    5  A    between atoms: S_9  and  N_12
REMARK    6  A    between atoms: C_14  and  C_16
REMARK    7  A    between atoms: C_16  and  S_17
REMARK    8  A    between atoms: S_17  and  C_18
REMARK    9  A    between atoms: C_21  and  C_27
REMARK   10  A    between atoms: C_23  and  N_24
REMARK                            x       y       z     vdW  Elec       q    Type
REMARK                         _______ _______ _______ _____ _____    ______ ____
ROOT
ATOM      1  N   UNL     1      -2.459   3.823   0.046  0.00  0.00    -0.285 N 
ATOM      2  C   UNL     1      -3.616   3.138  -0.048  0.00  0.00    +0.227 C 
ATOM      3  O   UNL     1      -3.604   1.925  -0.055  0.00  0.00    -0.275 OA
ATOM      4  H   UNL     1      -2.472   4.789   0.129  0.00  0.00    +0.155 HD
ENDROOT
BRANCH   1   8
ATOM      5  C   UNL     1       1.180   1.788  -0.018  0.00  0.00    +0.146 A 
ATOM      6  C   UNL     1       1.045   2.942   0.740  0.00  0.00    +0.049 A 
ATOM      7  C   UNL     1      -0.162   3.613   0.766  0.00  0.00    +0.027 A 
ATOM      8  C   UNL     1      -1.236   3.139   0.025  0.00  0.00    +0.035 A 
ATOM      9  C   UNL     1      -1.100   1.984  -0.733  0.00  0.00    +0.055 A 
ATOM     10  C   UNL     1       0.106   1.310  -0.754  0.00  0.00    +0.148 A 
BRANCH  10  11
ATOM     11  S   UNL     1       0.279  -0.155  -1.717  0.00  0.00    +0.059 S 
ATOM     12  O   UNL     1       0.872  -1.130  -0.870  0.00  0.00    -0.153 OA
ATOM     13  O   UNL     1      -0.968  -0.365  -2.365  0.00  0.00    -0.153 OA
BRANCH  11  14
ATOM     14  N   UNL     1       1.383   0.169  -2.909  0.00  0.00    -0.203 NA
ATOM     15  H   UNL     1       1.941  -0.542  -3.259  0.00  0.00    +0.144 HD
ATOM     16  H   UNL     1       1.471   1.071  -3.256  0.00  0.00    +0.144 HD
ENDBRANCH  11  14
ENDBRANCH  10  11
BRANCH   5  18
ATOM     17  C   UNL     1       3.430   1.671   0.742  0.00  0.00    +0.277 C 
ATOM     18  O   UNL     1       2.367   1.124  -0.039  0.00  0.00    -0.493 OA
ENDBRANCH   5  18
ENDBRANCH   1   8
BRANCH   2  19
ATOM     19  C   UNL     1      -4.924   3.879  -0.144  0.00  0.00    +0.170 C 
BRANCH  19  20
ATOM     20  S   UNL     1      -6.287   2.687  -0.258  0.00  0.00    -0.114 S 
BRANCH  20  21
ATOM     21  C   UNL     1      -7.728   3.696  -0.363  0.00  0.00    +0.039 A 
ATOM     22  C   UNL     1      -7.608   5.084  -0.345  0.00  0.00    +0.018 A 
ATOM     23  C   UNL     1      -8.721   5.871  -0.426  0.00  0.00    +0.014 A 
ATOM     24  C   UNL     1      -9.986   5.285  -0.528  0.00  0.00    +0.039 A 
ATOM     25  C   UNL     1     -10.110   3.893  -0.547  0.00  0.00    +0.047 A 
ATOM     26  C   UNL     1      -8.985   3.105  -0.470  0.00  0.00    +0.140 A 
BRANCH  24  27
ATOM     27  C   UNL     1     -11.189   6.135  -0.615  0.00  0.00    +0.242 C 
ATOM     28  O   UNL     1     -12.289   5.625  -0.704  0.00  0.00    -0.270 OA
ATOM     29  N   UNL     1     -11.068   7.477  -0.596  0.00  0.00    -0.325 N 
ATOM     30  H   UNL     1     -10.190   7.885  -0.525  0.00  0.00    +0.145 HD
ATOM     31  H   UNL     1     -11.859   8.036  -0.653  0.00  0.00    +0.145 HD
ENDBRANCH  24  27
BRANCH  26  32
ATOM     32  N   UNL     1      -9.109   1.630  -0.496  0.00  0.00    +0.058 N 
ATOM     33  O   UNL     1     -10.208   1.113  -0.590  0.00  0.00    -0.126 OA
ATOM     34  O   UNL     1      -8.113   0.933  -0.423  0.00  0.00    -0.126 OA
ENDBRANCH  26  32
ENDBRANCH  20  21
ENDBRANCH  19  20
ENDBRANCH   2  19
TORSDOF 9
