REMARK  Name = ZINC34389215
REMARK  1 active torsions:
REMARK  status: ('A' for Active; 'I' for Inactive)
REMARK    1  A    between atoms: C_6  and  N_7
REMARK                            x       y       z     vdW  Elec       q    Type
REMARK                         _______ _______ _______ _____ _____    ______ ____
ROOT
ATOM      1  N   UNL     1      -1.203  -0.723   0.010  0.00  0.00    -0.210 N 
ATOM      2  C   UNL     1      -2.398  -0.131   0.118  0.00  0.00    +0.232 C 
ATOM      3  O   UNL     1      -2.581   1.063   0.218  0.00  0.00    -0.274 OA
ATOM      4  C   UNL     1      -3.483  -1.183   0.094  0.00  0.00    +0.107 C 
ATOM      5  C   UNL     1      -4.165  -1.246   1.473  0.00  0.00    +0.071 C 
ATOM      6  C   UNL     1      -5.627  -0.781   1.341  0.00  0.00    +0.021 C 
ATOM      7  C   UNL     1      -6.441  -2.060   1.063  0.00  0.00    +0.017 C 
ATOM      8  C   UNL     1      -5.403  -3.199   1.021  0.00  0.00    +0.086 C 
ATOM      9  N   UNL     1      -4.224  -2.699   1.815  0.00  0.00    -0.281 NA
ATOM     10  C   UNL     1      -2.966  -3.252   1.285  0.00  0.00    +0.138 C 
ATOM     11  C   UNL     1      -2.692  -2.512  -0.046  0.00  0.00    +0.123 C 
ATOM     12  C   UNL     1      -1.251  -2.056  -0.095  0.00  0.00    +0.233 C 
ATOM     13  O   UNL     1      -0.288  -2.785  -0.208  0.00  0.00    -0.274 OA
ATOM     14  C   UNL     1      -1.833  -3.081   2.257  0.00  0.00    +0.006 A 
ATOM     15  C   UNL     1      -1.252  -1.982   2.850  0.00  0.00    +0.046 A 
ATOM     16  C   UNL     1      -0.192  -2.148   3.726  0.00  0.00    +0.124 A 
ATOM     17  C   UNL     1       0.280  -3.420   4.003  0.00  0.00    +0.040 A 
ATOM     18  C   UNL     1      -0.301  -4.522   3.411  0.00  0.00    +0.026 A 
ATOM     19  C   UNL     1      -1.368  -4.364   2.530  0.00  0.00    +0.039 A 
ATOM     20  N   UNL     1      -2.112  -5.309   1.819  0.00  0.00    -0.283 N 
ATOM     21  C   UNL     1      -3.070  -4.738   1.065  0.00  0.00    +0.243 C 
ATOM     22  O   UNL     1      -3.863  -5.309   0.347  0.00  0.00    -0.273 OA
ATOM     23  F   UNL     1       0.380  -1.071   4.308  0.00  0.00    -0.205 F 
ATOM     24  H   UNL     1      -1.956  -6.266   1.863  0.00  0.00    +0.155 HD
ENDROOT
BRANCH   1  30
ATOM     25  C   UNL     1       0.781   0.034  -1.147  0.00  0.00    +0.027 A 
ATOM     26  C   UNL     1       1.966   0.743  -1.153  0.00  0.00    +0.040 A 
ATOM     27  C   UNL     1       2.378   1.415  -0.014  0.00  0.00    +0.124 A 
ATOM     28  C   UNL     1       1.603   1.377   1.133  0.00  0.00    +0.040 A 
ATOM     29  C   UNL     1       0.417   0.670   1.143  0.00  0.00    +0.027 A 
ATOM     30  C   UNL     1       0.002  -0.004   0.002  0.00  0.00    +0.044 A 
ATOM     31  F   UNL     1       3.538   2.107  -0.022  0.00  0.00    -0.205 F 
ENDBRANCH   1  30
TORSDOF 1
