REMARK  Name = ZINC60380233
REMARK  1 active torsions:
REMARK  status: ('A' for Active; 'I' for Inactive)
REMARK    1  A    between atoms: C_3  and  C_7
REMARK                            x       y       z     vdW  Elec       q    Type
REMARK                         _______ _______ _______ _____ _____    ______ ____
ROOT
ATOM      1  C   UNL     1       3.696   2.044  -0.003  0.00  0.00    +0.164 A 
ATOM      2  N   UNL     1       4.810   1.320  -0.021  0.00  0.00    -0.212 NA
ATOM      3  C   UNL     1       6.009   1.876  -0.045  0.00  0.00    +0.134 A 
ATOM      4  C   UNL     1       6.117   3.296  -0.052  0.00  0.00    +0.051 A 
ATOM      5  C   UNL     1       7.325   4.121  -0.075  0.00  0.00    -0.025 A 
ATOM      6  C   UNL     1       7.153   5.459  -0.079  0.00  0.00    -0.004 A 
ATOM      7  S   UNL     1       5.397   5.700  -0.053  0.00  0.00    -0.073 S 
ATOM      8  C   UNL     1       4.894   3.999  -0.035  0.00  0.00    +0.114 A 
ATOM      9  N   UNL     1       3.736   3.370  -0.016  0.00  0.00    -0.220 NA
ATOM     10  C   UNL     1       8.220   6.511  -0.099  0.00  0.00    +0.043 C 
ATOM     11  C   UNL     1       9.559   5.851   0.261  0.00  0.00    +0.005 C 
ATOM     12  C   UNL     1       9.717   4.576  -0.573  0.00  0.00    +0.005 C 
ATOM     13  C   UNL     1       8.726   3.515  -0.093  0.00  0.00    +0.037 C 
ATOM     14  N   UNL     1       7.145   1.088  -0.062  0.00  0.00    -0.313 N 
ATOM     15  C   UNL     1       7.788   0.759   1.220  0.00  0.00    +0.108 C 
ATOM     16  C   UNL     1       8.219  -0.707   1.302  0.00  0.00    +0.038 C 
ATOM     17  C   UNL     1       7.153  -1.604   0.706  0.00  0.00    +0.111 C 
ATOM     18  N   UNL     1       7.395  -1.698  -0.734  0.00  0.00    -0.284 N 
ATOM     19  C   UNL     1       6.970  -0.731  -1.686  0.00  0.00    +0.128 C 
ATOM     20  C   UNL     1       7.642   0.621  -1.345  0.00  0.00    +0.125 C 
ATOM     21  C   UNL     1       8.067  -2.773  -1.190  0.00  0.00    +0.300 C 
ATOM     22  O   UNL     1       8.362  -2.853  -2.366  0.00  0.00    -0.253 OA
ATOM     23  N   UNL     1       8.412  -3.761  -0.340  0.00  0.00    -0.313 N 
ATOM     24  H   UNL     1       8.114  -3.734   0.583  0.00  0.00    +0.146 HD
ATOM     25  H   UNL     1       8.959  -4.499  -0.651  0.00  0.00    +0.146 HD
ENDROOT
BRANCH   1  28
ATOM     26  C   UNL     1      -0.006   1.406   0.062  0.00  0.00    +0.020 A 
ATOM     27  C   UNL     1       1.195   2.095   0.037  0.00  0.00    +0.014 A 
ATOM     28  C   UNL     1       2.382   1.357   0.024  0.00  0.00    +0.037 A 
ATOM     29  C   UNL     1       2.311  -0.035   0.037  0.00  0.00    +0.122 A 
ATOM     30  N   UNL     1       1.145  -0.646   0.061  0.00  0.00    -0.263 NA
ATOM     31  C   UNL     1       0.008   0.023   0.073  0.00  0.00    +0.111 A 
ENDBRANCH   1  28
TORSDOF 1
