REMARK  Name = ZINC67312242
REMARK  10 active torsions:
REMARK  status: ('A' for Active; 'I' for Inactive)
REMARK    1  A    between atoms: C_1  and  C_2
REMARK    2  A    between atoms: C_5  and  N_11
REMARK    3  A    between atoms: C_7  and  C_8
REMARK    4  A    between atoms: N_14  and  C_15
REMARK    5  A    between atoms: C_15  and  C_17
REMARK    6  A    between atoms: C_15  and  C_19
REMARK    7  A    between atoms: C_17  and  O_18
REMARK    8  A    between atoms: C_19  and  C_21
REMARK    9  A    between atoms: C_19  and  O_30
REMARK   10  A    between atoms: C_24  and  N_27
REMARK                            x       y       z     vdW  Elec       q    Type
REMARK                         _______ _______ _______ _____ _____    ______ ____
ROOT
ATOM      1  N   UNK A   0       0.257  -4.819   0.081  0.00  0.00    -0.269 N 
ATOM      2  C   UNK A   0       0.579  -5.821  -0.761  0.00  0.00    +0.304 C 
ATOM      3  O   UNK A   0       0.530  -5.645  -1.963  0.00  0.00    -0.252 OA
ATOM      4  N   UNK A   1       0.955  -7.019  -0.270  0.00  0.00    -0.291 N 
ATOM      5  H   UNK A   0       0.227  -4.979   1.037  0.00  0.00    +0.156 HD
ATOM      6  H   UNK A   1       0.994  -7.159   0.690  0.00  0.00    +0.151 HD
ENDROOT
BRANCH   1  11
ATOM      7  C   UNK A   0      -0.907   0.360  -1.950  0.00  0.00    +0.044 C 
ATOM      8  C   UNK A   0      -0.600  -1.015  -1.414  0.00  0.00    -0.038 A 
ATOM      9  C   UNK A   0       0.057  -1.155  -0.209  0.00  0.00    +0.006 A 
ATOM     10  C   UNK A   0       0.341  -2.413   0.287  0.00  0.00    +0.023 A 
ATOM     11  C   UNK A   0      -0.034  -3.546  -0.425  0.00  0.00    +0.035 A 
ATOM     12  C   UNK A   0      -0.694  -3.417  -1.637  0.00  0.00    +0.036 A 
ATOM     13  C   UNK A   0      -0.985  -2.147  -2.135  0.00  0.00    +0.041 A 
BRANCH  13  14
ATOM     14  C   UNK A   0      -1.695  -2.000  -3.424  0.00  0.00    +0.242 C 
ATOM     15  O   UNK A   0      -1.884  -0.894  -3.891  0.00  0.00    -0.270 OA
ATOM     16  N   UNK A   0      -2.132  -3.092  -4.081  0.00  0.00    -0.325 N 
ATOM     17  H   UNK A   0      -1.981  -3.975  -3.708  0.00  0.00    +0.145 HD
ATOM     18  H   UNK A   0      -2.597  -2.996  -4.926  0.00  0.00    +0.145 HD
ENDBRANCH  13  14
ENDBRANCH   1  11
BRANCH   4  19
ATOM     19  C   UNK A   1       1.305  -8.108  -1.184  0.00  0.00    +0.133 C 
BRANCH  19  20
ATOM     20  C   UNK A   1       0.033  -8.846  -1.609  0.00  0.00    +0.181 C 
BRANCH  20  21
ATOM     21  O   UNK A   1      -0.560  -9.469  -0.467  0.00  0.00    -0.393 OA
ATOM     22  H   UNK A   1      -1.372  -9.956  -0.663  0.00  0.00    +0.209 HD
ENDBRANCH  20  21
ENDBRANCH  19  20
BRANCH  19  23
ATOM     23  C   UNK A   1       2.248  -9.084  -0.478  0.00  0.00    +0.167 C 
BRANCH  23  24
ATOM     24  C   UNK A   1       3.449  -8.335   0.040  0.00  0.00    -0.017 A 
ATOM     25  C   UNK A   1       4.481  -8.004  -0.819  0.00  0.00    +0.008 A 
ATOM     26  C   UNK A   1       5.582  -7.317  -0.344  0.00  0.00    +0.033 A 
ATOM     27  C   UNK A   1       5.652  -6.960   0.990  0.00  0.00    +0.126 A 
ATOM     28  C   UNK A   1       4.620  -7.290   1.849  0.00  0.00    +0.033 A 
ATOM     29  C   UNK A   1       3.516  -7.974   1.373  0.00  0.00    +0.008 A 
BRANCH  27  30
ATOM     30  N   UNK A   1       6.832  -6.226   1.499  0.00  0.00    +0.056 N 
ATOM     31  O   UNK A   1       7.734  -5.938   0.748  0.00  0.00    -0.126 OA
ATOM     32  O   UNK A   1       6.893  -5.914   2.666  0.00  0.00    -0.126 OA
ENDBRANCH  27  30
ENDBRANCH  23  24
BRANCH  23  33
ATOM     33  O   UNK A   1       2.675 -10.087  -1.402  0.00  0.00    -0.385 OA
ATOM     34  H   UNK A   1       3.209  -9.747  -2.133  0.00  0.00    +0.210 HD
ENDBRANCH  23  33
ENDBRANCH  19  23
ENDBRANCH   4  19
TORSDOF 9
