REMARK  Name = ZINC57456477
REMARK  6 active torsions:
REMARK  status: ('A' for Active; 'I' for Inactive)
REMARK    1  A    between atoms: C_1  and  C_2
REMARK    2  A    between atoms: C_5  and  C_8
REMARK    3  A    between atoms: C_19  and  C_21
REMARK    4  A    between atoms: C_24  and  N_27
REMARK    5  A    between atoms: N_27  and  C_28
REMARK    6  A    between atoms: N_27  and  C_29
REMARK                            x       y       z     vdW  Elec       q    Type
REMARK                         _______ _______ _______ _____ _____    ______ ____
ROOT
ATOM      1  C   UNL     1      -0.431  -5.170   1.070  0.00  0.00    +0.154 C 
ATOM      2  C   UNL     1      -1.843  -5.124   1.681  0.00  0.00    +0.113 C 
ATOM      3  C   UNL     1      -1.923  -5.451   3.164  0.00  0.00    +0.065 C 
ATOM      4  C   UNL     1      -3.173  -5.104   3.850  0.00  0.00    +0.040 A 
ATOM      5  C   UNL     1      -3.502  -5.651   5.089  0.00  0.00    +0.033 A 
ATOM      6  C   UNL     1      -4.684  -5.288   5.702  0.00  0.00    +0.042 A 
ATOM      7  C   UNL     1      -5.538  -4.384   5.088  0.00  0.00    +0.023 A 
ATOM      8  C   UNL     1      -5.223  -3.840   3.858  0.00  0.00    +0.048 A 
ATOM      9  C   UNL     1      -4.043  -4.193   3.222  0.00  0.00    +0.130 A 
ATOM     10  O   UNL     1      -3.742  -3.670   2.009  0.00  0.00    -0.483 OA
ATOM     11  C   UNL     1      -2.389  -3.702   1.549  0.00  0.00    +0.215 C 
ATOM     12 CL   UNL     1      -5.103  -5.965   7.245  0.00  0.00    -0.084 Cl
ATOM     13  N   UNL     1      -0.898  -5.949   3.770  0.00  0.00    -0.215 NA
ATOM     14  C   UNL     1       0.323  -6.120   3.205  0.00  0.00    +0.249 A 
ATOM     15  N   UNL     1       0.610  -5.743   1.937  0.00  0.00    -0.221 N 
ATOM     16  N   UNL     1       1.964  -6.028   1.726  0.00  0.00    -0.156 NA
ATOM     17  C   UNL     1       2.411  -6.575   2.827  0.00  0.00    +0.247 A 
ATOM     18  N   UNL     1       1.435  -6.641   3.713  0.00  0.00    -0.198 NA
ENDROOT
BRANCH   1  23
ATOM     19  C   UNL     1       1.126   0.220  -0.314  0.00  0.00    +0.044 C 
ATOM     20  C   UNL     1       0.720  -1.185   0.047  0.00  0.00    -0.050 A 
ATOM     21  C   UNL     1       1.339  -1.836   1.098  0.00  0.00    +0.004 A 
ATOM     22  C   UNL     1       0.967  -3.125   1.429  0.00  0.00    +0.006 A 
ATOM     23  C   UNL     1      -0.026  -3.764   0.710  0.00  0.00    -0.022 A 
ATOM     24  C   UNL     1      -0.646  -3.114  -0.341  0.00  0.00    +0.006 A 
ATOM     25  C   UNL     1      -0.276  -1.823  -0.669  0.00  0.00    +0.004 A 
ENDBRANCH   1  23
BRANCH  11  26
ATOM     26  C   UNL     1      -1.553  -2.764   2.381  0.00  0.00    -0.007 A 
ATOM     27  C   UNL     1      -1.775  -1.401   2.316  0.00  0.00    +0.009 A 
ATOM     28  C   UNL     1      -1.010  -0.538   3.077  0.00  0.00    +0.023 A 
ATOM     29  C   UNL     1      -0.018  -1.041   3.908  0.00  0.00    +0.029 A 
ATOM     30  C   UNL     1       0.203  -2.411   3.970  0.00  0.00    +0.023 A 
ATOM     31  C   UNL     1      -0.569  -3.269   3.211  0.00  0.00    +0.009 A 
BRANCH  29  32
ATOM     32  N   UNL     1       0.758  -0.171   4.678  0.00  0.00    -0.336 N 
ATOM     33  C   UNL     1       0.430   1.256   4.724  0.00  0.00    +0.129 C 
ATOM     34  C   UNL     1       1.898  -0.686   5.440  0.00  0.00    +0.129 C 
ENDBRANCH  29  32
ENDBRANCH  11  26
TORSDOF 3
