REMARK  Name = ZINC36587810
REMARK  18 active torsions:
REMARK  status: ('A' for Active; 'I' for Inactive)
REMARK    1  A    between atoms: C_1  and  C_2
REMARK    2  A    between atoms: C_2  and  C_3
REMARK    3  A    between atoms: C_3  and  C_4
REMARK    4  A    between atoms: C_4  and  C_5
REMARK    5  A    between atoms: C_5  and  C_6
REMARK    6  A    between atoms: C_6  and  C_8
REMARK    7  A    between atoms: C_6  and  N_15
REMARK    8  A    between atoms: N_10  and  C_11
REMARK    9  A    between atoms: C_11  and  C_12
REMARK   10  A    between atoms: C_12  and  C_13
REMARK   11  A    between atoms: C_13  and  C_14
REMARK   12  A    between atoms: N_15  and  C_21
REMARK   13  A    between atoms: C_16  and  C_18
REMARK   14  A    between atoms: C_18  and  C_19
REMARK   15  A    between atoms: C_19  and  S_20
REMARK   16  A    between atoms: C_21  and  C_22
REMARK   17  A    between atoms: C_21  and  C_23
REMARK   18  A    between atoms: C_21  and  C_24
REMARK                            x       y       z     vdW  Elec       q    Type
REMARK                         _______ _______ _______ _____ _____    ______ ____
ROOT
ATOM      1  C   UNL     1       1.771  -4.651  -3.305  0.00  0.00    +0.162 C 
ENDROOT
BRANCH   1   2
ATOM      2  C   UNL     1       2.106  -5.481  -4.517  0.00  0.00    +0.234 C 
ATOM      3  O   UNL     1       1.230  -6.084  -5.101  0.00  0.00    -0.274 OA
ATOM      4  N   UNL     1       3.380  -5.554  -4.952  0.00  0.00    -0.314 N 
ATOM      5  H   UNL     1       4.080  -5.072  -4.485  0.00  0.00    +0.149 HD
BRANCH   4   6
ATOM      6  C   UNL     1       3.706  -6.361  -6.131  0.00  0.00    +0.104 C 
BRANCH   6   7
ATOM      7  C   UNL     1       5.208  -6.274  -6.409  0.00  0.00    +0.018 C 
BRANCH   7   8
ATOM      8  C   UNL     1       5.549  -7.117  -7.639  0.00  0.00    -0.002 C 
ATOM      9  C   UNL     1       7.051  -7.029  -7.918  0.00  0.00    +0.004 C 
ENDBRANCH   7   8
ENDBRANCH   6   7
ENDBRANCH   4   6
ENDBRANCH   1   2
BRANCH   1  10
ATOM     10  N   UNL     1       0.328  -4.707  -3.059  0.00  0.00    -0.285 N 
ATOM     11  C   UNL     1      -0.137  -5.097  -1.855  0.00  0.00    +0.217 C 
ATOM     12  O   UNL     1       0.640  -5.410  -0.979  0.00  0.00    -0.276 OA
BRANCH  10  13
ATOM     13  C   UNL     1      -0.611  -4.339  -4.122  0.00  0.00    +0.030 C 
ATOM     14  C   UNL     1      -1.260  -5.603  -4.690  0.00  0.00    +0.031 C 
ATOM     15  C   UNL     1      -1.695  -3.422  -3.551  0.00  0.00    +0.031 C 
ATOM     16  C   UNL     1       0.141  -3.607  -5.236  0.00  0.00    +0.031 C 
ENDBRANCH  10  13
BRANCH  11  17
ATOM     17  C   UNL     1      -1.621  -5.144  -1.599  0.00  0.00    +0.106 C 
BRANCH  17  18
ATOM     18  C   UNL     1      -1.885  -5.815  -0.250  0.00  0.00    +0.075 C 
BRANCH  18  19
ATOM     19  S   UNL     1      -3.671  -5.871   0.059  0.00  0.00    -0.178 S 
ATOM     20  H   UNL     1      -3.776  -6.474   1.257  0.00  0.00    +0.102 HD
ENDBRANCH  18  19
ENDBRANCH  17  18
ENDBRANCH  11  17
ENDBRANCH   1  10
BRANCH   1  21
ATOM     21  C   UNL     1       2.191  -3.200  -3.548  0.00  0.00    +0.032 C 
BRANCH  21  22
ATOM     22  C   UNL     1       1.796  -2.346  -2.342  0.00  0.00    +0.002 C 
BRANCH  22  23
ATOM     23  C   UNL     1       2.216  -0.895  -2.585  0.00  0.00    -0.000 C 
BRANCH  23  25
ATOM     24  C   UNL     1       2.241   1.410  -1.623  0.00  0.00    +0.004 C 
ATOM     25  C   UNL     1       1.821  -0.041  -1.379  0.00  0.00    -0.003 C 
ENDBRANCH  23  25
ENDBRANCH  22  23
ENDBRANCH  21  22
ENDBRANCH   1  21
TORSDOF 13
