REMARK  Name = ZINC35034921
REMARK  6 active torsions:
REMARK  status: ('A' for Active; 'I' for Inactive)
REMARK    1  A    between atoms: C_1  and  C_2
REMARK    2  A    between atoms: N_5  and  C_20
REMARK    3  A    between atoms: N_11  and  C_12
REMARK    4  A    between atoms: C_20  and  C_22
REMARK    5  A    between atoms: C_20  and  C_23
REMARK    6  A    between atoms: N_33  and  C_34
REMARK                            x       y       z     vdW  Elec       q    Type
REMARK                         _______ _______ _______ _____ _____    ______ ____
ROOT
ATOM      1  C   UNL     1       1.526   0.625  -1.874  0.00  0.00    +0.026 C 
ATOM      2  C   UNL     1       1.155  -0.734  -1.276  0.00  0.00    +0.058 C 
ATOM      3  C   UNL     1      -0.369  -0.890  -1.258  0.00  0.00    -0.055 C 
ATOM      4  N   UNL     1      -0.725  -2.133  -0.561  0.00  0.00    +0.388 N 
ATOM      5  C   UNL     1      -0.319  -2.050   0.847  0.00  0.00    -0.058 C 
ATOM      6  C   UNL     1       1.207  -1.951   0.934  0.00  0.00    +0.091 C 
ATOM      7  N   UNL     1       1.653  -0.819   0.106  0.00  0.00    -0.286 N 
ATOM      8  C   UNL     1       2.489   0.116   0.600  0.00  0.00    +0.307 C 
ATOM      9  O   UNL     1       2.849   1.042  -0.102  0.00  0.00    -0.252 OA
ATOM     10  N   UNL     1       2.927   0.024   1.871  0.00  0.00    -0.269 N 
ATOM     11  H   UNL     1       2.588  -0.676   2.451  0.00  0.00    +0.156 HD
ATOM     12  H   UNL     1      -0.253  -2.910  -1.000  0.00  0.00    -0.081 HD
ENDROOT
BRANCH  10  13
ATOM     13  C   UNL     1       3.872   0.937   2.354  0.00  0.00    +0.036 A 
ATOM     14  C   UNL     1       3.908   2.231   1.851  0.00  0.00    +0.025 A 
ATOM     15  C   UNL     1       4.840   3.131   2.328  0.00  0.00    +0.023 A 
ATOM     16  C   UNL     1       5.739   2.745   3.307  0.00  0.00    +0.059 A 
ATOM     17  C   UNL     1       5.705   1.456   3.811  0.00  0.00    +0.061 A 
ATOM     18  C   UNL     1       4.769   0.553   3.341  0.00  0.00    +0.044 A 
ATOM     19 CL   UNL     1       6.833   0.974   5.040  0.00  0.00    -0.082 Cl
ATOM     20 CL   UNL     1       6.910   3.879   3.905  0.00  0.00    -0.082 Cl
ENDBRANCH  10  13
BRANCH   4  21
ATOM     21  C   UNL     1      -2.177  -2.338  -0.640  0.00  0.00    -0.004 C 
ATOM     22  C   UNL     1      -2.591  -2.494  -2.105  0.00  0.00    -0.005 C 
BRANCH  21  23
ATOM     23  C   UNL     1      -2.551  -3.582   0.123  0.00  0.00    +0.099 A 
ATOM     24  N   UNL     1      -1.792  -4.629   0.003  0.00  0.00    -0.235 NA
ATOM     25  C   UNL     1      -2.066  -5.784   0.660  0.00  0.00    +0.079 A 
ATOM     26  C   UNL     1      -1.252  -6.911   0.533  0.00  0.00    +0.048 A 
ATOM     27  C   UNL     1      -1.572  -8.062   1.221  0.00  0.00    +0.043 A 
ATOM     28  C   UNL     1      -2.696  -8.112   2.039  0.00  0.00    +0.021 A 
ATOM     29  C   UNL     1      -3.507  -7.021   2.178  0.00  0.00    +0.017 A 
ATOM     30  C   UNL     1      -3.205  -5.845   1.493  0.00  0.00    +0.065 A 
ATOM     31  C   UNL     1      -4.042  -4.642   1.607  0.00  0.00    +0.262 A 
ATOM     32  O   UNL     1      -5.037  -4.628   2.308  0.00  0.00    -0.267 OA
ATOM     33  N   UNL     1      -3.661  -3.550   0.905  0.00  0.00    -0.301 N 
ATOM     34  C   UNL     1      -4.456  -2.322   0.986  0.00  0.00    +0.153 C 
ATOM     35 CL   UNL     1      -0.561  -9.464   1.065  0.00  0.00    -0.083 Cl
ENDBRANCH  21  23
ENDBRANCH   4  21
TORSDOF 3
