REMARK  Name = ZINC28185986
REMARK  11 active torsions:
REMARK  status: ('A' for Active; 'I' for Inactive)
REMARK    1  A    between atoms: C_1  and  C_2
REMARK    2  A    between atoms: C_2  and  O_3
REMARK    3  A    between atoms: O_3  and  C_4
REMARK    4  A    between atoms: C_6  and  C_14
REMARK    5  A    between atoms: C_9  and  O_10
REMARK    6  A    between atoms: O_10  and  C_11
REMARK    7  A    between atoms: C_11  and  C_12
REMARK    8  A    between atoms: C_15  and  C_16
REMARK    9  A    between atoms: C_19  and  C_21
REMARK   10  A    between atoms: N_23  and  C_24
REMARK   11  A    between atoms: C_24  and  C_25
REMARK                            x       y       z     vdW  Elec       q    Type
REMARK                         _______ _______ _______ _____ _____    ______ ____
ROOT
ATOM      1  C   UNL     1      -0.015   1.357  -0.097  0.00  0.00    +0.144 A 
ATOM      2  N   UNL     1       0.027   0.031   0.081  0.00  0.00    -0.140 NA
ATOM      3  N   UNL     1       1.119  -0.601   0.081  0.00  0.00    -0.136 NA
ATOM      4  C   UNL     1       2.287   0.014  -0.095  0.00  0.00    +0.187 A 
ATOM      5  S   UNL     1       1.731   1.705  -0.282  0.00  0.00    -0.040 S 
ENDROOT
BRANCH   4   6
ATOM      6  C   UNL     1       3.649  -0.540  -0.128  0.00  0.00    +0.271 C 
ATOM      7  O   UNL     1       4.601   0.196  -0.304  0.00  0.00    -0.268 OA
ATOM      8  N   UNL     1       3.842  -1.864   0.037  0.00  0.00    -0.305 N 
ATOM      9  H   UNL     1       2.981  -2.530   0.196  0.00  0.00    +0.149 HD
BRANCH   8  10
ATOM     10  C   UNL     1       5.198  -2.416   0.005  0.00  0.00    +0.140 C 
BRANCH  10  11
ATOM     11  C   UNL     1       5.139  -3.908   0.213  0.00  0.00    -0.030 A 
ATOM     12  C   UNL     1       5.211  -4.430   1.490  0.00  0.00    +0.008 A 
ATOM     13  C   UNL     1       5.151  -5.798   1.683  0.00  0.00    +0.038 A 
ATOM     14  C   UNL     1       5.030  -6.645   0.594  0.00  0.00    +0.123 A 
ATOM     15  C   UNL     1       4.963  -6.120  -0.686  0.00  0.00    +0.038 A 
ATOM     16  C   UNL     1       5.017  -4.752  -0.875  0.00  0.00    +0.008 A 
ATOM     17  F   UNL     1       4.977  -7.982   0.780  0.00  0.00    -0.205 F 
ENDBRANCH  10  11
ENDBRANCH   8  10
ENDBRANCH   4   6
BRANCH   1  19
ATOM     18  C   UNL     1      -2.413   1.780   0.024  0.00  0.00    +0.030 C 
ATOM     19  C   UNL     1      -1.164   2.265  -0.135  0.00  0.00    +0.075 C 
ATOM     20 CL   UNL     1      -0.919   3.965  -0.386  0.00  0.00    -0.081 Cl
BRANCH  18  23
ATOM     21  C   UNL     1      -5.872   3.212  -0.236  0.00  0.00    +0.162 A 
ATOM     22  C   UNL     1      -4.806   2.340  -0.353  0.00  0.00    +0.057 A 
ATOM     23  C   UNL     1      -3.551   2.704   0.146  0.00  0.00    -0.020 A 
ATOM     24  C   UNL     1      -3.383   3.946   0.767  0.00  0.00    +0.012 A 
ATOM     25  C   UNL     1      -4.450   4.812   0.875  0.00  0.00    +0.050 A 
ATOM     26  C   UNL     1      -5.695   4.450   0.380  0.00  0.00    +0.163 A 
BRANCH  21  27
ATOM     27  O   UNL     1      -7.093   2.862  -0.721  0.00  0.00    -0.489 OA
BRANCH  27  29
ATOM     28  C   UNL     1      -8.639   1.364  -1.819  0.00  0.00    +0.048 C 
ATOM     29  C   UNL     1      -7.202   1.579  -1.339  0.00  0.00    +0.226 C 
ENDBRANCH  27  29
ENDBRANCH  21  27
BRANCH  26  30
ATOM     30  O   UNL     1      -6.745   5.306   0.494  0.00  0.00    -0.476 OA
BRANCH  30  31
ATOM     31  C   UNL     1      -6.494   6.558   1.136  0.00  0.00    +0.317 C 
BRANCH  31  32
ATOM     32  C   UNL     1      -7.735   7.348   1.170  0.00  0.00    -0.065 C 
ATOM     33  C   UNL     1      -8.725   7.979   1.198  0.00  0.00    +0.007 C 
ENDBRANCH  31  32
ENDBRANCH  30  31
ENDBRANCH  26  30
ENDBRANCH  18  23
ENDBRANCH   1  19
TORSDOF 10
