REMARK  Name = ZINC09100183
REMARK  10 active torsions:
REMARK  status: ('A' for Active; 'I' for Inactive)
REMARK    1  A    between atoms: C_1  and  C_2
REMARK    2  A    between atoms: C_2  and  C_4
REMARK    3  A    between atoms: C_2  and  N_62
REMARK    4  A    between atoms: C_7  and  S_16
REMARK    5  A    between atoms: N_8  and  C_9
REMARK    6  A    between atoms: S_16  and  C_17
REMARK    7  A    between atoms: C_17  and  C_18
REMARK    8  A    between atoms: N_20  and  C_21
REMARK    9  A    between atoms: C_26  and  C_27
REMARK   10  A    between atoms: C_27  and  C_29
REMARK                            x       y       z     vdW  Elec       q    Type
REMARK                         _______ _______ _______ _____ _____    ______ ____
ROOT
ATOM      1  C   UNL     1       1.155   0.345   4.723  0.00  0.00    +0.125 A 
ATOM      2  N   UNL     1       1.910  -0.129   3.773  0.00  0.00    -0.135 NA
ATOM      3  N   UNL     1       1.466   0.245   2.626  0.00  0.00    -0.122 NA
ATOM      4  C   UNL     1       0.393   0.986   2.782  0.00  0.00    +0.197 A 
ATOM      5  N   UNL     1       0.163   1.078   4.127  0.00  0.00    -0.275 N 
ENDROOT
BRANCH   5   6
ATOM      6  C   UNL     1      -0.875   1.775   4.764  0.00  0.00    +0.050 A 
ATOM      7  C   UNL     1      -0.586   2.858   5.582  0.00  0.00    +0.028 A 
ATOM      8  C   UNL     1      -1.610   3.546   6.204  0.00  0.00    +0.022 A 
ATOM      9  C   UNL     1      -2.923   3.148   6.020  0.00  0.00    +0.041 A 
ATOM     10  C   UNL     1      -3.213   2.066   5.209  0.00  0.00    +0.022 A 
ATOM     11  C   UNL     1      -2.193   1.378   4.581  0.00  0.00    +0.028 A 
ATOM     12 CL   UNL     1      -4.207   4.011   6.808  0.00  0.00    -0.084 Cl
ENDBRANCH   5   6
BRANCH   1  14
ATOM     13  C   UNL     1       0.797  -1.245   6.592  0.00  0.00    -0.005 C 
ATOM     14  C   UNL     1       1.341   0.131   6.203  0.00  0.00    -0.002 C 
BRANCH  14  20
ATOM     15  C   UNL     1       3.014  -0.210   7.920  0.00  0.00    -0.078 C 
ATOM     16  C   UNL     1       4.521  -0.263   8.182  0.00  0.00    -0.019 C 
ATOM     17  C   UNL     1       5.126   1.121   7.929  0.00  0.00    -0.004 C 
ATOM     18  C   UNL     1       4.818   1.549   6.492  0.00  0.00    -0.019 C 
ATOM     19  C   UNL     1       3.303   1.549   6.278  0.00  0.00    -0.078 C 
ATOM     20  N   UNL     1       2.785   0.184   6.513  0.00  0.00    +0.386 N 
ATOM     21  H   UNL     1       3.282  -0.471   5.899  0.00  0.00    -0.081 HD
ENDBRANCH  14  20
ENDBRANCH   1  14
BRANCH   4  22
ATOM     22  S   UNL     1      -0.564   1.727   1.502  0.00  0.00    -0.076 S 
BRANCH  22  23
ATOM     23  C   UNL     1       0.361   1.163   0.051  0.00  0.00    +0.173 C 
BRANCH  23  24
ATOM     24  C   UNL     1      -0.294   1.691  -1.199  0.00  0.00    +0.228 C 
ATOM     25  O   UNL     1      -1.288   2.381  -1.117  0.00  0.00    -0.275 OA
ATOM     26  N   UNL     1       0.225   1.397  -2.407  0.00  0.00    -0.284 N 
ATOM     27  H   UNL     1       1.064   0.914  -2.470  0.00  0.00    +0.155 HD
BRANCH  26  28
ATOM     28  C   UNL     1      -0.443   1.786  -3.564  0.00  0.00    +0.044 A 
ATOM     29  C   UNL     1      -1.816   1.987  -3.544  0.00  0.00    +0.024 A 
ATOM     30  C   UNL     1      -2.475   2.378  -4.692  0.00  0.00    +0.002 A 
ATOM     31  C   UNL     1      -1.777   2.563  -5.875  0.00  0.00    +0.001 A 
ATOM     32  C   UNL     1      -0.416   2.364  -5.918  0.00  0.00    +0.013 A 
ATOM     33  C   UNL     1       0.269   1.972  -4.762  0.00  0.00    +0.038 A 
BRANCH  33  34
ATOM     34  C   UNL     1       1.721   1.758  -4.800  0.00  0.00    +0.162 C 
ATOM     35  O   UNL     1       2.296   1.331  -3.822  0.00  0.00    -0.292 OA
ATOM     36  C   UNL     1       2.496   2.068  -6.055  0.00  0.00    +0.091 C 
ENDBRANCH  33  34
ENDBRANCH  26  28
ENDBRANCH  23  24
ENDBRANCH  22  23
ENDBRANCH   4  22
TORSDOF 8
