REMARK  Name = ZINC09906774
REMARK  5 active torsions:
REMARK  status: ('A' for Active; 'I' for Inactive)
REMARK    1  A    between atoms: C_1  and  S_2
REMARK    2  A    between atoms: S_2  and  C_5
REMARK    3  A    between atoms: C_8  and  N_11
REMARK    4  A    between atoms: C_16  and  N_55
REMARK    5  A    between atoms: N_21  and  C_24
REMARK                            x       y       z     vdW  Elec       q    Type
REMARK                         _______ _______ _______ _____ _____    ______ ____
ROOT
ATOM      1  N   UNL     1      -0.665   3.020  -1.228  0.00  0.00    -0.333 N 
ATOM      2  C   UNL     1      -0.597   1.552  -1.243  0.00  0.00    +0.086 C 
ATOM      3  C   UNL     1       0.102   1.063   0.027  0.00  0.00    -0.059 C 
ATOM      4  C   UNL     1      -0.704   3.009   1.220  0.00  0.00    -0.059 C 
ATOM      5  C   UNL     1      -1.403   3.498  -0.051  0.00  0.00    +0.086 C 
ATOM      6  N   UNL     1      -0.661   1.531   1.202  0.00  0.00    +0.390 N 
ATOM      7  H   UNL     1      -1.621   1.171   1.142  0.00  0.00    -0.081 HD
ENDROOT
BRANCH   6   8
ATOM      8  C   UNL     1      -0.037   1.029   2.445  0.00  0.00    +0.029 C 
ATOM      9  C   UNL     1      -0.809   1.548   3.675  0.00  0.00    +0.090 C 
ATOM     10  C   UNL     1      -1.325   0.284   4.329  0.00  0.00    +0.225 C 
ATOM     11  O   UNL     1      -1.992   0.239   5.340  0.00  0.00    -0.275 OA
ATOM     12  N   UNL     1      -0.928  -0.775   3.614  0.00  0.00    -0.212 N 
ATOM     13  C   UNL     1      -0.198  -0.473   2.533  0.00  0.00    +0.213 C 
ATOM     14  O   UNL     1       0.262  -1.276   1.749  0.00  0.00    -0.277 OA
BRANCH  12  15
ATOM     15  C   UNL     1      -1.250  -2.095   3.967  0.00  0.00    +0.048 A 
ATOM     16  C   UNL     1      -0.717  -2.654   5.120  0.00  0.00    +0.028 A 
ATOM     17  C   UNL     1      -1.034  -3.953   5.470  0.00  0.00    +0.051 A 
ATOM     18  C   UNL     1      -1.884  -4.700   4.672  0.00  0.00    +0.166 A 
ATOM     19  C   UNL     1      -2.421  -4.141   3.514  0.00  0.00    +0.168 A 
ATOM     20  C   UNL     1      -2.107  -2.838   3.168  0.00  0.00    +0.073 A 
ATOM     21  O   UNL     1      -3.218  -5.070   2.910  0.00  0.00    -0.453 OA
ATOM     22  C   UNL     1      -2.841  -6.334   3.488  0.00  0.00    +0.466 C 
ATOM     23  O   UNL     1      -2.346  -5.980   4.792  0.00  0.00    -0.453 OA
ENDBRANCH  12  15
ENDBRANCH   6   8
BRANCH   1  27
ATOM     24  C   UNL     1      -2.359   4.471  -4.744  0.00  0.00    +0.088 A 
ATOM     25  C   UNL     1      -1.951   5.353  -3.759  0.00  0.00    +0.029 A 
ATOM     26  C   UNL     1      -1.389   4.875  -2.592  0.00  0.00    +0.025 A 
ATOM     27  C   UNL     1      -1.234   3.507  -2.407  0.00  0.00    +0.030 A 
ATOM     28  C   UNL     1      -1.640   2.624  -3.400  0.00  0.00    +0.025 A 
ATOM     29  C   UNL     1      -2.206   3.109  -4.563  0.00  0.00    +0.029 A 
BRANCH  24  31
ATOM     30  C   UNL     1      -1.674   5.329  -7.357  0.00  0.00    +0.200 C 
ATOM     31  S   UNL     1      -3.075   5.086  -6.231  0.00  0.00    -0.006 S 
ATOM     32  O   UNL     1      -3.902   4.029  -6.699  0.00  0.00    -0.170 OA
ATOM     33  O   UNL     1      -3.638   6.340  -5.872  0.00  0.00    -0.170 OA
ENDBRANCH  24  31
ENDBRANCH   1  27
TORSDOF 4
