REMARK  Name = ZINC40366191
REMARK  5 active torsions:
REMARK  status: ('A' for Active; 'I' for Inactive)
REMARK    1  A    between atoms: C_1  and  N_2
REMARK    2  A    between atoms: C_5  and  C_8
REMARK    3  A    between atoms: C_5  and  N_11
REMARK    4  A    between atoms: C_8  and  N_10
REMARK    5  A    between atoms: C_12  and  C_14
REMARK                            x       y       z     vdW  Elec       q    Type
REMARK                         _______ _______ _______ _____ _____    ______ ____
ROOT
ATOM      1  C   UNL     1       0.137   1.450   0.678  0.00  0.00    -0.096 C 
ATOM      2  N   UNL     1       0.102  -0.002   0.458  0.00  0.00    +0.378 N 
ATOM      3  C   UNL     1       0.687  -0.312  -0.852  0.00  0.00    -0.077 C 
ATOM      4  C   UNL     1       0.581  -1.815  -1.120  0.00  0.00    +0.014 C 
ATOM      5  C   UNL     1       1.337  -2.577  -0.029  0.00  0.00    +0.076 C 
ATOM      6  C   UNL     1       0.767  -2.190   1.339  0.00  0.00    +0.014 C 
ATOM      7  C   UNL     1       0.867  -0.674   1.516  0.00  0.00    -0.077 C 
ATOM      8  H   UNL     1      -0.854  -0.322   0.481  0.00  0.00    -0.082 HD
ENDROOT
BRANCH   5   9
ATOM      9  N   UNL     1       2.759  -2.230  -0.084  0.00  0.00    -0.300 N 
ATOM     10  C   UNL     1       3.486  -2.535  -1.176  0.00  0.00    +0.249 C 
ATOM     11  O   UNL     1       2.985  -3.178  -2.079  0.00  0.00    -0.270 OA
ATOM     12  H   UNL     1       3.177  -1.779   0.667  0.00  0.00    +0.150 HD
BRANCH  10  13
ATOM     13  C   UNL     1       4.890  -2.091  -1.277  0.00  0.00    +0.090 A 
ATOM     14  C   UNL     1       5.922  -2.907  -0.802  0.00  0.00    +0.137 A 
ATOM     15  C   UNL     1       7.234  -2.482  -0.900  0.00  0.00    +0.039 A 
ATOM     16  C   UNL     1       7.526  -1.255  -1.467  0.00  0.00    +0.004 A 
ATOM     17  C   UNL     1       6.511  -0.443  -1.938  0.00  0.00    +0.021 A 
ATOM     18  C   UNL     1       5.195  -0.854  -1.853  0.00  0.00    +0.056 A 
ATOM     19 CL   UNL     1       3.924   0.164  -2.453  0.00  0.00    -0.083 Cl
ATOM     20  F   UNL     1       5.637  -4.106  -0.248  0.00  0.00    -0.205 F 
ENDBRANCH  10  13
ENDBRANCH   5   9
BRANCH   5  21
ATOM     21  C   UNL     1       1.170  -4.060  -0.243  0.00  0.00    +0.070 C 
ATOM     22  S   UNL     1       0.140  -4.599  -1.340  0.00  0.00    -0.038 S 
BRANCH  21  23
ATOM     23  N   UNL     1       1.890  -4.932   0.491  0.00  0.00    -0.354 N 
ATOM     24  H   UNL     1       2.462  -4.609   1.205  0.00  0.00    +0.143 HD
ATOM     25  H   UNL     1       1.837  -5.882   0.305  0.00  0.00    +0.143 HD
ENDBRANCH  21  23
ENDBRANCH   5  21
TORSDOF 4
