REMARK  Name = ZINC01269466
REMARK  3 active torsions:
REMARK  status: ('A' for Active; 'I' for Inactive)
REMARK    1  A    between atoms: C_1  and  N_2
REMARK    2  A    between atoms: N_7  and  C_10
REMARK    3  A    between atoms: C_20  and  C_22
REMARK                            x       y       z     vdW  Elec       q    Type
REMARK                         _______ _______ _______ _____ _____    ______ ____
ROOT
ATOM      1  C   UNL     1       2.014   6.473   4.410  0.00  0.00    +0.157 C 
ATOM      2  N   UNL     1       0.814   6.664   3.592  0.00  0.00    -0.264 N 
ATOM      3  C   UNL     1       0.835   6.371   2.286  0.00  0.00    +0.263 A 
ATOM      4  O   UNL     1       1.843   5.883   1.802  0.00  0.00    -0.267 OA
ATOM      5  C   UNL     1      -0.289   6.616   1.449  0.00  0.00    +0.072 A 
ATOM      6  C   UNL     1      -1.371   7.205   1.997  0.00  0.00    +0.096 A 
ATOM      7  N   UNL     1      -1.381   7.393   3.381  0.00  0.00    -0.291 N 
ATOM      8  C   UNL     1      -0.319   7.134   4.147  0.00  0.00    +0.332 A 
ATOM      9  O   UNL     1      -0.374   7.323   5.347  0.00  0.00    -0.246 OA
ATOM     10  C   UNL     1      -2.603   7.893   4.016  0.00  0.00    +0.154 C 
ATOM     11  S   UNL     1      -2.803   7.785   1.173  0.00  0.00    -0.050 S 
ATOM     12  C   UNL     1      -3.238   6.467   0.100  0.00  0.00    +0.125 A 
ATOM     13  C   UNL     1      -2.356   6.101  -0.897  0.00  0.00    +0.061 A 
ATOM     14  C   UNL     1      -2.775   5.208  -1.880  0.00  0.00    +0.028 A 
ATOM     15  C   UNL     1      -4.048   4.665  -1.770  0.00  0.00    +0.042 A 
ATOM     16  C   UNL     1      -4.845   5.018  -0.698  0.00  0.00    +0.131 A 
ATOM     17  N   UNL     1      -4.429   5.893   0.200  0.00  0.00    -0.227 NA
ATOM     18 CL   UNL     1      -6.417   4.301  -0.529  0.00  0.00    -0.062 Cl
ATOM     19  N   UNL     1      -1.062   6.599  -0.918  0.00  0.00    -0.331 N 
ATOM     20  C   UNL     1      -0.082   6.158   0.036  0.00  0.00    +0.139 C 
ATOM     21  H   UNL     1      -0.814   7.255  -1.588  0.00  0.00    +0.147 HD
ENDROOT
BRANCH  20  22
ATOM     22  C   UNL     1      -0.061   4.651   0.027  0.00  0.00    -0.023 A 
ATOM     23  C   UNL     1      -1.190   3.943   0.395  0.00  0.00    +0.007 A 
ATOM     24  C   UNL     1      -1.172   2.561   0.387  0.00  0.00    +0.015 A 
ATOM     25  C   UNL     1      -0.024   1.887   0.011  0.00  0.00    +0.018 A 
ATOM     26  C   UNL     1       1.107   2.596  -0.351  0.00  0.00    +0.015 A 
ATOM     27  C   UNL     1       1.086   3.978  -0.348  0.00  0.00    +0.007 A 
ATOM     28 BR   UNL     1       0.002  -0.004   0.001  0.00  0.00    -0.050 Br
ENDBRANCH  20  22
TORSDOF 1
