REMARK  Name = ZINC13087860
REMARK  10 active torsions:
REMARK  status: ('A' for Active; 'I' for Inactive)
REMARK    1  A    between atoms: C_1  and  C_2
REMARK    2  A    between atoms: C_2  and  O_3
REMARK    3  A    between atoms: O_3  and  C_4
REMARK    4  A    between atoms: C_6  and  C_24
REMARK    5  A    between atoms: C_9  and  O_10
REMARK    6  A    between atoms: O_10  and  S_11
REMARK    7  A    between atoms: S_11  and  C_14
REMARK    8  A    between atoms: C_16  and  C_22
REMARK    9  A    between atoms: C_18  and  C_21
REMARK   10  A    between atoms: C_19  and  C_20
REMARK                            x       y       z     vdW  Elec       q    Type
REMARK                         _______ _______ _______ _____ _____    ______ ____
ROOT
ATOM      1  C   UNL     1      -5.469  -1.693  -1.273  0.00  0.00    +0.165 A 
ATOM      2  C   UNL     1      -4.802  -2.696  -1.959  0.00  0.00    +0.055 A 
ATOM      3  C   UNL     1      -3.767  -2.375  -2.818  0.00  0.00    -0.015 A 
ATOM      4  C   UNL     1      -3.396  -1.055  -2.994  0.00  0.00    +0.010 A 
ATOM      5  C   UNL     1      -4.062  -0.050  -2.318  0.00  0.00    +0.053 A 
ATOM      6  C   UNL     1      -5.096  -0.365  -1.452  0.00  0.00    +0.198 A 
ENDROOT
BRANCH   3   7
ATOM      7  C   UNL     1      -3.042  -3.466  -3.562  0.00  0.00    +0.191 C 
ATOM      8  C   UNL     1      -1.669  -3.699  -2.963  0.00  0.00    +0.245 C 
ATOM      9  O   UNL     1      -1.414  -4.059  -1.834  0.00  0.00    -0.273 OA
ATOM     10  N   UNL     1      -0.791  -3.422  -3.947  0.00  0.00    -0.238 N 
ATOM     11  C   UNL     1      -1.411  -3.050  -5.073  0.00  0.00    +0.307 C 
ATOM     12  O   UNL     1      -0.830  -2.751  -6.097  0.00  0.00    -0.252 OA
ATOM     13  N   UNL     1      -2.750  -3.045  -4.944  0.00  0.00    -0.284 N 
ATOM     14  H   UNL     1       0.172  -3.485  -3.851  0.00  0.00    +0.159 HD
ATOM     15  H   UNL     1      -3.398  -2.811  -5.627  0.00  0.00    +0.151 HD
ENDBRANCH   3   7
BRANCH   1  16
ATOM     16  O   UNL     1      -6.488  -2.007  -0.429  0.00  0.00    -0.488 OA
BRANCH  16  18
ATOM     17  C   UNL     1      -7.977  -3.548   0.690  0.00  0.00    +0.048 C 
ATOM     18  C   UNL     1      -6.816  -3.392  -0.295  0.00  0.00    +0.226 C 
ENDBRANCH  16  18
ENDBRANCH   1  16
BRANCH   6  19
ATOM     19  O   UNL     1      -5.748   0.622  -0.781  0.00  0.00    -0.339 OA
BRANCH  19  20
ATOM     20  S   UNL     1      -5.139   0.958   0.573  0.00  0.00    +0.151 S 
ATOM     21  O   UNL     1      -4.733  -0.275   1.152  0.00  0.00    -0.131 OA
ATOM     22  O   UNL     1      -6.046   1.841   1.218  0.00  0.00    -0.131 OA
BRANCH  20  23
ATOM     23  C   UNL     1      -3.669   1.880   0.268  0.00  0.00    +0.132 A 
ATOM     24  C   UNL     1      -3.733   3.250   0.120  0.00  0.00    +0.046 A 
ATOM     25  C   UNL     1      -2.568   3.978  -0.126  0.00  0.00    +0.065 A 
ATOM     26  C   UNL     1      -1.342   3.314  -0.209  0.00  0.00    +0.018 A 
ATOM     27  C   UNL     1      -1.291   1.945  -0.053  0.00  0.00    -0.045 A 
ATOM     28  C   UNL     1      -2.451   1.229   0.185  0.00  0.00    -0.019 A 
ATOM     29  C   UNL     1      -2.387  -0.268   0.353  0.00  0.00    +0.046 C 
ATOM     30  C   UNL     1       0.031   1.227  -0.142  0.00  0.00    +0.044 C 
BRANCH  25  31
ATOM     31  C   UNL     1      -2.631   5.444  -0.292  0.00  0.00    +0.387 C 
ATOM     32  O   UNL     1      -3.698   6.019  -0.219  0.00  0.00    -0.241 OA
ATOM     33  O   UNL     1      -1.503   6.146  -0.518  0.00  0.00    -0.241 OA
ENDBRANCH  25  31
ENDBRANCH  20  23
ENDBRANCH  19  20
ENDBRANCH   6  19
TORSDOF 7
