REMARK  Name = ZINC63140374
REMARK  4 active torsions:
REMARK  status: ('A' for Active; 'I' for Inactive)
REMARK    1  A    between atoms: C_8  and  C_31
REMARK    2  A    between atoms: N_19  and  C_23
REMARK    3  A    between atoms: C_23  and  C_24
REMARK    4  A    between atoms: C_24  and  C_25
REMARK                            x       y       z     vdW  Elec       q    Type
REMARK                         _______ _______ _______ _____ _____    ______ ____
ROOT
ATOM      1  C   UNL     1       0.267   1.578  -0.074  0.00  0.00    +0.001 A 
ATOM      2  C   UNL     1       1.468   2.294  -0.033  0.00  0.00    +0.002 A 
ATOM      3  C   UNL     1       2.699   1.726  -0.014  0.00  0.00    +0.026 A 
ATOM      4  C   UNL     1       2.766   0.302  -0.037  0.00  0.00    +0.043 A 
ATOM      5  N   UNL     1       3.794  -0.493  -0.008  0.00  0.00    -0.375 N 
ATOM      6  C   UNL     1       3.315  -1.873  -0.123  0.00  0.00    +0.131 C 
ATOM      7  C   UNL     1       3.753  -2.726   1.071  0.00  0.00    +0.133 C 
ATOM      8  N   UNL     1       2.933  -3.958   1.071  0.00  0.00    -0.279 N 
ATOM      9  C   UNL     1       1.483  -3.853   1.200  0.00  0.00    +0.167 C 
ATOM     10  C   UNL     1       0.917  -3.004   0.048  0.00  0.00    +0.065 C 
ATOM     11  C   UNL     1       1.795  -1.781  -0.075  0.00  0.00    -0.034 C 
ATOM     12  C   UNL     1       1.497  -0.487  -0.074  0.00  0.00    -0.001 A 
ATOM     13  C   UNL     1       0.207   0.221  -0.096  0.00  0.00    +0.010 A 
ATOM     14  C   UNL     1       0.810  -5.186   1.206  0.00  0.00    +0.237 C 
ATOM     15  O   UNL     1      -0.396  -5.211   1.329  0.00  0.00    -0.274 OA
ATOM     16  N   UNL     1       1.449  -6.348   1.084  0.00  0.00    -0.291 N 
ATOM     17  C   UNL     1       2.889  -6.461   0.929  0.00  0.00    +0.203 C 
ATOM     18  C   UNL     1       3.566  -5.131   0.952  0.00  0.00    +0.234 C 
ATOM     19  O   UNL     1       4.772  -5.111   0.832  0.00  0.00    -0.274 OA
ATOM     20  H   UNL     1       4.721  -0.220   0.075  0.00  0.00    +0.160 HD
ENDROOT
BRANCH   7  21
ATOM     21  C   UNL     1       3.532  -1.964   2.352  0.00  0.00    -0.025 A 
ATOM     22  C   UNL     1       2.263  -1.531   2.688  0.00  0.00    +0.006 A 
ATOM     23  C   UNL     1       2.060  -0.832   3.863  0.00  0.00    +0.015 A 
ATOM     24  C   UNL     1       3.126  -0.566   4.703  0.00  0.00    +0.018 A 
ATOM     25  C   UNL     1       4.396  -1.000   4.366  0.00  0.00    +0.015 A 
ATOM     26  C   UNL     1       4.598  -1.703   3.193  0.00  0.00    +0.006 A 
ATOM     27 BR   UNL     1       2.849   0.390   6.311  0.00  0.00    -0.050 Br
ENDBRANCH   7  21
BRANCH  16  28
ATOM     28  C   UNL     1       0.656  -7.580   1.107  0.00  0.00    +0.112 C 
BRANCH  28  29
ATOM     29  C   UNL     1       0.231  -7.940  -0.318  0.00  0.00    +0.049 C 
BRANCH  29  30
ATOM     30  C   UNL     1      -0.585  -9.207  -0.294  0.00  0.00    -0.072 C 
ATOM     31  C   UNL     1      -1.874  -9.098  -0.260  0.00  0.00    -0.028 C 
ATOM     32  C   UNL     1      -2.816 -10.266  -0.223  0.00  0.00    +0.027 C 
ATOM     33  C   UNL     1      -2.090 -11.542  -0.652  0.00  0.00    +0.004 C 
ATOM     34  C   UNL     1      -0.780 -11.646   0.140  0.00  0.00    +0.005 C 
ATOM     35  C   UNL     1       0.148 -10.516  -0.316  0.00  0.00    +0.030 C 
ENDBRANCH  29  30
ENDBRANCH  28  29
ENDBRANCH  16  28
TORSDOF 4
