REMARK  Name = ZINC33659084
REMARK  8 active torsions:
REMARK  status: ('A' for Active; 'I' for Inactive)
REMARK    1  A    between atoms: C_1  and  C_2
REMARK    2  A    between atoms: C_2  and  O_4
REMARK    3  A    between atoms: O_4  and  C_5
REMARK    4  A    between atoms: C_8  and  N_11
REMARK    5  A    between atoms: C_27  and  C_33
REMARK    6  A    between atoms: N_35  and  C_36
REMARK    7  A    between atoms: C_39  and  O_42
REMARK    8  A    between atoms: O_42  and  C_43
REMARK                            x       y       z     vdW  Elec       q    Type
REMARK                         _______ _______ _______ _____ _____    ______ ____
ROOT
ATOM      1  N   UNL     1      -1.271  -6.240  -0.171  0.00  0.00    -0.210 N 
ATOM      2  C   UNL     1      -2.407  -6.935  -0.340  0.00  0.00    +0.232 C 
ATOM      3  O   UNL     1      -3.528  -6.473  -0.349  0.00  0.00    -0.274 OA
ATOM      4  C   UNL     1      -2.049  -8.395  -0.519  0.00  0.00    +0.115 C 
ATOM      5  C   UNL     1      -2.899  -9.278   0.392  0.00  0.00    +0.117 C 
ATOM      6  C   UNL     1      -4.265  -8.687   0.625  0.00  0.00    -0.019 A 
ATOM      7  C   UNL     1      -4.914  -7.980  -0.360  0.00  0.00    +0.006 A 
ATOM      8  C   UNL     1      -6.167  -7.443  -0.116  0.00  0.00    +0.000 A 
ATOM      9  C   UNL     1      -6.770  -7.614   1.118  0.00  0.00    +0.001 A 
ATOM     10  C   UNL     1      -6.131  -8.324   2.113  0.00  0.00    +0.008 A 
ATOM     11  C   UNL     1      -4.869  -8.870   1.875  0.00  0.00    -0.019 A 
ATOM     12  C   UNL     1      -4.180  -9.641   2.930  0.00  0.00    +0.023 C 
ATOM     13  C   UNL     1      -2.853  -9.858   2.831  0.00  0.00    +0.072 C 
ATOM     14  N   UNL     1      -2.219  -9.356   1.697  0.00  0.00    -0.316 N 
ATOM     15  C   UNL     1      -0.893  -8.758   1.597  0.00  0.00    +0.172 C 
ATOM     16  C   UNL     1      -0.616  -8.454   0.093  0.00  0.00    +0.119 C 
ATOM     17  C   UNL     1      -0.175  -7.003  -0.038  0.00  0.00    +0.232 C 
ATOM     18  O   UNL     1       0.969  -6.604  -0.022  0.00  0.00    -0.274 OA
ENDROOT
BRANCH   1  22
ATOM     19  C   UNL     1      -1.155  -2.071  -0.085  0.00  0.00    +0.132 A 
ATOM     20  C   UNL     1       0.026  -2.799  -0.055  0.00  0.00    +0.048 A 
ATOM     21  C   UNL     1      -0.012  -4.178  -0.084  0.00  0.00    +0.027 A 
ATOM     22  C   UNL     1      -1.232  -4.838  -0.142  0.00  0.00    +0.044 A 
ATOM     23  C   UNL     1      -2.413  -4.110  -0.171  0.00  0.00    +0.027 A 
ATOM     24  C   UNL     1      -2.375  -2.730  -0.137  0.00  0.00    +0.048 A 
BRANCH  19  25
ATOM     25  O   UNL     1      -1.117  -0.712  -0.057  0.00  0.00    -0.426 OA
BRANCH  25  27
ATOM     26  C   UNL     1      -0.810   1.437  -1.233  0.00  0.00    +0.136 C 
ATOM     27  C   UNL     1      -0.759  -0.069  -1.179  0.00  0.00    +0.309 C 
ATOM     28  O   UNL     1      -0.396  -0.696  -2.146  0.00  0.00    -0.251 OA
ENDBRANCH  25  27
ENDBRANCH  19  25
ENDBRANCH   1  22
BRANCH  15  29
ATOM     29  C   UNL     1      -0.849  -7.479   2.393  0.00  0.00    +0.238 C 
ATOM     30  O   UNL     1      -1.881  -6.923   2.706  0.00  0.00    -0.273 OA
ATOM     31  N   UNL     1       0.337  -6.953   2.758  0.00  0.00    -0.284 N 
ATOM     32  H   UNL     1       1.159  -7.429   2.564  0.00  0.00    +0.155 HD
BRANCH  31  33
ATOM     33  C   UNL     1       0.382  -5.718   3.418  0.00  0.00    +0.034 A 
ATOM     34  C   UNL     1      -0.617  -5.374   4.318  0.00  0.00    +0.027 A 
ATOM     35  C   UNL     1      -0.572  -4.157   4.968  0.00  0.00    +0.047 A 
ATOM     36  C   UNL     1       0.472  -3.277   4.722  0.00  0.00    +0.120 A 
ATOM     37  C   UNL     1       1.471  -3.619   3.822  0.00  0.00    +0.047 A 
ATOM     38  C   UNL     1       1.430  -4.839   3.176  0.00  0.00    +0.027 A 
BRANCH  36  39
ATOM     39  O   UNL     1       0.516  -2.078   5.362  0.00  0.00    -0.495 OA
ATOM     40  C   UNL     1       1.620  -1.222   5.061  0.00  0.00    +0.277 C 
ENDBRANCH  36  39
ENDBRANCH  31  33
ENDBRANCH  15  29
TORSDOF 6
