REMARK  Name = ZINC15946881
REMARK  13 active torsions:
REMARK  status: ('A' for Active; 'I' for Inactive)
REMARK    1  A    between atoms: C_1  and  C_2
REMARK    2  A    between atoms: C_2  and  C_3
REMARK    3  A    between atoms: C_2  and  N_64
REMARK    4  A    between atoms: C_4  and  C_5
REMARK    5  A    between atoms: C_4  and  N_64
REMARK    6  A    between atoms: N_7  and  C_8
REMARK    7  A    between atoms: C_9  and  C_22
REMARK    8  A    between atoms: C_14  and  C_18
REMARK    9  A    between atoms: C_18  and  C_19
REMARK   10  A    between atoms: C_18  and  C_20
REMARK   11  A    between atoms: C_18  and  C_21
REMARK   12  A    between atoms: N_24  and  C_25
REMARK   13  A    between atoms: C_29  and  N_31
REMARK                            x       y       z     vdW  Elec       q    Type
REMARK                         _______ _______ _______ _____ _____    ______ ____
ROOT
ATOM      1  C   UNL     1      -1.303   8.162   0.973  0.00  0.00    +0.084 A 
ATOM      2  C   UNL     1      -1.256   7.362  -0.160  0.00  0.00    +0.069 A 
ATOM      3  C   UNL     1      -1.214   8.027  -1.451  0.00  0.00    -0.023 A 
ATOM      4  C   UNL     1      -1.237   9.376  -1.404  0.00  0.00    -0.004 A 
ATOM      5  S   UNL     1      -1.300   9.768   0.322  0.00  0.00    -0.077 S 
ATOM      6  C   UNL     1      -1.208  10.321  -2.565  0.00  0.00    +0.046 C 
ATOM      7  C   UNL     1      -0.778   9.538  -3.815  0.00  0.00    -0.000 C 
ATOM      8  C   UNL     1      -1.599   8.248  -3.894  0.00  0.00    +0.009 C 
ATOM      9  C   UNL     1      -1.168   7.288  -2.783  0.00  0.00    +0.037 C 
ENDROOT
BRANCH   1  12
ATOM     10  C   UNL     1      -1.387   8.703   3.277  0.00  0.00    +0.201 C 
ATOM     11  O   UNL     1      -1.391   9.881   2.990  0.00  0.00    -0.278 OA
ATOM     12  N   UNL     1      -1.344   7.772   2.303  0.00  0.00    -0.281 N 
ATOM     13  H   UNL     1      -1.341   6.830   2.532  0.00  0.00    +0.155 HD
BRANCH  10  14
ATOM     14  C   UNL     1      -1.432   8.279   4.723  0.00  0.00    +0.015 C 
BRANCH  14  15
ATOM     15  N   UNL     1      -1.474   9.480   5.577  0.00  0.00    +0.386 N 
ATOM     16  H   UNL     1      -0.636  10.048   5.406  0.00  0.00    -0.085 HD
ATOM     17  H   UNL     1      -2.311  10.029   5.349  0.00  0.00    -0.085 HD
BRANCH  15  19
ATOM     18  C   UNL     1      -0.950  10.235   7.848  0.00  0.00    -0.014 C 
ATOM     19  C   UNL     1      -1.518   9.095   7.001  0.00  0.00    -0.078 C 
ATOM     20  C   UNL     1      -2.967   8.827   7.412  0.00  0.00    -0.014 C 
ENDBRANCH  15  19
ENDBRANCH  14  15
ENDBRANCH  10  14
ENDBRANCH   1  12
BRANCH   7  21
ATOM     21  C   UNL     1      -1.033  10.386  -5.063  0.00  0.00    -0.035 C 
ATOM     22  C   UNL     1      -0.226  11.682  -4.973  0.00  0.00    +0.011 C 
ATOM     23  C   UNL     1      -0.605   9.603  -6.306  0.00  0.00    +0.011 C 
ATOM     24  C   UNL     1      -2.524  10.718  -5.159  0.00  0.00    +0.011 C 
ENDBRANCH   7  21
BRANCH   2  25
ATOM     25  C   UNL     1      -1.242   5.899  -0.057  0.00  0.00    +0.251 C 
ATOM     26  O   UNL     1      -2.290   5.280  -0.050  0.00  0.00    -0.270 OA
ATOM     27  N   UNL     1      -0.069   5.241   0.030  0.00  0.00    -0.281 N 
ATOM     28  H   UNL     1       0.761   5.737   0.102  0.00  0.00    +0.155 HD
BRANCH  27  29
ATOM     29  C   UNL     1      -0.050   3.842   0.017  0.00  0.00    +0.036 A 
ATOM     30  C   UNL     1      -0.988   3.140  -0.728  0.00  0.00    +0.023 A 
ATOM     31  C   UNL     1      -0.963   1.760  -0.743  0.00  0.00    +0.004 A 
ATOM     32  C   UNL     1      -0.011   1.076  -0.009  0.00  0.00    +0.033 A 
ATOM     33  C   UNL     1       0.925   1.772   0.734  0.00  0.00    +0.128 A 
ATOM     34  C   UNL     1       0.908   3.153   0.749  0.00  0.00    +0.056 A 
BRANCH  33  35
ATOM     35  N   UNL     1       1.946   1.036   1.513  0.00  0.00    +0.056 N 
ATOM     36  O   UNL     1       1.962  -0.182   1.500  0.00  0.00    -0.126 OA
ATOM     37  O   UNL     1       2.771   1.649   2.167  0.00  0.00    -0.126 OA
ENDBRANCH  33  35
ENDBRANCH  27  29
ENDBRANCH   2  25
TORSDOF 8
