REMARK  Name = ZINC21775404
REMARK  8 active torsions:
REMARK  status: ('A' for Active; 'I' for Inactive)
REMARK    1  A    between atoms: C_1  and  N_2
REMARK    2  A    between atoms: N_5  and  C_8
REMARK    3  A    between atoms: C_8  and  C_10
REMARK    4  A    between atoms: C_8  and  C_25
REMARK    5  A    between atoms: C_10  and  N_11
REMARK    6  A    between atoms: N_11  and  S_12
REMARK    7  A    between atoms: S_12  and  C_15
REMARK    8  A    between atoms: N_34  and  C_35
REMARK                            x       y       z     vdW  Elec       q    Type
REMARK                         _______ _______ _______ _____ _____    ______ ____
ROOT
ATOM      1  C   UNL     1      -1.686   3.591  -2.969  0.00  0.00    +0.102 C 
ENDROOT
BRANCH   1   2
ATOM      2  C   UNL     1      -1.929   5.060  -3.198  0.00  0.00    -0.029 A 
ATOM      3  C   UNL     1      -3.085   5.654  -2.725  0.00  0.00    +0.007 A 
ATOM      4  C   UNL     1      -3.306   6.997  -2.939  0.00  0.00    +0.024 A 
ATOM      5  C   UNL     1      -2.369   7.766  -3.631  0.00  0.00    +0.033 A 
ATOM      6  C   UNL     1      -1.212   7.169  -4.097  0.00  0.00    -0.026 A 
ATOM      7  C   UNL     1      -0.995   5.818  -3.876  0.00  0.00    +0.010 A 
ATOM      8  C   UNL     1      -0.152   7.947  -4.836  0.00  0.00    +0.038 C 
ATOM      9  C   UNL     1      -0.731   9.283  -5.308  0.00  0.00    +0.024 C 
ATOM     10  C   UNL     1      -1.473   9.921  -4.127  0.00  0.00    +0.105 C 
ATOM     11  N   UNL     1      -2.659   9.116  -3.829  0.00  0.00    -0.333 N 
ATOM     12  C   UNL     1      -3.397   9.669  -2.685  0.00  0.00    +0.129 C 
ENDBRANCH   1   2
BRANCH   1  17
ATOM     13  C   UNL     1      -5.888   0.132  -4.481  0.00  0.00    -0.096 C 
ATOM     14  N   UNL     1      -4.631   0.870  -4.301  0.00  0.00    +0.379 N 
ATOM     15  C   UNL     1      -4.799   2.289  -4.643  0.00  0.00    -0.064 C 
ATOM     16  C   UNL     1      -3.452   3.005  -4.519  0.00  0.00    +0.066 C 
ATOM     17  N   UNL     1      -2.944   2.853  -3.149  0.00  0.00    -0.298 NA
ATOM     18  C   UNL     1      -2.775   1.434  -2.807  0.00  0.00    +0.066 C 
ATOM     19  C   UNL     1      -4.122   0.718  -2.931  0.00  0.00    -0.064 C 
ATOM     20  H   UNL     1      -3.887   0.441  -4.989  0.00  0.00    -0.082 HD
ENDBRANCH   1  17
BRANCH   1  21
ATOM     21  C   UNL     1      -1.168   3.376  -1.546  0.00  0.00    +0.129 C 
BRANCH  21  22
ATOM     22  N   UNL     1       0.114   4.066  -1.383  0.00  0.00    -0.188 NA
ATOM     23  H   UNL     1       0.745   4.267  -2.261  0.00  0.00    +0.148 HD
BRANCH  22  24
ATOM     24  S   UNL     1       0.731   4.322   0.132  0.00  0.00    +0.058 S 
ATOM     25  O   UNL     1       1.978   4.980  -0.042  0.00  0.00    -0.153 OA
ATOM     26  O   UNL     1      -0.321   4.877   0.910  0.00  0.00    -0.153 OA
BRANCH  24  27
ATOM     27  C   UNL     1       1.088   2.741   0.823  0.00  0.00    +0.106 A 
ATOM     28  C   UNL     1       0.126   2.071   1.558  0.00  0.00    +0.029 A 
ATOM     29  C   UNL     1       0.412   0.832   2.092  0.00  0.00    +0.006 A 
ATOM     30  C   UNL     1       1.663   0.256   1.909  0.00  0.00    -0.044 A 
ATOM     31  C   UNL     1       2.621   0.924   1.181  0.00  0.00    -0.042 A 
ATOM     32  C   UNL     1       2.329   2.169   0.638  0.00  0.00    +0.032 A 
ATOM     33  C   UNL     1       3.994   0.356   0.934  0.00  0.00    +0.035 C 
ATOM     34  C   UNL     1       4.296  -0.768   1.923  0.00  0.00    +0.005 C 
ATOM     35  C   UNL     1       3.128  -1.762   1.897  0.00  0.00    +0.005 C 
ATOM     36  C   UNL     1       1.912  -1.092   2.533  0.00  0.00    +0.035 C 
ENDBRANCH  24  27
ENDBRANCH  22  24
ENDBRANCH  21  22
ENDBRANCH   1  21
TORSDOF 6
