REMARK  Name = ZINC10337139
REMARK  4 active torsions:
REMARK  status: ('A' for Active; 'I' for Inactive)
REMARK    1  A    between atoms: C_1  and  O_2
REMARK    2  A    between atoms: O_2  and  C_3
REMARK    3  A    between atoms: C_6  and  C_9
REMARK    4  A    between atoms: C_27  and  C_29
REMARK                            x       y       z     vdW  Elec       q    Type
REMARK                         _______ _______ _______ _____ _____    ______ ____
ROOT
ATOM      1  C   UNL     1      -4.981  -2.629   0.035  0.00  0.00    +0.234 C 
ATOM      2  C   UNL     1      -5.320  -3.068  -1.359  0.00  0.00    +0.027 C 
ATOM      3  C   UNL     1      -4.939  -4.281  -1.810  0.00  0.00    +0.083 C 
ATOM      4  C   UNL     1      -4.189  -5.155  -0.873  0.00  0.00    +0.044 A 
ATOM      5  C   UNL     1      -3.480  -6.260  -1.322  0.00  0.00    +0.033 A 
ATOM      6  C   UNL     1      -2.794  -7.046  -0.414  0.00  0.00    +0.042 A 
ATOM      7  C   UNL     1      -2.814  -6.732   0.934  0.00  0.00    +0.023 A 
ATOM      8  C   UNL     1      -3.518  -5.632   1.388  0.00  0.00    +0.048 A 
ATOM      9  C   UNL     1      -4.210  -4.838   0.491  0.00  0.00    +0.131 A 
ATOM     10  O   UNL     1      -4.914  -3.759   0.907  0.00  0.00    -0.479 OA
ATOM     11 CL   UNL     1      -1.905  -8.432  -0.967  0.00  0.00    -0.084 Cl
ATOM     12  N   UNL     1      -5.229  -4.693  -3.070  0.00  0.00    -0.213 NA
ATOM     13  C   UNL     1      -5.894  -3.980  -3.941  0.00  0.00    +0.232 C 
ATOM     14  N   UNL     1      -6.284  -4.206  -5.226  0.00  0.00    -0.231 N 
ATOM     15  N   UNL     1      -6.929  -3.187  -5.670  0.00  0.00    -0.086 NA
ATOM     16  N   UNL     1      -7.015  -2.260  -4.778  0.00  0.00    -0.165 N 
ATOM     17  N   UNL     1      -6.361  -2.716  -3.634  0.00  0.00    -0.193 N 
ATOM     18  C   UNL     1      -6.096  -2.170  -2.299  0.00  0.00    +0.162 C 
ATOM     19  H   UNL     1      -7.455  -1.401  -4.883  0.00  0.00    +0.195 HD
ATOM     20  H   UNL     1      -6.103  -5.014  -5.730  0.00  0.00    +0.193 HD
ENDROOT
BRANCH   1  24
ATOM     21  C   UNL     1      -1.200  -0.637   0.010  0.00  0.00    +0.120 A 
ATOM     22  C   UNL     1      -2.375   0.101   0.019  0.00  0.00    +0.046 A 
ATOM     23  C   UNL     1      -3.596  -0.545   0.027  0.00  0.00    +0.011 A 
ATOM     24  C   UNL     1      -3.648  -1.927   0.026  0.00  0.00    -0.003 A 
ATOM     25  C   UNL     1      -2.479  -2.665   0.017  0.00  0.00    +0.011 A 
ATOM     26  C   UNL     1      -1.255  -2.024   0.003  0.00  0.00    +0.046 A 
BRANCH  21  28
ATOM     27  C   UNL     1      -0.017   1.425   0.010  0.00  0.00    +0.277 C 
ATOM     28  O   UNL     1       0.002  -0.004   0.002  0.00  0.00    -0.495 OA
ENDBRANCH  21  28
ENDBRANCH   1  24
BRANCH  18  29
ATOM     29  C   UNL     1      -7.418  -1.844  -1.653  0.00  0.00    -0.003 A 
ATOM     30  C   UNL     1      -7.607  -0.628  -1.014  0.00  0.00    +0.009 A 
ATOM     31  C   UNL     1      -8.839  -0.371  -0.434  0.00  0.00    +0.020 A 
ATOM     32  C   UNL     1      -9.833  -1.329  -0.512  0.00  0.00    +0.111 A 
ATOM     33  N   UNL     1      -9.618  -2.475  -1.127  0.00  0.00    -0.263 NA
ATOM     34  C   UNL     1      -8.460  -2.751  -1.695  0.00  0.00    +0.116 A 
ENDBRANCH  18  29
TORSDOF 3
