REMARK  Name = ZINC12228651
REMARK  7 active torsions:
REMARK  status: ('A' for Active; 'I' for Inactive)
REMARK    1  A    between atoms: C_1  and  C_2
REMARK    2  A    between atoms: C_5  and  N_9
REMARK    3  A    between atoms: C_6  and  C_8
REMARK    4  A    between atoms: C_14  and  C_31
REMARK    5  A    between atoms: N_16  and  C_19
REMARK    6  A    between atoms: C_19  and  C_20
REMARK    7  A    between atoms: N_22  and  C_23
REMARK                            x       y       z     vdW  Elec       q    Type
REMARK                         _______ _______ _______ _____ _____    ______ ____
ROOT
ATOM      1  N   UNL     1      -0.167  -0.113  -2.501  0.00  0.00    -0.226 N 
ATOM      2  C   UNL     1      -0.365  -0.729  -3.704  0.00  0.00    +0.142 A 
ATOM      3  C   UNL     1      -0.420   0.283  -4.673  0.00  0.00    +0.048 A 
ATOM      4  C   UNL     1      -0.240   1.508  -4.003  0.00  0.00    +0.145 A 
ATOM      5  N   UNL     1      -0.092   1.268  -2.728  0.00  0.00    -0.173 NA
ATOM      6  C   UNL     1      -0.630  -0.091  -6.070  0.00  0.00    +0.069 A 
ATOM      7  N   UNL     1      -0.766  -1.348  -6.384  0.00  0.00    -0.172 NA
ATOM      8  N   UNL     1      -0.716  -2.354  -5.417  0.00  0.00    -0.219 N 
ATOM      9  C   UNL     1      -0.524  -2.072  -4.113  0.00  0.00    +0.294 A 
ATOM     10  O   UNL     1      -0.484  -2.972  -3.291  0.00  0.00    -0.264 OA
ATOM     11  C   UNL     1      -0.690   0.969  -7.139  0.00  0.00    +0.068 C 
ENDROOT
BRANCH   1  16
ATOM     12  C   UNL     1       0.286  -2.702   2.527  0.00  0.00    +0.044 C 
ATOM     13  C   UNL     1       0.168  -2.012   1.193  0.00  0.00    -0.050 A 
ATOM     14  C   UNL     1       0.928  -2.447   0.122  0.00  0.00    +0.005 A 
ATOM     15  C   UNL     1       0.823  -1.817  -1.102  0.00  0.00    +0.028 A 
ATOM     16  C   UNL     1      -0.053  -0.750  -1.259  0.00  0.00    +0.069 A 
ATOM     17  C   UNL     1      -0.810  -0.312  -0.181  0.00  0.00    -0.025 A 
ATOM     18  C   UNL     1      -0.699  -0.946   1.041  0.00  0.00    +0.008 A 
ATOM     19  C   UNL     1      -1.756   0.850  -0.345  0.00  0.00    +0.046 C 
ENDBRANCH   1  16
BRANCH   8  20
ATOM     20  C   UNL     1      -0.875  -3.751  -5.829  0.00  0.00    +0.243 C 
BRANCH  20  21
ATOM     21  C   UNL     1      -2.335  -4.124  -5.788  0.00  0.00    +0.239 C 
ATOM     22  O   UNL     1      -3.161  -3.304  -5.447  0.00  0.00    -0.273 OA
ATOM     23  N   UNL     1      -2.722  -5.369  -6.129  0.00  0.00    -0.282 N 
ATOM     24  H   UNL     1      -2.057  -6.048  -6.324  0.00  0.00    +0.155 HD
BRANCH  23  25
ATOM     25  C   UNL     1      -4.086  -5.683  -6.203  0.00  0.00    +0.069 A 
ATOM     26  C   UNL     1      -5.018  -4.682  -6.439  0.00  0.00    +0.029 A 
ATOM     27  C   UNL     1      -6.362  -4.993  -6.511  0.00  0.00    +0.040 A 
ATOM     28  C   UNL     1      -6.781  -6.303  -6.348  0.00  0.00    +0.126 A 
ATOM     29  C   UNL     1      -5.854  -7.304  -6.112  0.00  0.00    +0.078 A 
ATOM     30  C   UNL     1      -4.507  -6.998  -6.045  0.00  0.00    +0.147 A 
ATOM     31  F   UNL     1      -3.602  -7.976  -5.821  0.00  0.00    -0.203 F 
ATOM     32  F   UNL     1      -8.096  -6.604  -6.419  0.00  0.00    -0.205 F 
ENDBRANCH  23  25
ENDBRANCH  20  21
ENDBRANCH   8  20
TORSDOF 4
