REMARK  Name = ZINC09173477
REMARK  5 active torsions:
REMARK  status: ('A' for Active; 'I' for Inactive)
REMARK    1  A    between atoms: C_1  and  C_2
REMARK    2  A    between atoms: C_2  and  C_28
REMARK    3  A    between atoms: C_8  and  N_14
REMARK    4  A    between atoms: N_14  and  S_15
REMARK    5  A    between atoms: S_15  and  C_18
REMARK                            x       y       z     vdW  Elec       q    Type
REMARK                         _______ _______ _______ _____ _____    ______ ____
ROOT
ATOM      1  C   UNL     1       0.002  -0.004   0.002  0.00  0.00    +0.024 C 
ATOM      2  C   UNL     1      -0.019   1.526   0.010  0.00  0.00    +0.076 C 
ATOM      3  C   UNL     1      -0.315   2.021   1.425  0.00  0.00    +0.244 C 
ATOM      4  O   UNL     1      -1.695   1.866   1.730  0.00  0.00    -0.489 OA
ATOM      5  C   UNL     1      -2.284   0.694   1.369  0.00  0.00    +0.142 A 
ATOM      6  C   UNL     1      -2.570  -0.269   2.321  0.00  0.00    +0.049 A 
ATOM      7  C   UNL     1      -3.161  -1.461   1.943  0.00  0.00    +0.028 A 
ATOM      8  C   UNL     1      -3.470  -1.695   0.610  0.00  0.00    +0.050 A 
ATOM      9  C   UNL     1      -3.186  -0.732  -0.349  0.00  0.00    +0.051 A 
ATOM     10  C   UNL     1      -2.596   0.463   0.030  0.00  0.00    +0.077 A 
ATOM     11  N   UNL     1      -2.308   1.450  -0.922  0.00  0.00    -0.282 N 
ATOM     12  C   UNL     1      -1.081   2.016  -0.939  0.00  0.00    +0.226 C 
ATOM     13  O   UNL     1      -0.836   2.916  -1.716  0.00  0.00    -0.275 OA
ATOM     14  C   UNL     1       1.346   2.054  -0.437  0.00  0.00    +0.024 C 
ATOM     15  H   UNL     1      -2.982   1.724  -1.563  0.00  0.00    +0.155 HD
ENDROOT
BRANCH   8  16
ATOM     16  N   UNL     1      -4.066  -2.904   0.232  0.00  0.00    -0.216 N 
ATOM     17  H   UNL     1      -3.742  -3.382  -0.548  0.00  0.00    +0.174 HD
BRANCH  16  18
ATOM     18  S   UNL     1      -5.326  -3.517   1.115  0.00  0.00    +0.072 S 
ATOM     19  O   UNL     1      -5.724  -4.720   0.472  0.00  0.00    -0.150 OA
ATOM     20  O   UNL     1      -4.924  -3.478   2.477  0.00  0.00    -0.150 OA
BRANCH  18  21
ATOM     21  C   UNL     1      -6.671  -2.391   0.955  0.00  0.00    +0.109 A 
ATOM     22  C   UNL     1      -6.820  -1.354   1.858  0.00  0.00    +0.029 A 
ATOM     23  C   UNL     1      -7.874  -0.475   1.724  0.00  0.00    +0.006 A 
ATOM     24  C   UNL     1      -8.795  -0.628   0.696  0.00  0.00    -0.044 A 
ATOM     25  C   UNL     1      -8.649  -1.661  -0.202  0.00  0.00    -0.042 A 
ATOM     26  C   UNL     1      -7.584  -2.543  -0.069  0.00  0.00    +0.032 A 
ATOM     27  C   UNL     1      -9.603  -1.882  -1.347  0.00  0.00    +0.035 C 
ATOM     28  C   UNL     1     -10.911  -1.131  -1.108  0.00  0.00    +0.005 C 
ATOM     29  C   UNL     1     -10.576   0.326  -0.766  0.00  0.00    +0.005 C 
ATOM     30  C   UNL     1      -9.929   0.360   0.617  0.00  0.00    +0.035 C 
ENDBRANCH  18  21
ENDBRANCH  16  18
ENDBRANCH   8  16
TORSDOF 3
