REMARK  Name = ZINC62822413
REMARK  4 active torsions:
REMARK  status: ('A' for Active; 'I' for Inactive)
REMARK    1  A    between atoms: C_1  and  C_2
REMARK    2  A    between atoms: C_5  and  N_9
REMARK    3  A    between atoms: C_10  and  C_12
REMARK    4  A    between atoms: C_17  and  N_18
REMARK                            x       y       z     vdW  Elec       q    Type
REMARK                         _______ _______ _______ _____ _____    ______ ____
ROOT
ATOM      1  N   UNL     1       0.000  -4.178  -0.005  0.00  0.00    -0.280 N 
ATOM      2  C   UNL     1       0.444  -4.848   1.076  0.00  0.00    +0.250 C 
ATOM      3  O   UNL     1       0.731  -4.243   2.092  0.00  0.00    -0.270 OA
ATOM      4  H   UNL     1      -0.277  -4.664  -0.797  0.00  0.00    +0.155 HD
ENDROOT
BRANCH   1   9
ATOM      5  C   UNL     1      -0.248   1.491   0.074  0.00  0.00    +0.044 C 
ATOM      6  C   UNL     1      -0.182  -0.015   0.053  0.00  0.00    -0.048 A 
ATOM      7  C   UNL     1       0.939  -0.663   0.538  0.00  0.00    +0.020 A 
ATOM      8  C   UNL     1       1.003  -2.043   0.520  0.00  0.00    +0.040 A 
ATOM      9  C   UNL     1      -0.061  -2.780   0.015  0.00  0.00    +0.062 A 
ATOM     10  C   UNL     1      -1.187  -2.125  -0.471  0.00  0.00    +0.040 A 
ATOM     11  C   UNL     1      -1.246  -0.745  -0.445  0.00  0.00    +0.020 A 
ATOM     12 BR   UNL     1      -2.638  -3.122  -1.160  0.00  0.00    -0.048 Br
ATOM     13 BR   UNL     1       2.537  -2.928   1.182  0.00  0.00    -0.048 Br
ENDBRANCH   1   9
BRANCH   2  14
ATOM     14  C   UNL     1       0.582  -6.314   1.029  0.00  0.00    +0.058 A 
ATOM     15  C   UNL     1       0.373  -7.001  -0.171  0.00  0.00    +0.018 A 
ATOM     16  C   UNL     1       0.503  -8.371  -0.210  0.00  0.00    +0.039 A 
ATOM     17  C   UNL     1       0.841  -9.076   0.938  0.00  0.00    +0.125 A 
ATOM     18  C   UNL     1       1.050  -8.410   2.131  0.00  0.00    +0.061 A 
ATOM     19  C   UNL     1       0.929  -7.028   2.187  0.00  0.00    +0.040 A 
ATOM     20  F   UNL     1       0.966 -10.420   0.888  0.00  0.00    -0.205 F 
BRANCH  19  21
ATOM     21  N   UNL     1       1.145  -6.356   3.383  0.00  0.00    -0.357 N 
ATOM     22  H   UNL     1       1.137  -5.386   3.403  0.00  0.00    +0.142 HD
ATOM     23  H   UNL     1       1.304  -6.857   4.199  0.00  0.00    +0.142 HD
ENDBRANCH  19  21
ENDBRANCH   2  14
TORSDOF 3
