REMARK  Name = ZINC11834908
REMARK  5 active torsions:
REMARK  status: ('A' for Active; 'I' for Inactive)
REMARK    1  A    between atoms: C_6  and  C_7
REMARK    2  A    between atoms: C_12  and  C_15
REMARK    3  A    between atoms: C_15  and  C_16
REMARK    4  A    between atoms: C_16  and  C_17
REMARK    5  A    between atoms: N_19  and  C_20
REMARK                            x       y       z     vdW  Elec       q    Type
REMARK                         _______ _______ _______ _____ _____    ______ ____
ROOT
ATOM      1  C   UNL     1      12.887  -2.938   5.050  0.00  0.00    +0.250 C 
ATOM      2  O   UNL     1      12.771  -3.272   6.213  0.00  0.00    -0.270 OA
ATOM      3  N   UNL     1      11.794  -2.821   4.270  0.00  0.00    -0.261 N 
ATOM      4  C   UNL     1      10.535  -3.083   4.796  0.00  0.00    +0.165 A 
ATOM      5  N   UNL     1       9.360  -3.025   4.200  0.00  0.00    -0.230 NA
ATOM      6  C   UNL     1       8.249  -3.309   4.851  0.00  0.00    +0.051 A 
ATOM      7  C   UNL     1       8.338  -3.659   6.158  0.00  0.00    +0.071 A 
ATOM      8  S   UNL     1      10.105  -3.571   6.406  0.00  0.00    -0.060 S 
ATOM      9  H   UNL     1      11.886  -2.555   3.342  0.00  0.00    +0.157 HD
ENDROOT
BRANCH   1  15
ATOM     10  C   UNL     1      14.362  -2.281   3.153  0.00  0.00    +0.016 A 
ATOM     11  C   UNL     1      15.613  -2.018   2.638  0.00  0.00    +0.039 A 
ATOM     12  C   UNL     1      16.736  -2.138   3.442  0.00  0.00    +0.123 A 
ATOM     13  C   UNL     1      16.607  -2.519   4.769  0.00  0.00    +0.039 A 
ATOM     14  C   UNL     1      15.360  -2.779   5.296  0.00  0.00    +0.016 A 
ATOM     15  C   UNL     1      14.225  -2.659   4.491  0.00  0.00    +0.037 A 
ATOM     16  F   UNL     1      17.960  -1.883   2.931  0.00  0.00    -0.205 F 
ENDBRANCH   1  15
BRANCH   6  17
ATOM     17  C   UNL     1       6.911  -3.240   4.161  0.00  0.00    +0.065 C 
BRANCH  17  18
ATOM     18  C   UNL     1       6.728  -1.853   3.541  0.00  0.00    +0.102 C 
BRANCH  18  19
ATOM     19  C   UNL     1       5.391  -1.783   2.851  0.00  0.00    +0.218 C 
ATOM     20  O   UNL     1       4.656  -2.748   2.854  0.00  0.00    -0.275 OA
ATOM     21  N   UNL     1       5.011  -0.649   2.229  0.00  0.00    -0.285 N 
ATOM     22  H   UNL     1       5.628   0.096   2.160  0.00  0.00    +0.155 HD
BRANCH  21  23
ATOM     23  C   UNL     1       3.725  -0.547   1.683  0.00  0.00    +0.037 A 
ATOM     24  C   UNL     1       2.657  -1.191   2.295  0.00  0.00    +0.027 A 
ATOM     25  C   UNL     1       1.388  -1.090   1.758  0.00  0.00    +0.051 A 
ATOM     26  C   UNL     1       1.177  -0.347   0.608  0.00  0.00    +0.166 A 
ATOM     27  C   UNL     1       2.246   0.301  -0.008  0.00  0.00    +0.168 A 
ATOM     28  C   UNL     1       3.517   0.199   0.531  0.00  0.00    +0.072 A 
ATOM     29  O   UNL     1       1.781   0.958  -1.110  0.00  0.00    -0.453 OA
ATOM     30  C   UNL     1       0.354   1.044  -0.934  0.00  0.00    +0.466 C 
ATOM     31  O   UNL     1       0.042  -0.094  -0.110  0.00  0.00    -0.453 OA
ENDBRANCH  21  23
ENDBRANCH  18  19
ENDBRANCH  17  18
ENDBRANCH   6  17
TORSDOF 5
