REMARK  Name = ZINC65965219
REMARK  5 active torsions:
REMARK  status: ('A' for Active; 'I' for Inactive)
REMARK    1  A    between atoms: C_6  and  N_7
REMARK    2  A    between atoms: C_8  and  C_10
REMARK    3  A    between atoms: C_10  and  N_11
REMARK    4  A    between atoms: C_14  and  C_17
REMARK    5  A    between atoms: N_19  and  C_20
REMARK                            x       y       z     vdW  Elec       q    Type
REMARK                         _______ _______ _______ _____ _____    ______ ____
ROOT
ATOM      1  N   UNL     1      -2.195  -4.265  -0.312  0.00  0.00    +0.385 N 
ATOM      2  C   UNL     1      -1.559  -4.730   0.927  0.00  0.00    -0.077 C 
ATOM      3  C   UNL     1      -1.186  -6.208   0.789  0.00  0.00    -0.006 C 
ATOM      4  C   UNL     1      -2.454  -7.026   0.525  0.00  0.00    +0.071 C 
ATOM      5  C   UNL     1      -3.148  -6.483  -0.728  0.00  0.00    -0.006 C 
ATOM      6  C   UNL     1      -3.448  -4.995  -0.534  0.00  0.00    -0.077 C 
ATOM      7  H   UNL     1      -1.571  -4.425  -1.088  0.00  0.00    -0.081 HD
ENDROOT
BRANCH   4   8
ATOM      8  C   UNL     1      -2.085  -8.471   0.311  0.00  0.00    +0.216 C 
ATOM      9  O   UNL     1      -0.923  -8.815   0.364  0.00  0.00    -0.276 OA
ATOM     10  N   UNL     1      -3.046  -9.382   0.060  0.00  0.00    -0.312 N 
ATOM     11  H   UNL     1      -3.975  -9.107   0.018  0.00  0.00    +0.149 HD
BRANCH  10  12
ATOM     12  C   UNL     1      -2.688 -10.787  -0.148  0.00  0.00    +0.073 C 
ATOM     13  C   UNL     1      -2.305 -11.004  -1.614  0.00  0.00    +0.022 C 
ATOM     14  C   UNL     1      -1.931 -12.471  -1.831  0.00  0.00    +0.002 C 
ATOM     15  C   UNL     1      -3.125 -13.360  -1.479  0.00  0.00    +0.000 C 
ATOM     16  C   UNL     1      -3.508 -13.143  -0.014  0.00  0.00    +0.002 C 
ATOM     17  C   UNL     1      -3.882 -11.676   0.204  0.00  0.00    +0.022 C 
ENDBRANCH  10  12
ENDBRANCH   4   8
BRANCH   1  18
ATOM     18  C   UNL     1      -2.480  -2.828  -0.204  0.00  0.00    +0.019 C 
BRANCH  18  20
ATOM     19  N   UNL     1      -1.200  -0.722   0.010  0.00  0.00    -0.287 N 
ATOM     20  C   UNL     1      -1.185  -2.065  -0.099  0.00  0.00    +0.201 C 
ATOM     21  O   UNL     1      -0.128  -2.660  -0.113  0.00  0.00    -0.278 OA
ATOM     22  H   UNL     1      -2.045  -0.252   0.098  0.00  0.00    +0.155 HD
BRANCH  19  28
ATOM     23  C   UNL     1       1.071  -0.454  -0.766  0.00  0.00    +0.026 A 
ATOM     24  C   UNL     1       2.256   0.256  -0.779  0.00  0.00    +0.041 A 
ATOM     25  C   UNL     1       2.379   1.415  -0.033  0.00  0.00    +0.142 A 
ATOM     26  C   UNL     1       1.313   1.867   0.729  0.00  0.00    +0.078 A 
ATOM     27  C   UNL     1       0.126   1.159   0.745  0.00  0.00    +0.046 A 
ATOM     28  C   UNL     1       0.002  -0.004  -0.004  0.00  0.00    +0.035 A 
ATOM     29 CL   UNL     1       1.469   3.321   1.665  0.00  0.00    -0.081 Cl
ATOM     30  F   UNL     1       3.539   2.107  -0.047  0.00  0.00    -0.204 F 
ENDBRANCH  19  28
ENDBRANCH  18  20
ENDBRANCH   1  18
TORSDOF 5
