REMARK  Name = ZINC20835051
REMARK  13 active torsions:
REMARK  status: ('A' for Active; 'I' for Inactive)
REMARK    1  A    between atoms: C_1  and  C_2
REMARK    2  A    between atoms: C_5  and  C_30
REMARK    3  A    between atoms: C_6  and  N_8
REMARK    4  A    between atoms: N_8  and  C_9
REMARK    5  A    between atoms: C_9  and  N_11
REMARK    6  A    between atoms: N_11  and  N_12
REMARK    7  A    between atoms: C_13  and  C_15
REMARK    8  A    between atoms: N_17  and  N_18
REMARK    9  A    between atoms: N_18  and  C_19
REMARK   10  A    between atoms: C_19  and  N_21
REMARK   11  A    between atoms: N_21  and  C_22
REMARK   12  A    between atoms: C_24  and  C_29
REMARK   13  A    between atoms: C_27  and  C_28
REMARK                            x       y       z     vdW  Elec       q    Type
REMARK                         _______ _______ _______ _____ _____    ______ ____
ROOT
ATOM      1  N   UNL     1       4.713   5.312   0.043  0.00  0.00    -0.227 N 
ATOM      2  C   UNL     1       5.878   5.981  -0.070  0.00  0.00    +0.316 C 
ATOM      3  O   UNL     1       5.896   7.189   0.034  0.00  0.00    -0.264 OA
ATOM      4  H   UNL     1       4.697   4.216  -0.051  0.00  0.00    +0.173 HD
ENDROOT
BRANCH   2   5
ATOM      5  C   UNL     1       7.147   5.233  -0.325  0.00  0.00    +0.316 C 
ATOM      6  O   UNL     1       7.129   4.024  -0.429  0.00  0.00    -0.264 OA
ATOM      7  N   UNL     1       8.311   5.902  -0.438  0.00  0.00    -0.227 N 
ATOM      8  H   UNL     1       8.328   6.998  -0.343  0.00  0.00    +0.173 HD
BRANCH   7   9
ATOM      9  N   UNL     1       9.501   5.202  -0.676  0.00  0.00    -0.245 N 
ATOM     10  H   UNL     1       9.485   4.106  -0.770  0.00  0.00    +0.172 HD
BRANCH   9  11
ATOM     11  C   UNL     1      10.666   5.871  -0.790  0.00  0.00    +0.151 C 
ATOM     12  S   UNL     1      12.120   5.015  -1.081  0.00  0.00    -0.017 S 
BRANCH  11  13
ATOM     13  N   UNL     1      10.686   7.213  -0.674  0.00  0.00    -0.296 N 
ATOM     14  H   UNL     1       9.767   7.756  -0.408  0.00  0.00    +0.154 HD
BRANCH  13  15
ATOM     15  C   UNL     1      11.875   7.917  -0.892  0.00  0.00    +0.036 A 
ATOM     16  C   UNL     1      13.063   7.467  -0.329  0.00  0.00    +0.027 A 
ATOM     17  C   UNL     1      14.236   8.161  -0.551  0.00  0.00    -0.049 A 
ATOM     18  C   UNL     1      14.227   9.308  -1.324  0.00  0.00    +0.004 A 
ATOM     19  C   UNL     1      13.046   9.761  -1.881  0.00  0.00    +0.005 A 
ATOM     20  C   UNL     1      11.870   9.069  -1.668  0.00  0.00    -0.029 A 
ATOM     21  C   UNL     1      10.583   9.562  -2.276  0.00  0.00    +0.045 C 
ATOM     22  C   UNL     1      15.526   7.671   0.055  0.00  0.00    +0.044 C 
ENDBRANCH  13  15
ENDBRANCH  11  13
ENDBRANCH   9  11
ENDBRANCH   7   9
ENDBRANCH   2   5
BRANCH   1  23
ATOM     23  N   UNL     1       3.523   6.012   0.281  0.00  0.00    -0.245 N 
ATOM     24  H   UNL     1       3.539   7.108   0.376  0.00  0.00    +0.172 HD
BRANCH  23  25
ATOM     25  C   UNL     1       2.359   5.343   0.395  0.00  0.00    +0.151 C 
ATOM     26  S   UNL     1       0.905   6.199   0.686  0.00  0.00    -0.017 S 
BRANCH  25  27
ATOM     27  N   UNL     1       2.339   4.001   0.279  0.00  0.00    -0.296 N 
ATOM     28  H   UNL     1       3.279   3.446   0.147  0.00  0.00    +0.154 HD
BRANCH  27  34
ATOM     29  C   UNL     1      -2.433   3.757  -0.878  0.00  0.00    +0.044 C 
ATOM     30  C   UNL     1      -1.207   3.171  -0.226  0.00  0.00    -0.049 A 
ATOM     31  C   UNL     1      -1.284   1.948   0.415  0.00  0.00    +0.004 A 
ATOM     32  C   UNL     1      -0.163   1.410   1.020  0.00  0.00    +0.005 A 
ATOM     33  C   UNL     1       1.040   2.087   0.975  0.00  0.00    -0.029 A 
ATOM     34  C   UNL     1       1.122   3.312   0.327  0.00  0.00    +0.036 A 
ATOM     35  C   UNL     1      -0.008   3.853  -0.275  0.00  0.00    +0.027 A 
ATOM     36  C   UNL     1       2.263   1.497   1.629  0.00  0.00    +0.045 C 
ENDBRANCH  27  34
ENDBRANCH  25  27
ENDBRANCH  23  25
ENDBRANCH   1  23
TORSDOF 9
