REMARK  Name = ZINC17040572
REMARK  10 active torsions:
REMARK  status: ('A' for Active; 'I' for Inactive)
REMARK    1  A    between atoms: C_1  and  C_2
REMARK    2  A    between atoms: C_4  and  O_18
REMARK    3  A    between atoms: C_7  and  N_8
REMARK    4  A    between atoms: C_13  and  C_14
REMARK    5  A    between atoms: C_13  and  C_15
REMARK    6  A    between atoms: O_18  and  C_19
REMARK    7  A    between atoms: C_19  and  C_20
REMARK    8  A    between atoms: C_20  and  O_21
REMARK    9  A    between atoms: O_21  and  C_22
REMARK   10  A    between atoms: C_25  and  N_28
REMARK                            x       y       z     vdW  Elec       q    Type
REMARK                         _______ _______ _______ _____ _____    ______ ____
ROOT
ATOM      1  C   UNL     1      -0.222   9.592   4.025  0.00  0.00    +0.046 C 
ATOM      2  C   UNL     1       0.432   9.114   2.754  0.00  0.00    -0.026 A 
ATOM      3  C   UNL     1       0.700   7.771   2.577  0.00  0.00    +0.050 A 
ATOM      4  C   UNL     1       1.308   7.332   1.410  0.00  0.00    +0.121 A 
ATOM      5  C   UNL     1       1.636   8.240   0.414  0.00  0.00    +0.047 A 
ATOM      6  C   UNL     1       1.363   9.583   0.587  0.00  0.00    +0.027 A 
ATOM      7  C   UNL     1       0.761  10.024   1.758  0.00  0.00    +0.042 A 
ENDROOT
BRANCH   7   8
ATOM      8  N   UNL     1       0.483  11.386   1.933  0.00  0.00    -0.250 N 
ATOM      9  C   UNL     1       1.400  12.230   2.516  0.00  0.00    +0.189 C 
ATOM     10  N   UNL     1       1.401  13.502   2.155  0.00  0.00    -0.187 NA
ATOM     11  C   UNL     1       0.508  13.970   1.266  0.00  0.00    +0.191 C 
ATOM     12  N   UNL     1      -0.539  13.276   0.906  0.00  0.00    -0.337 N 
ATOM     13  C   UNL     1      -0.801  11.963   1.507  0.00  0.00    +0.109 C 
ATOM     14  C   UNL     1      -1.461  11.046   0.475  0.00  0.00    +0.056 C 
ATOM     15  C   UNL     1      -1.721  12.124   2.718  0.00  0.00    +0.056 C 
ATOM     16  N   UNL     1       0.702  15.222   0.718  0.00  0.00    -0.329 N 
ATOM     17  N   UNL     1       2.290  11.762   3.443  0.00  0.00    -0.331 N 
ATOM     18  H   UNL     1      -0.019  15.621  -0.010  0.00  0.00    +0.145 HD
ATOM     19  H   UNL     1       1.578  15.820   1.010  0.00  0.00    +0.145 HD
ATOM     20  H   UNL     1       3.018  12.448   3.901  0.00  0.00    +0.145 HD
ATOM     21  H   UNL     1       2.278  10.700   3.730  0.00  0.00    +0.145 HD
ATOM     22  H   UNL     1      -1.230  13.676   0.150  0.00  0.00    +0.164 HD
ENDBRANCH   7   8
BRANCH   4  23
ATOM     23  O   UNL     1       1.576   6.010   1.239  0.00  0.00    -0.489 OA
BRANCH  23  24
ATOM     24  C   UNL     1       2.197   5.628   0.010  0.00  0.00    +0.270 C 
BRANCH  24  25
ATOM     25  C   UNL     1       2.419   4.114   0.001  0.00  0.00    +0.270 C 
BRANCH  25  26
ATOM     26  O   UNL     1       1.155   3.447   0.009  0.00  0.00    -0.489 OA
BRANCH  26  27
ATOM     27  C   UNL     1       1.175   2.087   0.002  0.00  0.00    +0.121 A 
ATOM     28  C   UNL     1      -0.017   1.377   0.010  0.00  0.00    +0.047 A 
ATOM     29  C   UNL     1       0.002  -0.004   0.002  0.00  0.00    +0.026 A 
ATOM     30  C   UNL     1       1.214  -0.681  -0.013  0.00  0.00    +0.025 A 
ATOM     31  C   UNL     1       2.406   0.030  -0.021  0.00  0.00    +0.026 A 
ATOM     32  C   UNL     1       2.386   1.411  -0.013  0.00  0.00    +0.047 A 
BRANCH  30  33
ATOM     33  N   UNL     1       1.234  -2.081  -0.021  0.00  0.00    -0.358 N 
ATOM     34  H   UNL     1       2.194  -2.617  -0.033  0.00  0.00    +0.142 HD
ATOM     35  H   UNL     1       0.289  -2.644  -0.014  0.00  0.00    +0.142 HD
ENDBRANCH  30  33
ENDBRANCH  26  27
ENDBRANCH  25  26
ENDBRANCH  24  25
ENDBRANCH  23  24
ENDBRANCH   4  23
TORSDOF 7
