REMARK  Name = ZINC57652920
REMARK  7 active torsions:
REMARK  status: ('A' for Active; 'I' for Inactive)
REMARK    1  A    between atoms: C_1  and  C_2
REMARK    2  A    between atoms: C_5  and  C_15
REMARK    3  A    between atoms: C_7  and  C_8
REMARK    4  A    between atoms: C_10  and  C_13
REMARK    5  A    between atoms: C_15  and  C_16
REMARK    6  A    between atoms: C_15  and  C_17
REMARK    7  A    between atoms: C_15  and  C_18
REMARK                            x       y       z     vdW  Elec       q    Type
REMARK                         _______ _______ _______ _____ _____    ______ ____
ROOT
ATOM      1  C   UNL     1      -0.018   1.503   0.010  0.00  0.00    +0.044 C 
ATOM      2  C   UNL     1       0.002  -0.004   0.002  0.00  0.00    -0.040 A 
ATOM      3  C   UNL     1       0.006  -0.689  -1.196  0.00  0.00    +0.004 A 
ATOM      4  C   UNL     1       0.025  -2.072  -1.205  0.00  0.00    +0.004 A 
ATOM      5  C   UNL     1       0.040  -2.778  -0.015  0.00  0.00    -0.041 A 
ATOM      6  C   UNL     1       0.036  -2.105   1.189  0.00  0.00    +0.016 A 
ATOM      7  C   UNL     1       0.023  -0.710   1.206  0.00  0.00    +0.023 A 
ENDROOT
BRANCH   7   8
ATOM      8  C   UNL     1       0.025   0.018   2.493  0.00  0.00    +0.168 A 
ATOM      9  C   UNL     1      -0.800  -0.218   3.549  0.00  0.00    +0.077 A 
ATOM     10  C   UNL     1      -0.470   0.689   4.567  0.00  0.00    +0.095 A 
ATOM     11  N   UNL     1       0.510   1.438   4.146  0.00  0.00    -0.082 NA
ATOM     12  O   UNL     1       0.847   1.028   2.833  0.00  0.00    -0.354 OA
BRANCH  10  13
ATOM     13  C   UNL     1      -1.135   0.781   5.916  0.00  0.00    +0.138 C 
ATOM     14 BR   UNL     1      -0.203  -0.393   7.188  0.00  0.00    -0.085 Br
ENDBRANCH  10  13
ENDBRANCH   7   8
BRANCH   5  15
ATOM     15  C   UNL     1       0.061  -4.285  -0.035  0.00  0.00    -0.013 C 
ATOM     16  C   UNL     1       0.060  -4.776  -1.484  0.00  0.00    +0.015 C 
ATOM     17  C   UNL     1       1.320  -4.787   0.674  0.00  0.00    +0.015 C 
ATOM     18  C   UNL     1      -1.178  -4.821   0.686  0.00  0.00    +0.015 C 
ENDBRANCH   5  15
TORSDOF 3
