REMARK  Name = ZINC40287809
REMARK  2 active torsions:
REMARK  status: ('A' for Active; 'I' for Inactive)
REMARK    1  A    between atoms: C_3  and  C_9
REMARK    2  A    between atoms: N_19  and  C_20
REMARK                            x       y       z     vdW  Elec       q    Type
REMARK                         _______ _______ _______ _____ _____    ______ ____
ROOT
ATOM      1  C   UNL     1       3.671   2.190  -0.023  0.00  0.00    +0.083 C 
ATOM      2  C   UNL     1       3.725   3.089  -1.261  0.00  0.00    +0.110 C 
ATOM      3  C   UNL     1       2.845   4.295  -1.103  0.00  0.00    +0.219 C 
ATOM      4  O   UNL     1       2.248   4.718  -2.071  0.00  0.00    -0.275 OA
ATOM      5  N   UNL     1       2.696   4.924   0.084  0.00  0.00    -0.270 N 
ATOM      6  C   UNL     1       3.280   4.343   1.211  0.00  0.00    +0.133 A 
ATOM      7  C   UNL     1       3.748   3.062   1.204  0.00  0.00    +0.089 A 
ATOM      8  N   UNL     1       4.240   2.794   2.412  0.00  0.00    -0.238 NA
ATOM      9  C   UNL     1       4.104   3.847   3.178  0.00  0.00    +0.205 A 
ATOM     10  N   UNL     1       3.504   4.842   2.455  0.00  0.00    -0.284 N 
ATOM     11  H   UNL     1       2.197   5.754   0.151  0.00  0.00    +0.156 HD
ENDROOT
BRANCH   1  14
ATOM     12  C   UNL     1      -0.017   1.378   0.010  0.00  0.00    +0.003 A 
ATOM     13  C   UNL     1       1.170   2.087   0.002  0.00  0.00    +0.007 A 
ATOM     14  C   UNL     1       2.378   1.415  -0.013  0.00  0.00    +0.000 A 
ATOM     15  C   UNL     1       2.400   0.031  -0.021  0.00  0.00    +0.162 A 
ATOM     16  C   UNL     1       1.210  -0.680  -0.013  0.00  0.00    +0.159 A 
ATOM     17  C   UNL     1       0.002  -0.004   0.002  0.00  0.00    +0.041 A 
ATOM     18  F   UNL     1       1.229  -2.031  -0.021  0.00  0.00    -0.202 F 
ATOM     19  F   UNL     1       3.580  -0.626  -0.037  0.00  0.00    -0.202 F 
ENDBRANCH   1  14
BRANCH  10  20
ATOM     20  C   UNL     1       3.184   6.131   2.910  0.00  0.00    +0.087 A 
ATOM     21  C   UNL     1       4.194   7.013   3.267  0.00  0.00    +0.067 A 
ATOM     22  C   UNL     1       3.874   8.282   3.714  0.00  0.00    +0.126 A 
ATOM     23  C   UNL     1       2.549   8.673   3.806  0.00  0.00    +0.041 A 
ATOM     24  C   UNL     1       1.541   7.796   3.452  0.00  0.00    +0.043 A 
ATOM     25  C   UNL     1       1.855   6.527   2.998  0.00  0.00    +0.147 A 
ATOM     26  F   UNL     1       0.869   5.672   2.646  0.00  0.00    -0.203 F 
ATOM     27  F   UNL     1       4.857   9.142   4.062  0.00  0.00    -0.205 F 
ENDBRANCH  10  20
TORSDOF 2
