REMARK  Name = ZINC00316479
REMARK  4 active torsions:
REMARK  status: ('A' for Active; 'I' for Inactive)
REMARK    1  A    between atoms: C_8  and  C_12
REMARK    2  A    between atoms: C_12  and  C_14
REMARK    3  A    between atoms: C_14  and  C_15
REMARK    4  A    between atoms: C_15  and  O_25
REMARK                            x       y       z     vdW  Elec       q    Type
REMARK                         _______ _______ _______ _____ _____    ______ ____
ROOT
ATOM      1  C   UNL     1      -1.292   3.701   0.028  0.00  0.00    +0.129 C 
ENDROOT
BRANCH   1   2
ATOM      2  C   UNL     1      -2.736   4.207   0.038  0.00  0.00    +0.175 C 
ATOM      3  C   UNL     1      -2.767   5.715   0.143  0.00  0.00    +0.014 A 
ATOM      4  C   UNL     1      -2.288   6.720  -0.667  0.00  0.00    +0.009 A 
ATOM      5  C   UNL     1      -2.469   8.043  -0.305  0.00  0.00    +0.000 A 
ATOM      6  C   UNL     1      -3.132   8.351   0.869  0.00  0.00    +0.002 A 
ATOM      7  C   UNL     1      -3.614   7.345   1.682  0.00  0.00    +0.024 A 
ATOM      8  C   UNL     1      -3.435   6.010   1.324  0.00  0.00    +0.040 A 
ATOM      9  N   UNL     1      -3.823   4.834   1.967  0.00  0.00    -0.282 N 
ATOM     10  C   UNL     1      -3.454   3.736   1.284  0.00  0.00    +0.254 C 
ATOM     11  O   UNL     1      -3.659   2.585   1.607  0.00  0.00    -0.272 OA
ATOM     12  H   UNL     1      -4.303   4.811   2.809  0.00  0.00    +0.155 HD
BRANCH   2  13
ATOM     13  O   UNL     1      -3.426   3.769  -1.134  0.00  0.00    -0.374 OA
ATOM     14  H   UNL     1      -3.462   2.808  -1.233  0.00  0.00    +0.211 HD
ENDBRANCH   2  13
ENDBRANCH   1   2
BRANCH   1  15
ATOM     15  C   UNL     1      -1.288   2.194   0.020  0.00  0.00    +0.174 C 
ATOM     16  O   UNL     1      -2.337   1.585   0.022  0.00  0.00    -0.292 OA
BRANCH  15  24
ATOM     17  C   UNL     1       4.789   1.337  -0.037  0.00  0.00    +0.001 A 
ATOM     18  C   UNL     1       4.750  -0.051  -0.044  0.00  0.00    +0.004 A 
ATOM     19  C   UNL     1       3.544  -0.720  -0.036  0.00  0.00    +0.047 A 
ATOM     20  C   UNL     1       2.352  -0.004  -0.020  0.00  0.00    +0.139 A 
ATOM     21  C   UNL     1       2.394   1.403  -0.014  0.00  0.00    +0.018 A 
ATOM     22  C   UNL     1       3.633   2.062  -0.022  0.00  0.00    +0.011 A 
ATOM     23  C   UNL     1       1.190   2.149   0.002  0.00  0.00    +0.030 A 
ATOM     24  C   UNL     1      -0.018   1.465   0.010  0.00  0.00    +0.102 A 
ATOM     25  C   UNL     1       0.002  -0.004   0.002  0.00  0.00    +0.348 A 
ATOM     26  O   UNL     1      -1.044  -0.626   0.008  0.00  0.00    -0.244 OA
ATOM     27  O   UNL     1       1.173  -0.662  -0.013  0.00  0.00    -0.422 OA
ENDBRANCH  15  24
ENDBRANCH   1  15
TORSDOF 4
