REMARK  Name = ZINC27028308
REMARK  7 active torsions:
REMARK  status: ('A' for Active; 'I' for Inactive)
REMARK    1  A    between atoms: C_1  and  C_2
REMARK    2  A    between atoms: C_5  and  N_9
REMARK    3  A    between atoms: C_7  and  C_8
REMARK    4  A    between atoms: N_9  and  C_10
REMARK    5  A    between atoms: C_10  and  N_12
REMARK    6  A    between atoms: N_12  and  N_13
REMARK    7  A    between atoms: C_14  and  C_19
REMARK                            x       y       z     vdW  Elec       q    Type
REMARK                         _______ _______ _______ _____ _____    ______ ____
ROOT
ATOM      1  C   UNL     1      -3.728   3.448   0.416  0.00  0.00    +0.153 C 
ATOM      2  S   UNL     1      -3.767   1.984   1.304  0.00  0.00    -0.017 S 
ENDROOT
BRANCH   1   3
ATOM      3  N   UNL     1      -2.616   4.210   0.422  0.00  0.00    -0.296 N 
ATOM      4  H   UNL     1      -2.615   5.184  -0.090  0.00  0.00    +0.154 HD
BRANCH   3   9
ATOM      5  C   UNL     1       2.052   2.397   3.087  0.00  0.00    +0.044 C 
ATOM      6  C   UNL     1       0.812   2.879   2.379  0.00  0.00    -0.047 A 
ATOM      7  C   UNL     1       0.908   3.420   1.110  0.00  0.00    +0.005 A 
ATOM      8  C   UNL     1      -0.226   3.867   0.461  0.00  0.00    +0.023 A 
ATOM      9  C   UNL     1      -1.465   3.763   1.079  0.00  0.00    +0.033 A 
ATOM     10  C   UNL     1      -1.558   3.220   2.354  0.00  0.00    +0.027 A 
ATOM     11  C   UNL     1      -0.419   2.780   3.000  0.00  0.00    -0.046 A 
ATOM     12  C   UNL     1      -0.519   2.191   4.384  0.00  0.00    +0.044 C 
ENDBRANCH   3   9
ENDBRANCH   1   3
BRANCH   1  13
ATOM     13  N   UNL     1      -4.809   3.837  -0.288  0.00  0.00    -0.231 N 
ATOM     14  H   UNL     1      -4.753   4.725  -0.936  0.00  0.00    +0.175 HD
BRANCH  13  15
ATOM     15  N   UNL     1      -6.004   3.113  -0.195  0.00  0.00    -0.219 N 
ATOM     16  C   UNL     1      -6.177   1.774  -0.413  0.00  0.00    +0.149 A 
ATOM     17  N   UNL     1      -7.439   1.509  -0.221  0.00  0.00    -0.132 NA
ATOM     18  N   UNL     1      -8.070   2.581   0.101  0.00  0.00    -0.120 NA
ATOM     19  C   UNL     1      -7.237   3.595   0.138  0.00  0.00    +0.220 A 
ATOM     20  S   UNL     1      -7.636   5.264   0.538  0.00  0.00    -0.008 SA
ATOM     21  C   UNL     1      -5.107   0.787  -0.803  0.00  0.00    +0.090 C 
ENDBRANCH  13  15
ENDBRANCH   1  13
TORSDOF 4
