REMARK  Name = ZINC38995079
REMARK  4 active torsions:
REMARK  status: ('A' for Active; 'I' for Inactive)
REMARK    1  A    between atoms: C_6  and  C_7
REMARK    2  A    between atoms: N_13  and  N_14
REMARK    3  A    between atoms: C_15  and  C_16
REMARK    4  A    between atoms: C_21  and  O_22
REMARK                            x       y       z     vdW  Elec       q    Type
REMARK                         _______ _______ _______ _____ _____    ______ ____
ROOT
ATOM      1  C   UNL     1      -1.401  -0.865  -0.064  0.00  0.00    +0.264 C 
ATOM      2  N   UNL     1      -2.305  -0.082   0.791  0.00  0.00    -0.189 NA
ATOM      3  N   UNL     1      -2.444  -0.685   1.858  0.00  0.00    -0.219 N 
ATOM      4  C   UNL     1      -1.742  -1.849   1.915  0.00  0.00    +0.174 C 
ATOM      5  S   UNL     1      -1.721  -2.917   3.253  0.00  0.00    -0.015 S 
ATOM      6  N   UNL     1      -1.064  -2.042   0.758  0.00  0.00    -0.172 N 
ATOM      7  H   UNL     1      -2.998  -0.361   2.585  0.00  0.00    +0.176 HD
ENDROOT
BRANCH   1  13
ATOM      8  C   UNL     1      -0.216   1.304  -0.536  0.00  0.00    +0.025 A 
ATOM      9  C   UNL     1       0.942   1.997  -0.833  0.00  0.00    +0.083 A 
ATOM     10  N   UNL     1       2.090   1.363  -0.974  0.00  0.00    -0.367 N 
ATOM     11  C   UNL     1       2.180   0.054  -0.840  0.00  0.00    +0.083 A 
ATOM     12  C   UNL     1       1.064  -0.705  -0.544  0.00  0.00    +0.025 A 
ATOM     13  C   UNL     1      -0.160  -0.073  -0.388  0.00  0.00    +0.001 A 
ATOM     14  H   UNL     1       2.889   1.873  -1.182  0.00  0.00    +0.165 HD
ENDBRANCH   1  13
BRANCH   6  15
ATOM     15  N   UNL     1      -0.230  -3.116   0.419  0.00  0.00    -0.183 NA
ATOM     16  C   UNL     1      -0.124  -4.134   1.218  0.00  0.00    +0.142 C 
BRANCH  16  17
ATOM     17  C   UNL     1       0.872  -5.185   0.945  0.00  0.00    +0.038 A 
ATOM     18  C   UNL     1       0.985  -6.285   1.799  0.00  0.00    +0.028 A 
ATOM     19  C   UNL     1       1.919  -7.265   1.537  0.00  0.00    +0.020 A 
ATOM     20  C   UNL     1       2.746  -7.164   0.430  0.00  0.00    +0.034 A 
ATOM     21  C   UNL     1       2.644  -6.080  -0.422  0.00  0.00    +0.061 A 
ATOM     22  C   UNL     1       1.707  -5.089  -0.177  0.00  0.00    +0.139 A 
ATOM     23 BR   UNL     1       3.779  -5.954  -1.930  0.00  0.00    -0.046 Br
ATOM     24 BR   UNL     1       2.072  -8.753   2.694  0.00  0.00    -0.050 Br
BRANCH  22  25
ATOM     25  O   UNL     1       1.601  -4.027  -1.017  0.00  0.00    -0.505 OA
ATOM     26  H   UNL     1       2.167  -3.280  -0.779  0.00  0.00    +0.292 HD
ENDBRANCH  22  25
ENDBRANCH  16  17
ENDBRANCH   6  15
TORSDOF 4
