REMARK  Name = ZINC37607497
REMARK  8 active torsions:
REMARK  status: ('A' for Active; 'I' for Inactive)
REMARK    1  A    between atoms: C_1  and  C_2
REMARK    2  A    between atoms: C_10  and  O_22
REMARK    3  A    between atoms: C_13  and  C_15
REMARK    4  A    between atoms: O_22  and  C_23
REMARK    5  A    between atoms: C_23  and  C_24
REMARK    6  A    between atoms: C_26  and  C_29
REMARK    7  A    between atoms: N_31  and  C_32
REMARK    8  A    between atoms: C_32  and  C_33
REMARK                            x       y       z     vdW  Elec       q    Type
REMARK                         _______ _______ _______ _____ _____    ______ ____
ROOT
ATOM      1  C   UNL     1       0.549   1.273   0.067  0.00  0.00    +0.109 C 
ATOM      2  C   UNL     1       0.329  -0.217   0.005  0.00  0.00    +0.213 C 
ATOM      3  O   UNL     1       1.277  -0.967  -0.093  0.00  0.00    -0.276 OA
ATOM      4  N   UNL     1      -0.922  -0.716   0.059  0.00  0.00    -0.290 N 
ATOM      5  C   UNL     1      -2.095   0.167   0.173  0.00  0.00    +0.113 C 
ATOM      6  C   UNL     1      -2.929   0.005  -1.097  0.00  0.00    +0.054 C 
ATOM      7  C   UNL     1      -3.130  -1.452  -1.424  0.00  0.00    -0.040 A 
ATOM      8  C   UNL     1      -4.187  -1.783  -2.264  0.00  0.00    +0.007 A 
ATOM      9  C   UNL     1      -4.423  -3.095  -2.613  0.00  0.00    +0.046 A 
ATOM     10  C   UNL     1      -3.597  -4.097  -2.123  0.00  0.00    +0.122 A 
ATOM     11  C   UNL     1      -2.546  -3.768  -1.285  0.00  0.00    +0.051 A 
ATOM     12  C   UNL     1      -2.315  -2.447  -0.931  0.00  0.00    -0.016 A 
ATOM     13  C   UNL     1      -1.170  -2.160   0.002  0.00  0.00    +0.137 C 
ENDROOT
BRANCH  13  14
ATOM     14  C   UNL     1      -1.513  -2.666   1.379  0.00  0.00    -0.020 A 
ATOM     15  C   UNL     1      -2.674  -2.244   2.001  0.00  0.00    +0.006 A 
ATOM     16  C   UNL     1      -2.990  -2.707   3.264  0.00  0.00    +0.003 A 
ATOM     17  C   UNL     1      -2.145  -3.591   3.908  0.00  0.00    +0.038 A 
ATOM     18  C   UNL     1      -0.983  -4.014   3.287  0.00  0.00    +0.124 A 
ATOM     19  C   UNL     1      -0.670  -3.555   2.019  0.00  0.00    +0.044 A 
ATOM     20  F   UNL     1      -0.156  -4.878   3.916  0.00  0.00    -0.205 F 
ENDBRANCH  13  14
BRANCH  10  21
ATOM     21  O   UNL     1      -3.820  -5.394  -2.465  0.00  0.00    -0.483 OA
BRANCH  21  22
ATOM     22  C   UNL     1      -4.923  -5.655  -3.334  0.00  0.00    +0.324 C 
BRANCH  22  23
ATOM     23  C   UNL     1      -5.013  -7.136  -3.600  0.00  0.00    +0.234 A 
ATOM     24  N   UNL     1      -5.697  -7.987  -2.896  0.00  0.00    -0.206 NA
ATOM     25  C   UNL     1      -5.536  -9.224  -3.439  0.00  0.00    +0.164 A 
ATOM     26  C   UNL     1      -4.716  -9.085  -4.516  0.00  0.00    +0.230 A 
ATOM     27  O   UNL     1      -4.404  -7.782  -4.605  0.00  0.00    -0.444 OA
BRANCH  25  28
ATOM     28  C   UNL     1      -6.137 -10.479  -2.952  0.00  0.00    +0.266 C 
ATOM     29  O   UNL     1      -5.913 -11.525  -3.531  0.00  0.00    -0.268 OA
ATOM     30  N   UNL     1      -6.935 -10.467  -1.866  0.00  0.00    -0.306 N 
ATOM     31  H   UNL     1      -7.114  -9.633  -1.405  0.00  0.00    +0.149 HD
BRANCH  30  32
ATOM     32  C   UNL     1      -7.532 -11.715  -1.382  0.00  0.00    +0.140 C 
BRANCH  32  33
ATOM     33  C   UNL     1      -8.374 -11.430  -0.165  0.00  0.00    -0.028 A 
ATOM     34  C   UNL     1      -7.805 -11.477   1.095  0.00  0.00    +0.005 A 
ATOM     35  C   UNL     1      -8.576 -11.216   2.212  0.00  0.00    +0.003 A 
ATOM     36  C   UNL     1      -9.916 -10.907   2.071  0.00  0.00    +0.038 A 
ATOM     37  C   UNL     1     -10.486 -10.859   0.811  0.00  0.00    +0.124 A 
ATOM     38  C   UNL     1      -9.711 -11.115  -0.308  0.00  0.00    +0.043 A 
ATOM     39  F   UNL     1     -11.796 -10.558   0.672  0.00  0.00    -0.205 F 
ENDBRANCH  32  33
ENDBRANCH  30  32
ENDBRANCH  25  28
ENDBRANCH  22  23
ENDBRANCH  21  22
ENDBRANCH  10  21
TORSDOF 7
