REMARK  Name = ZINC26137986
REMARK  7 active torsions:
REMARK  status: ('A' for Active; 'I' for Inactive)
REMARK    1  A    between atoms: C_1  and  C_2
REMARK    2  A    between atoms: C_7  and  N_8
REMARK    3  A    between atoms: C_9  and  C_11
REMARK    4  A    between atoms: C_11  and  C_13
REMARK    5  A    between atoms: C_11  and  N_14
REMARK    6  A    between atoms: N_17  and  S_20
REMARK    7  A    between atoms: S_20  and  C_23
REMARK                            x       y       z     vdW  Elec       q    Type
REMARK                         _______ _______ _______ _____ _____    ______ ____
ROOT
ATOM      1  N   UNL     1      -0.472   1.286   1.403  0.00  0.00    +0.389 N 
ATOM      2  C   UNL     1       0.550   0.844   2.362  0.00  0.00    -0.060 C 
ATOM      3  C   UNL     1       0.138   1.271   3.775  0.00  0.00    +0.091 C 
ATOM      4  N   UNL     1      -1.220   0.769   4.037  0.00  0.00    -0.180 NA
ATOM      5  C   UNL     1      -2.271   1.056   3.049  0.00  0.00    +0.091 C 
ATOM      6  C   UNL     1      -1.764   0.638   1.664  0.00  0.00    -0.060 C 
ATOM      7  H   UNL     1      -0.608   2.369   1.535  0.00  0.00    -0.081 HD
ENDROOT
BRANCH   4   8
ATOM      8  S   UNL     1      -1.556  -0.094   5.409  0.00  0.00    +0.061 S 
ATOM      9  O   UNL     1      -0.572   0.267   6.368  0.00  0.00    -0.153 OA
ATOM     10  O   UNL     1      -2.948   0.056   5.652  0.00  0.00    -0.153 OA
BRANCH   8  11
ATOM     11  C   UNL     1      -1.291  -1.795   5.032  0.00  0.00    +0.108 A 
ATOM     12  C   UNL     1      -2.331  -2.565   4.545  0.00  0.00    +0.031 A 
ATOM     13  C   UNL     1      -2.124  -3.898   4.244  0.00  0.00    +0.043 A 
ATOM     14  C   UNL     1      -0.877  -4.466   4.440  0.00  0.00    +0.159 A 
ATOM     15  C   UNL     1       0.164  -3.695   4.933  0.00  0.00    +0.160 A 
ATOM     16  C   UNL     1      -0.045  -2.359   5.229  0.00  0.00    +0.069 A 
ATOM     17  F   UNL     1       1.382  -4.248   5.125  0.00  0.00    -0.202 F 
ATOM     18  F   UNL     1      -0.676  -5.770   4.150  0.00  0.00    -0.202 F 
ENDBRANCH   8  11
ENDBRANCH   4   8
BRANCH   1  19
ATOM     19  C   UNL     1      -0.034   1.049   0.021  0.00  0.00    +0.017 C 
ATOM     20  C   UNL     1      -0.145  -0.443  -0.301  0.00  0.00    -0.004 C 
BRANCH  19  22
ATOM     21  N   UNL     1      -0.608   1.879  -2.238  0.00  0.00    -0.287 N 
ATOM     22  C   UNL     1      -0.907   1.833  -0.924  0.00  0.00    +0.203 C 
ATOM     23  O   UNL     1      -1.880   2.423  -0.503  0.00  0.00    -0.277 OA
ATOM     24  H   UNL     1       0.227   1.282  -2.633  0.00  0.00    +0.155 HD
BRANCH  21  31
ATOM     25  C   UNL     1       0.728   3.121  -4.422  0.00  0.00    +0.046 C 
ATOM     26  C   UNL     1      -0.747   3.312  -4.177  0.00  0.00    -0.028 A 
ATOM     27  C   UNL     1      -1.492   4.105  -5.029  0.00  0.00    +0.025 A 
ATOM     28  C   UNL     1      -2.845   4.285  -4.801  0.00  0.00    +0.041 A 
ATOM     29  C   UNL     1      -3.456   3.668  -3.724  0.00  0.00    +0.022 A 
ATOM     30  C   UNL     1      -2.717   2.870  -2.873  0.00  0.00    +0.025 A 
ATOM     31  C   UNL     1      -1.359   2.687  -3.099  0.00  0.00    +0.036 A 
ATOM     32 CL   UNL     1      -3.776   5.288  -5.869  0.00  0.00    -0.084 Cl
ENDBRANCH  21  31
ENDBRANCH  19  22
ENDBRANCH   1  19
TORSDOF 5
