REMARK  Name = ZINC38999518
REMARK  11 active torsions:
REMARK  status: ('A' for Active; 'I' for Inactive)
REMARK    1  A    between atoms: C_1  and  C_2
REMARK    2  A    between atoms: C_5  and  C_8
REMARK    3  A    between atoms: C_10  and  C_14
REMARK    4  A    between atoms: C_18  and  S_22
REMARK    5  A    between atoms: N_20  and  N_21
REMARK    6  A    between atoms: S_22  and  C_23
REMARK    7  A    between atoms: C_23  and  C_24
REMARK    8  A    between atoms: N_26  and  C_27
REMARK    9  A    between atoms: C_32  and  C_33
REMARK   10  A    between atoms: C_33  and  C_34
REMARK   11  A    between atoms: C_33  and  C_35
REMARK                            x       y       z     vdW  Elec       q    Type
REMARK                         _______ _______ _______ _____ _____    ______ ____
ROOT
ATOM      1  C   UNL     1       1.401  -7.152   0.976  0.00  0.00    +0.185 C 
ATOM      2  N   UNL     1       2.612  -6.510   0.401  0.00  0.00    -0.234 NA
ATOM      3  N   UNL     1       3.618  -7.576   0.380  0.00  0.00    -0.228 NA
ATOM      4  C   UNL     1       2.883  -8.857   0.368  0.00  0.00    +0.214 C 
ATOM      5  N   UNL     1       1.439  -8.519   0.393  0.00  0.00    -0.197 NA
ATOM      6  H   UNL     1       2.432  -6.165  -0.530  0.00  0.00    +0.143 HD
ATOM      7  H   UNL     1       4.226  -7.515   1.183  0.00  0.00    +0.143 HD
ENDROOT
BRANCH   1  10
ATOM      8  C   UNL     1       0.116  -4.223  -0.020  0.00  0.00    +0.091 C 
ATOM      9  C   UNL     1       0.128  -4.994   1.084  0.00  0.00    +0.034 C 
ATOM     10  C   UNL     1       0.136  -6.411   0.538  0.00  0.00    +0.187 C 
ATOM     11  N   UNL     1       0.126  -6.209  -0.920  0.00  0.00    -0.176 NA
ATOM     12  N   UNL     1       0.110  -4.995  -1.138  0.00  0.00    -0.154 NA
BRANCH   8  17
ATOM     13  C   UNL     1       0.071   1.536  -0.006  0.00  0.00    +0.044 C 
ATOM     14  C   UNL     1       0.083   0.029  -0.010  0.00  0.00    -0.050 A 
ATOM     15  C   UNL     1       0.075  -0.657  -1.211  0.00  0.00    +0.004 A 
ATOM     16  C   UNL     1       0.086  -2.037  -1.220  0.00  0.00    +0.010 A 
ATOM     17  C   UNL     1       0.105  -2.739  -0.017  0.00  0.00    +0.002 A 
ATOM     18  C   UNL     1       0.112  -2.043   1.190  0.00  0.00    +0.010 A 
ATOM     19  C   UNL     1       0.106  -0.663   1.188  0.00  0.00    +0.004 A 
ENDBRANCH   8  17
ENDBRANCH   1  10
BRANCH   5  20
ATOM     20  N   UNL     1       0.694  -9.457   1.216  0.00  0.00    -0.264 NA
ATOM     21  H   UNL     1       0.720 -10.385   0.821  0.00  0.00    +0.137 HD
ATOM     22  H   UNL     1       1.038  -9.459   2.165  0.00  0.00    +0.137 HD
ENDBRANCH   5  20
BRANCH   4  23
ATOM     23  S   UNL     1       3.282  -9.789  -1.136  0.00  0.00    -0.115 S 
BRANCH  23  24
ATOM     24  C   UNL     1       2.795  -8.676  -2.483  0.00  0.00    +0.168 C 
BRANCH  24  25
ATOM     25  C   UNL     1       3.078  -9.337  -3.808  0.00  0.00    +0.227 C 
ATOM     26  O   UNL     1       3.560 -10.449  -3.840  0.00  0.00    -0.275 OA
ATOM     27  N   UNL     1       2.795  -8.692  -4.957  0.00  0.00    -0.285 N 
ATOM     28  H   UNL     1       2.336  -7.837  -4.933  0.00  0.00    +0.155 HD
BRANCH  27  29
ATOM     29  C   UNL     1       3.162  -9.255  -6.184  0.00  0.00    +0.037 A 
ATOM     30  C   UNL     1       4.220 -10.152  -6.249  0.00  0.00    +0.023 A 
ATOM     31  C   UNL     1       4.580 -10.706  -7.462  0.00  0.00    +0.002 A 
ATOM     32  C   UNL     1       3.888 -10.368  -8.611  0.00  0.00    +0.000 A 
ATOM     33  C   UNL     1       2.834  -9.475  -8.549  0.00  0.00    +0.006 A 
ATOM     34  C   UNL     1       2.465  -8.922  -7.338  0.00  0.00    -0.024 A 
BRANCH  34  35
ATOM     35  C   UNL     1       1.312  -7.954  -7.271  0.00  0.00    +0.015 C 
ATOM     36  C   UNL     1       1.553  -6.805  -8.252  0.00  0.00    +0.012 C 
ATOM     37  C   UNL     1       0.016  -8.678  -7.641  0.00  0.00    +0.012 C 
ENDBRANCH  34  35
ENDBRANCH  27  29
ENDBRANCH  24  25
ENDBRANCH  23  24
ENDBRANCH   4  23
TORSDOF 8
