REMARK  Name = ZINC00744624
REMARK  12 active torsions:
REMARK  status: ('A' for Active; 'I' for Inactive)
REMARK    1  A    between atoms: C_1  and  C_2
REMARK    2  A    between atoms: C_2  and  C_38
REMARK    3  A    between atoms: C_7  and  C_11
REMARK    4  A    between atoms: C_11  and  N_12
REMARK    5  A    between atoms: N_12  and  C_13
REMARK    6  A    between atoms: C_13  and  C_14
REMARK    7  A    between atoms: C_14  and  N_15
REMARK    8  A    between atoms: N_23  and  C_24
REMARK    9  A    between atoms: C_24  and  C_25
REMARK   10  A    between atoms: C_24  and  C_26
REMARK   11  A    between atoms: C_24  and  C_27
REMARK   12  A    between atoms: N_30  and  C_31
REMARK                            x       y       z     vdW  Elec       q    Type
REMARK                         _______ _______ _______ _____ _____    ______ ____
ROOT
ATOM      1  N   UNL     1      -2.083   4.178   2.999  0.00  0.00    -0.283 N 
ATOM      2  C   UNL     1      -2.653   5.366   2.717  0.00  0.00    +0.307 C 
ATOM      3  O   UNL     1      -3.773   5.614   3.119  0.00  0.00    -0.252 OA
ATOM      4  N   UNL     1      -1.981   6.280   1.988  0.00  0.00    -0.269 N 
ATOM      5  H   UNL     1      -1.000   6.028   1.560  0.00  0.00    +0.156 HD
ENDROOT
BRANCH   4   6
ATOM      6  C   UNL     1      -2.532   7.549   1.777  0.00  0.00    +0.035 A 
ATOM      7  C   UNL     1      -3.905   7.695   1.621  0.00  0.00    +0.025 A 
ATOM      8  C   UNL     1      -4.446   8.949   1.418  0.00  0.00    +0.022 A 
ATOM      9  C   UNL     1      -3.622  10.058   1.358  0.00  0.00    +0.041 A 
ATOM     10  C   UNL     1      -2.253   9.915   1.507  0.00  0.00    +0.022 A 
ATOM     11  C   UNL     1      -1.707   8.664   1.716  0.00  0.00    +0.025 A 
ATOM     12 CL   UNL     1      -4.305  11.633   1.096  0.00  0.00    -0.084 Cl
ENDBRANCH   4   6
BRANCH   1  13
ATOM     13  C   UNL     1      -0.733   3.879   2.514  0.00  0.00    +0.140 C 
BRANCH  13  19
ATOM     14  C   UNL     1      -3.268   2.555   0.005  0.00  0.00    +0.012 C 
ATOM     15  C   UNL     1      -2.166   1.495  -0.025  0.00  0.00    -0.025 C 
ATOM     16  C   UNL     1      -1.081   1.753  -1.083  0.00  0.00    -0.000 C 
ATOM     17  C   UNL     1      -0.791   3.247  -1.287  0.00  0.00    +0.031 C 
ATOM     18  C   UNL     1      -0.712   3.937   0.055  0.00  0.00    -0.025 C 
ATOM     19  C   UNL     1      -0.820   3.230   1.157  0.00  0.00    -0.053 C 
ATOM     20  C   UNL     1      -1.034   1.734   1.010  0.00  0.00    +0.022 C 
ATOM     21  C   UNL     1      -0.102   1.139  -0.062  0.00  0.00    +0.012 C 
ATOM     22  C   UNL     1      -2.711   0.065  -0.032  0.00  0.00    +0.012 C 
ENDBRANCH  13  19
ENDBRANCH   1  13
BRANCH   1  23
ATOM     23  C   UNL     1      -2.813   3.185   3.792  0.00  0.00    +0.091 C 
BRANCH  23  24
ATOM     24  C   UNL     1      -2.510   3.395   5.277  0.00  0.00    -0.059 C 
BRANCH  24  25
ATOM     25  N   UNL     1      -3.242   2.399   6.071  0.00  0.00    +0.383 N 
ATOM     26  C   UNL     1      -4.693   2.609   5.970  0.00  0.00    -0.059 C 
ATOM     27  C   UNL     1      -5.422   1.450   6.659  0.00  0.00    +0.091 C 
ATOM     28  N   UNL     1      -4.906   1.323   8.030  0.00  0.00    -0.289 N 
ATOM     29  C   UNL     1      -3.449   1.246   8.221  0.00  0.00    +0.091 C 
ATOM     30  C   UNL     1      -2.798   2.413   7.471  0.00  0.00    -0.059 C 
ATOM     31  C   UNL     1      -5.745   1.277   9.084  0.00  0.00    +0.302 C 
ATOM     32  O   UNL     1      -5.308   1.080  10.201  0.00  0.00    -0.253 OA
ATOM     33  N   UNL     1      -7.069   1.450   8.899  0.00  0.00    -0.295 N 
ATOM     34  H   UNL     1      -7.474   1.546   7.881  0.00  0.00    +0.151 HD
ATOM     35  H   UNL     1      -3.018   1.404   5.658  0.00  0.00    -0.082 HD
BRANCH  33  36
ATOM     36  C   UNL     1      -7.968   1.510  10.054  0.00  0.00    +0.028 C 
ATOM     37  C   UNL     1      -7.565   2.680  10.953  0.00  0.00    +0.031 C 
ATOM     38  C   UNL     1      -9.406   1.710   9.570  0.00  0.00    +0.031 C 
ATOM     39  C   UNL     1      -7.873   0.203  10.843  0.00  0.00    +0.031 C 
ENDBRANCH  33  36
ENDBRANCH  24  25
ENDBRANCH  23  24
ENDBRANCH   1  23
TORSDOF 7
