REMARK  Name = ZINC09318221
REMARK  8 active torsions:
REMARK  status: ('A' for Active; 'I' for Inactive)
REMARK    1  A    between atoms: C_1  and  C_2
REMARK    2  A    between atoms: C_5  and  N_8
REMARK    3  A    between atoms: C_14  and  C_17
REMARK    4  A    between atoms: N_19  and  C_20
REMARK    5  A    between atoms: C_20  and  C_21
REMARK    6  A    between atoms: C_21  and  C_22
REMARK    7  A    between atoms: C_25  and  S_28
REMARK    8  A    between atoms: S_28  and  N_31
REMARK                            x       y       z     vdW  Elec       q    Type
REMARK                         _______ _______ _______ _____ _____    ______ ____
ROOT
ATOM      1  N   UNL     1       5.881   1.460  -0.044  0.00  0.00    -0.269 N 
ATOM      2  C   UNL     1       4.618   0.989  -0.034  0.00  0.00    +0.310 C 
ATOM      3  O   UNL     1       4.417  -0.210  -0.029  0.00  0.00    -0.252 OA
ATOM      4  N   UNL     1       3.579   1.847  -0.028  0.00  0.00    -0.248 N 
ATOM      5  C   UNL     1       2.278   1.362  -0.016  0.00  0.00    +0.166 A 
ATOM      6  N   UNL     1       1.142   2.029  -0.008  0.00  0.00    -0.220 NA
ATOM      7  C   UNL     1      -0.017   1.366   0.003  0.00  0.00    +0.135 A 
ATOM      8  C   UNL     1       0.002  -0.003   0.005  0.00  0.00    +0.081 A 
ATOM      9  S   UNL     1       1.707  -0.330  -0.008  0.00  0.00    -0.060 S 
ATOM     10  H   UNL     1       6.042   2.414  -0.116  0.00  0.00    +0.156 HD
ATOM     11  H   UNL     1       3.740   2.804  -0.031  0.00  0.00    +0.158 HD
ENDROOT
BRANCH   1  16
ATOM     12  C   UNL     1      10.254  -2.135   0.325  0.00  0.00    +0.044 C 
ATOM     13  C   UNL     1       9.092  -1.180   0.227  0.00  0.00    -0.050 A 
ATOM     14  C   UNL     1       7.950  -1.551  -0.458  0.00  0.00    +0.005 A 
ATOM     15  C   UNL     1       6.884  -0.678  -0.550  0.00  0.00    +0.023 A 
ATOM     16  C   UNL     1       6.960   0.573   0.047  0.00  0.00    +0.035 A 
ATOM     17  C   UNL     1       8.110   0.945   0.730  0.00  0.00    +0.023 A 
ATOM     18  C   UNL     1       9.171   0.065   0.823  0.00  0.00    +0.005 A 
ENDBRANCH   1  16
BRANCH   7  19
ATOM     19  C   UNL     1      -1.295   2.096   0.005  0.00  0.00    +0.263 C 
ATOM     20  O   UNL     1      -2.345   1.483   0.010  0.00  0.00    -0.269 OA
ATOM     21  N   UNL     1      -1.301   3.444   0.003  0.00  0.00    -0.310 N 
ATOM     22  H   UNL     1      -0.464   3.933  -0.001  0.00  0.00    +0.149 HD
BRANCH  21  23
ATOM     23  C   UNL     1      -2.573   4.170   0.006  0.00  0.00    +0.109 C 
BRANCH  23  24
ATOM     24  C   UNL     1      -2.301   5.676   0.002  0.00  0.00    +0.054 C 
BRANCH  24  25
ATOM     25  C   UNL     1      -3.610   6.423   0.005  0.00  0.00    -0.046 A 
ATOM     26  C   UNL     1      -4.211   6.768  -1.191  0.00  0.00    +0.005 A 
ATOM     27  C   UNL     1      -5.414   7.450  -1.188  0.00  0.00    +0.029 A 
ATOM     28  C   UNL     1      -6.010   7.794   0.010  0.00  0.00    +0.105 A 
ATOM     29  C   UNL     1      -5.406   7.454   1.206  0.00  0.00    +0.029 A 
ATOM     30  C   UNL     1      -4.206   6.768   1.203  0.00  0.00    +0.005 A 
BRANCH  28  31
ATOM     31  S   UNL     1      -7.541   8.667   0.014  0.00  0.00    +0.056 S 
ATOM     32  O   UNL     1      -8.171   8.388  -1.229  0.00  0.00    -0.153 OA
ATOM     33  O   UNL     1      -8.163   8.391   1.261  0.00  0.00    -0.153 OA
BRANCH  31  34
ATOM     34  N   UNL     1      -7.183  10.284   0.011  0.00  0.00    -0.204 NA
ATOM     35  H   UNL     1      -6.258  10.576   0.007  0.00  0.00    +0.144 HD
ATOM     36  H   UNL     1      -7.898  10.939   0.012  0.00  0.00    +0.144 HD
ENDBRANCH  31  34
ENDBRANCH  28  31
ENDBRANCH  24  25
ENDBRANCH  23  24
ENDBRANCH  21  23
ENDBRANCH   7  19
TORSDOF 7
