REMARK  Name = ZINC33418069
REMARK  5 active torsions:
REMARK  status: ('A' for Active; 'I' for Inactive)
REMARK    1  A    between atoms: C_1  and  C_2
REMARK    2  A    between atoms: C_2  and  C_3
REMARK    3  A    between atoms: C_4  and  C_19
REMARK    4  A    between atoms: C_6  and  C_12
REMARK    5  A    between atoms: C_7  and  C_11
REMARK                            x       y       z     vdW  Elec       q    Type
REMARK                         _______ _______ _______ _____ _____    ______ ____
ROOT
ATOM      1  C   UNL     1       3.634   0.867  -0.866  0.00  0.00    +0.075 A 
ATOM      2  C   UNL     1       2.297   0.555  -0.724  0.00  0.00    +0.159 A 
ATOM      3  N   UNL     1       2.229  -0.808  -0.384  0.00  0.00    -0.280 N 
ATOM      4  C   UNL     1       1.256  -1.749  -0.113  0.00  0.00    +0.066 A 
ATOM      5  C   UNL     1       1.602  -3.019   0.177  0.00  0.00    +0.015 A 
ATOM      6  S   UNL     1       3.383  -2.944   0.070  0.00  0.00    -0.054 S 
ATOM      7  C   UNL     1       3.524  -1.223  -0.354  0.00  0.00    +0.179 A 
ATOM      8  N   UNL     1       4.337  -0.235  -0.635  0.00  0.00    -0.225 NA
ATOM      9  C   UNL     1       0.718  -4.195   0.506  0.00  0.00    +0.054 C 
ENDROOT
BRANCH   4  10
ATOM     10  C   UNL     1      -0.171  -1.360  -0.135  0.00  0.00    -0.000 A 
ATOM     11  C   UNL     1      -0.625  -0.316   0.671  0.00  0.00    +0.011 A 
ATOM     12  C   UNL     1      -1.956   0.046   0.643  0.00  0.00    +0.020 A 
ATOM     13  C   UNL     1      -2.843  -0.633  -0.175  0.00  0.00    +0.041 A 
ATOM     14  C   UNL     1      -2.400  -1.674  -0.973  0.00  0.00    +0.020 A 
ATOM     15  C   UNL     1      -1.070  -2.041  -0.957  0.00  0.00    +0.011 A 
ATOM     16 CL   UNL     1      -4.518  -0.177  -0.201  0.00  0.00    -0.084 Cl
ENDBRANCH   4  10
BRANCH   2  17
ATOM     17  C   UNL     1       1.204   1.439  -0.883  0.00  0.00    +0.405 C 
ATOM     18  O   UNL     1       0.905   2.205   0.015  0.00  0.00    -0.239 OA
ATOM     19  O   UNL     1       0.491   1.432  -2.029  0.00  0.00    -0.239 OA
ENDBRANCH   2  17
BRANCH   1  21
ATOM     20  C   UNL     1       4.456   3.016   0.059  0.00  0.00    +0.010 C 
ATOM     21  C   UNL     1       4.195   2.220  -1.221  0.00  0.00    +0.054 C 
ENDBRANCH   1  21
TORSDOF 3
