REMARK  Name = ZINC09332686
REMARK  1 active torsions:
REMARK  status: ('A' for Active; 'I' for Inactive)
REMARK    1  A    between atoms: N_20  and  C_23
REMARK                            x       y       z     vdW  Elec       q    Type
REMARK                         _______ _______ _______ _____ _____    ______ ____
ROOT
ATOM      1  C   UNL     1      -2.684  -2.273   3.115  0.00  0.00    +0.040 A 
ATOM      2  C   UNL     1      -2.066  -3.331   3.748  0.00  0.00    +0.026 A 
ATOM      3  C   UNL     1      -1.182  -4.149   3.048  0.00  0.00    +0.036 A 
ATOM      4  C   UNL     1      -0.935  -3.880   1.705  0.00  0.00    -0.024 A 
ATOM      5  C   UNL     1      -1.554  -2.825   1.074  0.00  0.00    +0.043 A 
ATOM      6  C   UNL     1      -2.432  -2.016   1.778  0.00  0.00    +0.124 A 
ATOM      7  F   UNL     1      -3.041  -0.979   1.161  0.00  0.00    -0.205 F 
ATOM      8  C   UNL     1       0.048  -4.923   1.250  0.00  0.00    +0.053 C 
ATOM      9  C   UNL     1       1.343  -4.281   0.739  0.00  0.00    +0.089 C 
ATOM     10  C   UNL     1       1.195  -4.274  -0.807  0.00  0.00    +0.074 C 
ATOM     11  C   UNL     1      -0.178  -4.914  -1.083  0.00  0.00    -0.054 C 
ATOM     12  C   UNL     1       0.312  -6.960  -0.025  0.00  0.00    -0.076 C 
ATOM     13  C   UNL     1       0.260  -7.285  -1.531  0.00  0.00    -0.020 C 
ATOM     14  C   UNL     1      -0.042  -5.941  -2.222  0.00  0.00    -0.016 C 
ATOM     15  C   UNL     1       1.134  -2.802  -1.145  0.00  0.00    +0.228 C 
ATOM     16  O   UNL     1       1.014  -2.344  -2.261  0.00  0.00    -0.275 OA
ATOM     17  N   UNL     1       1.237  -2.083  -0.021  0.00  0.00    -0.209 N 
ATOM     18  C   UNL     1       1.357  -2.811   1.095  0.00  0.00    +0.229 C 
ATOM     19  O   UNL     1       1.460  -2.363   2.216  0.00  0.00    -0.275 OA
ATOM     20  C   UNL     1       0.302  -5.774   2.465  0.00  0.00    +0.212 C 
ATOM     21  O   UNL     1       1.037  -6.737   2.533  0.00  0.00    -0.277 OA
ATOM     22  N   UNL     1      -0.445  -5.262   3.461  0.00  0.00    -0.286 N 
ATOM     23  H   UNL     1      -0.469  -5.623   4.361  0.00  0.00    +0.155 HD
ATOM     24  N   UNL     1      -0.439  -5.699   0.101  0.00  0.00    +0.395 N 
ATOM     25  H   UNL     1      -1.443  -5.892   0.200  0.00  0.00    -0.079 HD
ENDROOT
BRANCH  17  26
ATOM     26  C   UNL     1       1.215  -0.681  -0.013  0.00  0.00    +0.064 A 
ATOM     27  C   UNL     1       0.003  -0.004  -0.021  0.00  0.00    +0.045 A 
ATOM     28  C   UNL     1      -0.015   1.378  -0.013  0.00  0.00    +0.043 A 
ATOM     29  C   UNL     1       1.173   2.087   0.004  0.00  0.00    +0.021 A 
ATOM     30  C   UNL     1       2.381   1.416   0.012  0.00  0.00    +0.023 A 
ATOM     31  C   UNL     1       2.406   0.034   0.003  0.00  0.00    +0.063 A 
ATOM     32 CL   UNL     1       3.924  -0.808   0.013  0.00  0.00    -0.082 Cl
ATOM     33 CL   UNL     1      -1.531   2.224  -0.022  0.00  0.00    -0.083 Cl
ENDBRANCH  17  26
TORSDOF 1
