REMARK  Name = ZINC41584723
REMARK  5 active torsions:
REMARK  status: ('A' for Active; 'I' for Inactive)
REMARK    1  A    between atoms: C_1  and  C_2
REMARK    2  A    between atoms: C_4  and  O_38
REMARK    3  A    between atoms: C_5  and  C_21
REMARK    4  A    between atoms: C_11  and  C_12
REMARK    5  A    between atoms: C_21  and  N_22
REMARK                            x       y       z     vdW  Elec       q    Type
REMARK                         _______ _______ _______ _____ _____    ______ ____
ROOT
ATOM      1  C   UNL     1      -0.018   1.503   0.010  0.00  0.00    +0.045 C 
ATOM      2  C   UNL     1       0.002  -0.004   0.002  0.00  0.00    -0.033 A 
ATOM      3  C   UNL     1       0.006  -0.682  -1.184  0.00  0.00    +0.050 A 
ATOM      4  C   UNL     1       0.024  -2.074  -1.194  0.00  0.00    +0.122 A 
ATOM      5  C   UNL     1       0.039  -2.787  -0.007  0.00  0.00    +0.020 A 
ATOM      6  C   UNL     1       0.036  -2.114   1.208  0.00  0.00    +0.145 A 
ATOM      7  C   UNL     1       0.023  -0.709   1.206  0.00  0.00    +0.071 A 
ATOM      8  C   UNL     1       0.031  -0.291   2.619  0.00  0.00    +0.232 C 
ATOM      9  O   UNL     1       0.019   0.845   3.061  0.00  0.00    -0.283 OA
ATOM     10  C   UNL     1       0.055  -1.551   3.377  0.00  0.00    +0.176 C 
ATOM     11  C   UNL     1       0.070  -1.674   4.728  0.00  0.00    +0.062 C 
ATOM     12  O   UNL     1       0.048  -2.567   2.481  0.00  0.00    -0.451 OA
ENDROOT
BRANCH  11  13
ATOM     13  C   UNL     1       0.093  -3.007   5.343  0.00  0.00    +0.032 A 
ATOM     14  C   UNL     1      -0.822  -3.989   4.937  0.00  0.00    +0.132 A 
ATOM     15  C   UNL     1      -0.791  -5.240   5.522  0.00  0.00    +0.039 A 
ATOM     16  C   UNL     1       0.139  -5.525   6.506  0.00  0.00    +0.004 A 
ATOM     17  C   UNL     1       1.046  -4.562   6.913  0.00  0.00    +0.021 A 
ATOM     18  C   UNL     1       1.034  -3.308   6.337  0.00  0.00    +0.051 A 
ATOM     19 CL   UNL     1       2.178  -2.105   6.846  0.00  0.00    -0.083 Cl
ATOM     20  F   UNL     1      -1.731  -3.712   3.977  0.00  0.00    -0.205 F 
ENDBRANCH  11  13
BRANCH   4  21
ATOM     21  O   UNL     1       0.027  -2.738  -2.378  0.00  0.00    -0.506 OA
ATOM     22  H   UNL     1       0.911  -2.919  -2.726  0.00  0.00    +0.292 HD
ENDBRANCH   4  21
BRANCH   5  23
ATOM     23  C   UNL     1       0.059  -4.294  -0.033  0.00  0.00    -0.036 C 
BRANCH  23  24
ATOM     24  N   UNL     1       1.450  -4.766  -0.048  0.00  0.00    +0.383 N 
ATOM     25  C   UNL     1       1.470  -6.227   0.056  0.00  0.00    -0.073 C 
ATOM     26  C   UNL     1       2.894  -6.760   0.041  0.00  0.00    -0.007 C 
ATOM     27  C   UNL     1       3.635  -6.292  -1.216  0.00  0.00    +0.011 C 
ATOM     28  C   UNL     1       3.574  -4.760  -1.240  0.00  0.00    +0.020 C 
ATOM     29  C   UNL     1       2.094  -4.346  -1.301  0.00  0.00    -0.069 C 
ATOM     30  C   UNL     1       4.155  -4.222   0.048  0.00  0.00    +0.023 A 
ATOM     31  C   UNL     1       4.736  -2.994   0.010  0.00  0.00    +0.022 A 
ATOM     32  C   UNL     1       5.238  -2.408   1.178  0.00  0.00    +0.007 A 
ATOM     33  C   UNL     1       5.111  -3.079   2.358  0.00  0.00    +0.070 A 
ATOM     34  C   UNL     1       4.503  -4.343   2.363  0.00  0.00    +0.251 A 
ATOM     35  O   UNL     1       4.328  -4.925   3.422  0.00  0.00    -0.268 OA
ATOM     36  N   UNL     1       4.107  -4.924   1.204  0.00  0.00    -0.312 N 
ATOM     37  C   UNL     1       3.675  -6.317   1.267  0.00  0.00    +0.126 C 
ATOM     38  H   UNL     1       1.947  -4.368   0.734  0.00  0.00    -0.081 HD
ENDBRANCH  23  24
ENDBRANCH   5  23
TORSDOF 4
