REMARK  Name = ZINC63106931
REMARK  4 active torsions:
REMARK  status: ('A' for Active; 'I' for Inactive)
REMARK    1  A    between atoms: C_6  and  C_11
REMARK    2  A    between atoms: C_11  and  N_12
REMARK    3  A    between atoms: C_13  and  C_15
REMARK    4  A    between atoms: C_17  and  C_26
REMARK                            x       y       z     vdW  Elec       q    Type
REMARK                         _______ _______ _______ _____ _____    ______ ____
ROOT
ATOM      1  C   UNL     1       7.271  -3.049   2.371  0.00  0.00    +0.048 A 
ATOM      2  C   UNL     1       7.981  -2.429   1.354  0.00  0.00    +0.043 A 
ATOM      3  C   UNL     1       9.376  -2.311   1.459  0.00  0.00    +0.091 A 
ATOM      4  N   UNL     1      10.033  -2.776   2.502  0.00  0.00    -0.245 NA
ATOM      5  C   UNL     1       9.408  -3.382   3.513  0.00  0.00    +0.073 A 
ATOM      6  C   UNL     1       7.998  -3.537   3.488  0.00  0.00    +0.014 A 
ATOM      7  C   UNL     1       7.351  -4.170   4.556  0.00  0.00    +0.026 A 
ATOM      8  C   UNL     1       8.082  -4.628   5.612  0.00  0.00    +0.019 A 
ATOM      9  C   UNL     1       9.468  -4.472   5.644  0.00  0.00    +0.017 A 
ATOM     10  C   UNL     1      10.129  -3.872   4.618  0.00  0.00    +0.029 A 
ATOM     11 BR   UNL     1       7.206  -5.483   7.053  0.00  0.00    -0.050 Br
ENDROOT
BRANCH   3  12
ATOM     12  C   UNL     1      10.129  -1.647   0.367  0.00  0.00    +0.089 A 
ATOM     13  C   UNL     1      11.514  -1.528   0.456  0.00  0.00    +0.030 A 
ATOM     14  C   UNL     1      12.203  -0.906  -0.571  0.00  0.00    +0.004 A 
ATOM     15  C   UNL     1      11.483  -0.422  -1.654  0.00  0.00    +0.020 A 
ATOM     16  C   UNL     1      10.109  -0.575  -1.677  0.00  0.00    +0.111 A 
ATOM     17  N   UNL     1       9.478  -1.175  -0.689  0.00  0.00    -0.253 NA
ENDBRANCH   3  12
BRANCH   1  19
ATOM     18  N   UNL     1       5.117  -2.613   1.290  0.00  0.00    -0.309 N 
ATOM     19  C   UNL     1       5.801  -3.192   2.297  0.00  0.00    +0.245 C 
ATOM     20  O   UNL     1       5.209  -3.831   3.145  0.00  0.00    -0.270 OA
ATOM     21  H   UNL     1       5.590  -2.103   0.614  0.00  0.00    +0.149 HD
BRANCH  18  22
ATOM     22  C   UNL     1       3.661  -2.755   1.217  0.00  0.00    +0.133 C 
BRANCH  22  28
ATOM     23  C   UNL     1      -0.025   1.388   0.114  0.00  0.00    +0.001 A 
ATOM     24  C   UNL     1       1.156   2.142   0.120  0.00  0.00    +0.002 A 
ATOM     25  C   UNL     1       2.382   1.578   0.091  0.00  0.00    +0.026 A 
ATOM     26  C   UNL     1       2.521   0.163   0.053  0.00  0.00    +0.043 A 
ATOM     27  N   UNL     1       3.580  -0.610   0.020  0.00  0.00    -0.376 N 
ATOM     28  C   UNL     1       3.137  -2.008  -0.012  0.00  0.00    +0.120 C 
ATOM     29  C   UNL     1       1.626  -1.966   0.007  0.00  0.00    +0.009 C 
ATOM     30  C   UNL     1       1.288  -0.657   0.046  0.00  0.00    -0.004 A 
ATOM     31  C   UNL     1      -0.006   0.036   0.079  0.00  0.00    +0.010 A 
ATOM     32  H   UNL     1       4.501  -0.307   0.016  0.00  0.00    +0.160 HD
ENDBRANCH  22  28
ENDBRANCH  18  22
ENDBRANCH   1  19
TORSDOF 4
