REMARK  Name = ZINC53547972
REMARK  7 active torsions:
REMARK  status: ('A' for Active; 'I' for Inactive)
REMARK    1  A    between atoms: C_1  and  C_2
REMARK    2  A    between atoms: C_2  and  C_4
REMARK    3  A    between atoms: C_2  and  N_14
REMARK    4  A    between atoms: N_17  and  C_18
REMARK    5  A    between atoms: C_18  and  C_19
REMARK    6  A    between atoms: C_19  and  C_21
REMARK    7  A    between atoms: C_19  and  N_26
REMARK                            x       y       z     vdW  Elec       q    Type
REMARK                         _______ _______ _______ _____ _____    ______ ____
ROOT
ATOM      1  N   UNL     1      -1.340  -0.587  -0.001  0.00  0.00    -0.293 N 
ATOM      2  C   UNL     1      -1.980  -0.834  -1.161  0.00  0.00    +0.300 C 
ATOM      3  O   UNL     1      -1.380  -0.756  -2.216  0.00  0.00    -0.253 OA
ATOM      4  N   UNL     1      -3.286  -1.166  -1.152  0.00  0.00    -0.301 N 
ATOM      5  H   UNL     1      -1.819  -0.649   0.840  0.00  0.00    +0.151 HD
ATOM      6  H   UNL     1      -3.766  -1.227  -0.311  0.00  0.00    +0.150 HD
ENDROOT
BRANCH   1   8
ATOM      7  C   UNL     1       0.222   1.280  -0.239  0.00  0.00    +0.033 C 
ATOM      8  C   UNL     1       0.080  -0.226  -0.011  0.00  0.00    +0.102 C 
BRANCH   8   9
ATOM      9  C   UNL     1       0.701  -0.595   1.312  0.00  0.00    -0.024 A 
ATOM     10  C   UNL     1      -0.002  -0.391   2.485  0.00  0.00    +0.009 A 
ATOM     11  C   UNL     1       0.564  -0.726   3.700  0.00  0.00    +0.050 A 
ATOM     12  C   UNL     1       1.840  -1.268   3.746  0.00  0.00    +0.162 A 
ATOM     13  C   UNL     1       2.546  -1.476   2.567  0.00  0.00    +0.162 A 
ATOM     14  C   UNL     1       1.970  -1.141   1.351  0.00  0.00    +0.055 A 
ATOM     15  O   UNL     1       3.796  -2.014   2.589  0.00  0.00    -0.485 OA
ATOM     16  C   UNL     1       4.482  -1.996   3.845  0.00  0.00    +0.270 C 
ATOM     17  C   UNL     1       3.510  -2.476   4.931  0.00  0.00    +0.270 C 
ATOM     18  O   UNL     1       2.386  -1.589   4.951  0.00  0.00    -0.485 OA
ENDBRANCH   8   9
ENDBRANCH   1   8
BRANCH   4  19
ATOM     19  C   UNL     1      -3.983  -1.433  -2.413  0.00  0.00    +0.095 C 
BRANCH  19  20
ATOM     20  C   UNL     1      -5.405  -1.913  -2.119  0.00  0.00    -0.013 C 
BRANCH  20  21
ATOM     21  N   UNL     1      -6.145  -2.056  -3.380  0.00  0.00    +0.386 N 
ATOM     22  C   UNL     1      -7.536  -2.502  -3.110  0.00  0.00    -0.078 C 
ATOM     23  C   UNL     1      -8.301  -2.067  -4.385  0.00  0.00    -0.020 C 
ATOM     24  C   UNL     1      -7.644  -0.713  -4.738  0.00  0.00    -0.020 C 
ATOM     25  C   UNL     1      -6.265  -0.745  -4.053  0.00  0.00    -0.078 C 
ATOM     26  H   UNL     1      -5.678  -2.716  -3.984  0.00  0.00    -0.081 HD
ENDBRANCH  20  21
BRANCH  20  27
ATOM     27  C   UNL     1      -5.351  -3.244  -1.414  0.00  0.00    -0.022 A 
ATOM     28  C   UNL     1      -5.482  -3.516  -0.093  0.00  0.00    +0.009 A 
ATOM     29  C   UNL     1      -5.397  -4.829   0.333  0.00  0.00    +0.008 A 
ATOM     30  C   UNL     1      -5.184  -5.804  -0.584  0.00  0.00    +0.045 A 
ATOM     31  S   UNL     1      -5.105  -4.872  -2.104  0.00  0.00    -0.103 S 
ENDBRANCH  20  27
ENDBRANCH  19  20
ENDBRANCH   4  19
TORSDOF 6
