REMARK  Name = ZINC19923310
REMARK  18 active torsions:
REMARK  status: ('A' for Active; 'I' for Inactive)
REMARK    1  A    between atoms: C_1  and  C_2
REMARK    2  A    between atoms: C_2  and  C_3
REMARK    3  A    between atoms: C_3  and  C_4
REMARK    4  A    between atoms: C_4  and  N_5
REMARK    5  A    between atoms: N_5  and  C_6
REMARK    6  A    between atoms: N_5  and  C_10
REMARK    7  A    between atoms: C_6  and  C_7
REMARK    8  A    between atoms: C_7  and  C_8
REMARK    9  A    between atoms: C_8  and  C_9
REMARK   10  A    between atoms: C_10  and  C_11
REMARK   11  A    between atoms: C_11  and  C_12
REMARK   12  A    between atoms: C_12  and  N_13
REMARK   13  A    between atoms: C_14  and  C_30
REMARK   14  A    between atoms: C_16  and  C_21
REMARK   15  A    between atoms: C_21  and  C_23
REMARK   16  A    between atoms: C_26  and  C_29
REMARK   17  A    between atoms: C_33  and  C_36
REMARK   18  A    between atoms: C_36  and  C_37
REMARK                            x       y       z     vdW  Elec       q    Type
REMARK                         _______ _______ _______ _____ _____    ______ ____
ROOT
ATOM      1  N   UNL     1      -3.516   4.375  -0.196  0.00  0.00    -0.284 N 
ATOM      2  C   UNL     1      -2.380   3.471  -0.411  0.00  0.00    +0.145 C 
ATOM      3  C   UNL     1      -2.957   2.075  -0.464  0.00  0.00    +0.076 C 
ATOM      4  C   UNL     1      -4.295   2.199  -0.298  0.00  0.00    +0.249 C 
ATOM      5  C   UNL     1      -4.633   3.628  -0.127  0.00  0.00    +0.288 C 
ATOM      6  O   UNL     1      -5.753   4.064   0.046  0.00  0.00    -0.266 OA
ATOM      7  O   UNL     1      -5.182   1.178  -0.287  0.00  0.00    -0.282 OA
ENDROOT
BRANCH   2   8
ATOM      8  C   UNL     1      -1.696   3.798  -1.713  0.00  0.00    -0.022 A 
ATOM      9  C   UNL     1      -2.443   3.959  -2.865  0.00  0.00    +0.006 A 
ATOM     10  C   UNL     1      -1.817   4.264  -4.059  0.00  0.00    +0.004 A 
ATOM     11  C   UNL     1      -0.441   4.398  -4.102  0.00  0.00    -0.048 A 
ATOM     12  C   UNL     1       0.306   4.233  -2.951  0.00  0.00    +0.004 A 
ATOM     13  C   UNL     1      -0.321   3.933  -1.757  0.00  0.00    +0.006 A 
BRANCH  11  14
ATOM     14  C   UNL     1       0.243   4.725  -5.405  0.00  0.00    +0.032 C 
ATOM     15  C   UNL     1       0.602   3.428  -6.131  0.00  0.00    +0.009 C 
ENDBRANCH  11  14
ENDBRANCH   2   8
BRANCH   3  16
ATOM     16  C   UNL     1      -2.213   0.828  -0.663  0.00  0.00    +0.195 C 
ATOM     17  O   UNL     1      -2.401   0.160  -1.662  0.00  0.00    -0.287 OA
BRANCH  16  18
ATOM     18  C   UNL     1      -1.228   0.386   0.348  0.00  0.00    +0.022 A 
ATOM     19  C   UNL     1      -0.990   1.164   1.483  0.00  0.00    +0.012 A 
ATOM     20  C   UNL     1      -0.074   0.742   2.424  0.00  0.00    +0.004 A 
ATOM     21  C   UNL     1       0.616  -0.443   2.240  0.00  0.00    -0.050 A 
ATOM     22  C   UNL     1       0.389  -1.216   1.115  0.00  0.00    +0.004 A 
ATOM     23  C   UNL     1      -0.528  -0.809   0.169  0.00  0.00    +0.012 A 
ATOM     24  C   UNL     1       1.620  -0.893   3.270  0.00  0.00    +0.044 C 
ENDBRANCH  16  18
ENDBRANCH   3  16
BRANCH   1  25
ATOM     25  C   UNL     1      -3.445   5.834  -0.077  0.00  0.00    +0.107 C 
BRANCH  25  26
ATOM     26  C   UNL     1      -3.592   6.466  -1.462  0.00  0.00    +0.000 C 
BRANCH  26  27
ATOM     27  C   UNL     1      -3.518   7.989  -1.338  0.00  0.00    -0.077 C 
BRANCH  27  28
ATOM     28  N   UNL     1      -3.659   8.597  -2.668  0.00  0.00    +0.380 N 
ATOM     29  H   UNL     1      -4.564   8.181  -3.135  0.00  0.00    -0.082 HD
BRANCH  28  30
ATOM     30  C   UNL     1      -3.831  10.052  -2.567  0.00  0.00    -0.079 C 
BRANCH  30  31
ATOM     31  C   UNL     1      -5.261  10.367  -2.123  0.00  0.00    -0.019 C 
BRANCH  31  33
ATOM     32  C   UNL     1      -6.911  12.196  -1.704  0.00  0.00    +0.004 C 
ATOM     33  C   UNL     1      -5.481  11.881  -2.147  0.00  0.00    -0.005 C 
ENDBRANCH  31  33
ENDBRANCH  30  31
ENDBRANCH  28  30
BRANCH  28  34
ATOM     34  C   UNL     1      -2.513   8.260  -3.524  0.00  0.00    -0.079 C 
BRANCH  34  35
ATOM     35  C   UNL     1      -2.845   8.604  -4.978  0.00  0.00    -0.019 C 
BRANCH  35  36
ATOM     36  C   UNL     1      -1.626   8.323  -5.859  0.00  0.00    -0.005 C 
ATOM     37  C   UNL     1      -1.957   8.666  -7.312  0.00  0.00    +0.004 C 
ENDBRANCH  35  36
ENDBRANCH  34  35
ENDBRANCH  28  34
ENDBRANCH  27  28
ENDBRANCH  26  27
ENDBRANCH  25  26
ENDBRANCH   1  25
TORSDOF 14
