REMARK  Name = ZINC13271457
REMARK  12 active torsions:
REMARK  status: ('A' for Active; 'I' for Inactive)
REMARK    1  A    between atoms: C_1  and  C_2
REMARK    2  A    between atoms: C_2  and  C_3
REMARK    3  A    between atoms: C_2  and  C_4
REMARK    4  A    between atoms: C_4  and  C_6
REMARK    5  A    between atoms: C_4  and  N_8
REMARK    6  A    between atoms: C_9  and  C_28
REMARK    7  A    between atoms: C_12  and  S_13
REMARK    8  A    between atoms: S_13  and  C_14
REMARK    9  A    between atoms: C_14  and  C_15
REMARK   10  A    between atoms: N_17  and  C_18
REMARK   11  A    between atoms: C_22  and  N_24
REMARK   12  A    between atoms: C_25  and  C_27
REMARK                            x       y       z     vdW  Elec       q    Type
REMARK                         _______ _______ _______ _____ _____    ______ ____
ROOT
ATOM      1  N   UNL     1      -0.011  -0.026  -0.007  0.00  0.00    -0.287 N 
ATOM      2  C   UNL     1      -0.031   1.351  -0.019  0.00  0.00    +0.172 A 
ATOM      3  N   UNL     1       1.220   1.754  -0.041  0.00  0.00    -0.128 NA
ATOM      4  N   UNL     1       2.008   0.739  -0.044  0.00  0.00    -0.122 NA
ATOM      5  C   UNL     1       1.311  -0.374  -0.024  0.00  0.00    +0.193 A 
ENDROOT
BRANCH   2   6
ATOM      6  C   UNL     1      -1.227   2.209  -0.014  0.00  0.00    +0.056 A 
ATOM      7  C   UNL     1      -1.328   3.550   0.257  0.00  0.00    +0.019 A 
ATOM      8  C   UNL     1      -2.568   4.145   0.196  0.00  0.00    +0.008 A 
ATOM      9  C   UNL     1      -3.651   3.388  -0.119  0.00  0.00    +0.046 A 
ATOM     10  S   UNL     1      -2.925   1.774  -0.351  0.00  0.00    -0.094 S 
ENDBRANCH   2   6
BRANCH   1  11
ATOM     11  C   UNL     1      -1.164  -0.928   0.017  0.00  0.00    +0.206 C 
BRANCH  11  13
ATOM     12  C   UNL     1      -1.129  -0.907   2.515  0.00  0.00    +0.010 C 
ATOM     13  C   UNL     1      -1.104  -1.800   1.273  0.00  0.00    +0.017 C 
ATOM     14  C   UNL     1      -2.309  -2.743   1.298  0.00  0.00    +0.010 C 
ENDBRANCH  11  13
BRANCH  11  15
ATOM     15  C   UNL     1      -1.140  -1.808  -1.207  0.00  0.00    +0.379 C 
ATOM     16  O   UNL     1      -1.080  -3.009  -1.086  0.00  0.00    -0.244 OA
ATOM     17  O   UNL     1      -1.184  -1.258  -2.430  0.00  0.00    -0.244 OA
ENDBRANCH  11  15
ENDBRANCH   1  11
BRANCH   5  18
ATOM     18  S   UNL     1       1.960  -2.013  -0.020  0.00  0.00    -0.077 S 
BRANCH  18  19
ATOM     19  C   UNL     1       3.733  -1.649  -0.049  0.00  0.00    +0.173 C 
BRANCH  19  20
ATOM     20  C   UNL     1       4.510  -2.940  -0.050  0.00  0.00    +0.227 C 
ATOM     21  O   UNL     1       3.924  -4.001  -0.032  0.00  0.00    -0.275 OA
ATOM     22  N   UNL     1       5.858  -2.915  -0.070  0.00  0.00    -0.285 N 
ATOM     23  H   UNL     1       6.326  -2.069  -0.152  0.00  0.00    +0.155 HD
BRANCH  22  24
ATOM     24  C   UNL     1       6.581  -4.109   0.027  0.00  0.00    +0.035 A 
ATOM     25  C   UNL     1       6.089  -5.269  -0.557  0.00  0.00    +0.023 A 
ATOM     26  C   UNL     1       6.803  -6.448  -0.462  0.00  0.00    +0.004 A 
ATOM     27  C   UNL     1       8.008  -6.477   0.214  0.00  0.00    +0.023 A 
ATOM     28  C   UNL     1       8.505  -5.320   0.800  0.00  0.00    +0.035 A 
ATOM     29  C   UNL     1       7.793  -4.133   0.702  0.00  0.00    +0.046 A 
BRANCH  28  30
ATOM     30  N   UNL     1       9.725  -5.350   1.485  0.00  0.00    -0.286 N 
ATOM     31  C   UNL     1      10.722  -6.146   1.050  0.00  0.00    +0.214 C 
ATOM     32  O   UNL     1      10.535  -6.897   0.117  0.00  0.00    -0.276 OA
ATOM     33  C   UNL     1      12.070  -6.102   1.724  0.00  0.00    +0.109 C 
ATOM     34  H   UNL     1       9.853  -4.799   2.272  0.00  0.00    +0.155 HD
ENDBRANCH  28  30
ENDBRANCH  22  24
ENDBRANCH  19  20
ENDBRANCH  18  19
ENDBRANCH   5  18
TORSDOF 9
