REMARK  Name = ZINC35890468
REMARK  3 active torsions:
REMARK  status: ('A' for Active; 'I' for Inactive)
REMARK    1  A    between atoms: C_1  and  C_2
REMARK    2  A    between atoms: N_18  and  S_21
REMARK    3  A    between atoms: S_21  and  C_24
REMARK                            x       y       z     vdW  Elec       q    Type
REMARK                         _______ _______ _______ _____ _____    ______ ____
ROOT
ATOM      1  C   UNL     1       2.646   0.884   2.066  0.00  0.00    +0.088 C 
ATOM      2  C   UNL     1       2.224  -0.521   1.717  0.00  0.00    +0.137 A 
ATOM      3  N   UNL     1       2.974  -1.439   1.167  0.00  0.00    -0.134 NA
ATOM      4  N   UNL     1       2.303  -2.525   1.005  0.00  0.00    -0.129 NA
ATOM      5  C   UNL     1       1.080  -2.357   1.447  0.00  0.00    +0.173 A 
ATOM      6  N   UNL     1       0.994  -1.068   1.923  0.00  0.00    -0.250 N 
ATOM      7  C   UNL     1      -0.180  -0.609   2.457  0.00  0.00    +0.206 A 
ATOM      8  N   UNL     1      -1.253  -1.350   2.545  0.00  0.00    -0.215 NA
ATOM      9  C   UNL     1      -1.281  -2.635   2.111  0.00  0.00    +0.078 A 
ATOM     10  C   UNL     1      -0.119  -3.198   1.535  0.00  0.00    +0.045 A 
ATOM     11  C   UNL     1      -0.132  -4.516   1.087  0.00  0.00    +0.014 A 
ATOM     12  C   UNL     1      -1.287  -5.261   1.194  0.00  0.00    +0.001 A 
ATOM     13  C   UNL     1      -2.434  -4.707   1.744  0.00  0.00    +0.002 A 
ATOM     14  C   UNL     1      -2.437  -3.412   2.213  0.00  0.00    +0.028 A 
ATOM     15  N   UNL     1      -0.233   0.683   2.919  0.00  0.00    -0.298 N 
ATOM     16  C   UNL     1      -0.498   1.797   1.998  0.00  0.00    +0.125 C 
ATOM     17  C   UNL     1      -1.707   2.586   2.516  0.00  0.00    +0.128 C 
ATOM     18  N   UNL     1      -1.500   2.879   3.941  0.00  0.00    -0.174 NA
ATOM     19  C   UNL     1      -1.236   1.765   4.863  0.00  0.00    +0.128 C 
ATOM     20  C   UNL     1      -0.032   0.977   4.345  0.00  0.00    +0.125 C 
ENDROOT
BRANCH  18  21
ATOM     21  S   UNL     1      -1.564   4.437   4.498  0.00  0.00    +0.061 S 
ATOM     22  O   UNL     1      -0.807   4.470   5.701  0.00  0.00    -0.153 OA
ATOM     23  O   UNL     1      -1.270   5.277   3.390  0.00  0.00    -0.153 OA
BRANCH  21  24
ATOM     24  C   UNL     1      -3.236   4.762   4.948  0.00  0.00    +0.106 A 
ATOM     25  C   UNL     1      -4.116   5.272   4.011  0.00  0.00    +0.031 A 
ATOM     26  C   UNL     1      -5.428   5.527   4.362  0.00  0.00    +0.040 A 
ATOM     27  C   UNL     1      -5.862   5.271   5.652  0.00  0.00    +0.124 A 
ATOM     28  C   UNL     1      -4.979   4.760   6.589  0.00  0.00    +0.040 A 
ATOM     29  C   UNL     1      -3.669   4.501   6.234  0.00  0.00    +0.031 A 
ATOM     30  F   UNL     1      -7.144   5.520   5.997  0.00  0.00    -0.205 F 
ENDBRANCH  21  24
ENDBRANCH  18  21
TORSDOF 2
