REMARK  Name = ZINC03000319
REMARK  8 active torsions:
REMARK  status: ('A' for Active; 'I' for Inactive)
REMARK    1  A    between atoms: C_4  and  C_7
REMARK    2  A    between atoms: C_7  and  C_8
REMARK    3  A    between atoms: C_8  and  N_54
REMARK    4  A    between atoms: C_9  and  C_10
REMARK    5  A    between atoms: C_9  and  N_54
REMARK    6  A    between atoms: N_12  and  C_13
REMARK    7  A    between atoms: C_14  and  C_21
REMARK    8  A    between atoms: N_23  and  C_24
REMARK                            x       y       z     vdW  Elec       q    Type
REMARK                         _______ _______ _______ _____ _____    ______ ____
ROOT
ATOM      1  C   UNL     1       0.005  -0.017   0.008  0.00  0.00    +0.084 A 
ATOM      2  C   UNL     1      -1.073  -0.885   0.013  0.00  0.00    +0.069 A 
ATOM      3  C   UNL     1      -0.787  -2.320  -0.008  0.00  0.00    -0.023 A 
ATOM      4  C   UNL     1       0.519  -2.641  -0.022  0.00  0.00    -0.004 A 
ATOM      5  S   UNL     1       1.369  -1.081  -0.012  0.00  0.00    -0.077 S 
ATOM      6  C   UNL     1       0.733  -4.130  -0.041  0.00  0.00    +0.043 C 
ATOM      7  C   UNL     1      -0.630  -4.714  -0.474  0.00  0.00    +0.010 C 
ATOM      8  C   UNL     1      -1.604  -3.612  -0.012  0.00  0.00    +0.037 C 
ENDROOT
BRANCH   1  11
ATOM      9  C   UNL     1       1.156   2.053   0.020  0.00  0.00    +0.201 C 
ATOM     10  O   UNL     1       2.211   1.455   0.006  0.00  0.00    -0.278 OA
ATOM     11  N   UNL     1      -0.005   1.370   0.022  0.00  0.00    -0.281 N 
ATOM     12  H   UNL     1      -0.849   1.848   0.029  0.00  0.00    +0.155 HD
BRANCH   9  13
ATOM     13  C   UNL     1       1.145   3.560   0.035  0.00  0.00    +0.015 C 
BRANCH  13  14
ATOM     14  N   UNL     1       2.535   4.054   0.029  0.00  0.00    +0.385 N 
ATOM     15  H   UNL     1       3.023   3.700   0.861  0.00  0.00    -0.085 HD
ATOM     16  H   UNL     1       3.010   3.717  -0.816  0.00  0.00    -0.085 HD
BRANCH  14  17
ATOM     17  C   UNL     1       2.554   5.529   0.044  0.00  0.00    -0.077 C 
BRANCH  17  18
ATOM     18  C   UNL     1       4.006   6.011   0.038  0.00  0.00    +0.016 C 
BRANCH  18  22
ATOM     19  C   UNL     1       4.087  10.282   0.080  0.00  0.00    +0.000 A 
ATOM     20  C   UNL     1       4.083   9.579   1.270  0.00  0.00    +0.000 A 
ATOM     21  C   UNL     1       4.057   8.197   1.256  0.00  0.00    +0.003 A 
ATOM     22  C   UNL     1       4.034   7.518   0.053  0.00  0.00    -0.049 A 
ATOM     23  C   UNL     1       4.044   8.221  -1.138  0.00  0.00    +0.003 A 
ATOM     24  C   UNL     1       4.065   9.603  -1.124  0.00  0.00    +0.000 A 
ENDBRANCH  18  22
ENDBRANCH  17  18
ENDBRANCH  14  17
ENDBRANCH  13  14
ENDBRANCH   9  13
ENDBRANCH   1  11
BRANCH   2  25
ATOM     25  C   UNL     1      -2.451  -0.386   0.035  0.00  0.00    +0.251 C 
ATOM     26  O   UNL     1      -3.036  -0.169  -1.010  0.00  0.00    -0.270 OA
ATOM     27  N   UNL     1      -3.070  -0.167   1.212  0.00  0.00    -0.281 N 
ATOM     28  H   UNL     1      -2.628  -0.402   2.043  0.00  0.00    +0.155 HD
BRANCH  27  29
ATOM     29  C   UNL     1      -4.348   0.400   1.236  0.00  0.00    +0.034 A 
ATOM     30  C   UNL     1      -4.708   1.263   2.263  0.00  0.00    +0.024 A 
ATOM     31  C   UNL     1      -5.969   1.826   2.280  0.00  0.00    +0.017 A 
ATOM     32  C   UNL     1      -6.878   1.522   1.281  0.00  0.00    +0.018 A 
ATOM     33  C   UNL     1      -6.524   0.658   0.260  0.00  0.00    +0.017 A 
ATOM     34  C   UNL     1      -5.262   0.097   0.235  0.00  0.00    +0.024 A 
ATOM     35 BR   UNL     1      -8.606   2.289   1.312  0.00  0.00    -0.050 Br
ENDBRANCH  27  29
ENDBRANCH   2  25
TORSDOF 8
