REMARK  Name = ZINC58878373
REMARK  9 active torsions:
REMARK  status: ('A' for Active; 'I' for Inactive)
REMARK    1  A    between atoms: C_1  and  O_2
REMARK    2  A    between atoms: O_2  and  C_3
REMARK    3  A    between atoms: C_8  and  C_9
REMARK    4  A    between atoms: C_9  and  C_11
REMARK    5  A    between atoms: C_9  and  N_26
REMARK    6  A    between atoms: C_11  and  N_12
REMARK    7  A    between atoms: N_15  and  C_16
REMARK    8  A    between atoms: C_21  and  S_22
REMARK    9  A    between atoms: S_22  and  C_23
REMARK                            x       y       z     vdW  Elec       q    Type
REMARK                         _______ _______ _______ _____ _____    ______ ____
ROOT
ATOM      1  C   UNL     1       0.902  -2.734   1.250  0.00  0.00    +0.095 C 
ENDROOT
BRANCH   1   2
ATOM      2  N   UNL     1       2.195  -3.390   1.034  0.00  0.00    -0.300 N 
ATOM      3  C   UNL     1       3.075  -3.494   2.049  0.00  0.00    +0.304 C 
ATOM      4  O   UNL     1       2.797  -3.045   3.144  0.00  0.00    -0.253 OA
ATOM      5  N   UNL     1       4.264  -4.097   1.851  0.00  0.00    -0.268 N 
ATOM      6  H   UNL     1       2.417  -3.748   0.161  0.00  0.00    +0.150 HD
ATOM      7  H   UNL     1       4.456  -4.523   1.001  0.00  0.00    +0.156 HD
BRANCH   5   8
ATOM      8  C   UNL     1       5.224  -4.109   2.873  0.00  0.00    +0.048 A 
ATOM      9  C   UNL     1       4.826  -4.176   4.199  0.00  0.00    +0.024 A 
ATOM     10  C   UNL     1       5.774  -4.187   5.206  0.00  0.00    +0.002 A 
ATOM     11  C   UNL     1       7.120  -4.130   4.894  0.00  0.00    +0.001 A 
ATOM     12  C   UNL     1       7.526  -4.064   3.575  0.00  0.00    +0.017 A 
ATOM     13  C   UNL     1       6.582  -4.058   2.558  0.00  0.00    +0.034 A 
BRANCH  13  14
ATOM     14  S   UNL     1       7.096  -3.981   0.875  0.00  0.00    -0.054 S 
BRANCH  14  15
ATOM     15  C   UNL     1       8.907  -3.933   0.971  0.00  0.00    +0.404 C 
ATOM     16  F   UNL     1       9.306  -2.805   1.697  0.00  0.00    -0.197 F 
ATOM     17  F   UNL     1       9.371  -5.087   1.611  0.00  0.00    -0.197 F 
ENDBRANCH  14  15
ENDBRANCH  13  14
ENDBRANCH   5   8
ENDBRANCH   1   2
BRANCH   1  18
ATOM     18  C   UNL     1       0.048  -2.863  -0.013  0.00  0.00    -0.017 C 
BRANCH  18  24
ATOM     19  C   UNL     1       0.579  -0.740  -1.238  0.00  0.00    +0.122 A 
ATOM     20  C   UNL     1       1.194  -0.057  -2.278  0.00  0.00    +0.046 A 
ATOM     21  C   UNL     1       1.928  -0.751  -3.219  0.00  0.00    +0.004 A 
ATOM     22  C   UNL     1       2.052  -2.125  -3.126  0.00  0.00    +0.000 A 
ATOM     23  C   UNL     1       1.441  -2.808  -2.092  0.00  0.00    +0.005 A 
ATOM     24  C   UNL     1       0.709  -2.118  -1.144  0.00  0.00    -0.018 A 
BRANCH  19  26
ATOM     25  C   UNL     1      -0.235   1.357  -0.470  0.00  0.00    +0.277 C 
ATOM     26  O   UNL     1      -0.144  -0.060  -0.310  0.00  0.00    -0.495 OA
ENDBRANCH  19  26
ENDBRANCH  18  24
BRANCH  18  27
ATOM     27  N   UNL     1      -0.085  -4.281  -0.372  0.00  0.00    +0.385 N 
ATOM     28  C   UNL     1      -0.905  -4.409  -1.595  0.00  0.00    -0.078 C 
ATOM     29  C   UNL     1      -1.730  -5.703  -1.385  0.00  0.00    -0.020 C 
ATOM     30  C   UNL     1      -2.038  -5.634   0.134  0.00  0.00    -0.020 C 
ATOM     31  C   UNL     1      -0.756  -5.008   0.721  0.00  0.00    -0.078 C 
ATOM     32  H   UNL     1       0.828  -4.678  -0.534  0.00  0.00    -0.081 HD
ENDBRANCH  18  27
ENDBRANCH   1  18
TORSDOF 8
