REMARK  Name = ZINC33374607
REMARK  8 active torsions:
REMARK  status: ('A' for Active; 'I' for Inactive)
REMARK    1  A    between atoms: C_1  and  C_2
REMARK    2  A    between atoms: C_7  and  C_8
REMARK    3  A    between atoms: C_13  and  C_33
REMARK    4  A    between atoms: C_16  and  C_20
REMARK    5  A    between atoms: C_17  and  C_18
REMARK    6  A    between atoms: C_17  and  C_19
REMARK    7  A    between atoms: N_22  and  C_23
REMARK    8  A    between atoms: C_25  and  N_30
REMARK                            x       y       z     vdW  Elec       q    Type
REMARK                         _______ _______ _______ _____ _____    ______ ____
ROOT
ATOM      1  C   UNL     1       2.548  -4.186   0.010  0.00  0.00    +0.044 C 
ATOM      2  C   UNL     1       2.484  -2.681   0.005  0.00  0.00    -0.045 A 
ATOM      3  C   UNL     1       1.272  -2.061   0.020  0.00  0.00    +0.033 A 
ATOM      4  C   UNL     1       1.208  -0.657   0.016  0.00  0.00    +0.090 A 
ATOM      5  C   UNL     1       2.411   0.093  -0.001  0.00  0.00    +0.090 A 
ATOM      6  C   UNL     1       3.643  -0.583  -0.020  0.00  0.00    +0.033 A 
ATOM      7  C   UNL     1       3.666  -1.943  -0.016  0.00  0.00    -0.045 A 
ATOM      8  C   UNL     1       4.990  -2.663  -0.035  0.00  0.00    +0.044 C 
ATOM      9  N   UNL     1       2.358   1.431   0.001  0.00  0.00    -0.247 NA
ATOM     10  C   UNL     1       1.196   2.029   0.018  0.00  0.00    +0.079 A 
ATOM     11  C   UNL     1       0.004   1.286   0.032  0.00  0.00    +0.071 A 
ATOM     12  N   UNL     1       0.029  -0.021   0.030  0.00  0.00    -0.248 NA
ATOM     13  C   UNL     1      -1.153   2.288   0.054  0.00  0.00    +0.018 C 
ATOM     14  C   UNL     1      -1.130   2.935  -1.367  0.00  0.00    +0.015 C 
ATOM     15  C   UNL     1       0.189   3.754  -1.386  0.00  0.00    +0.024 C 
ATOM     16  C   UNL     1       0.805   3.509   0.028  0.00  0.00    +0.097 C 
ATOM     17  C   UNL     1      -0.503   3.442   0.897  0.00  0.00    -0.005 C 
ATOM     18  C   UNL     1      -0.222   3.015   2.339  0.00  0.00    +0.013 C 
ATOM     19  C   UNL     1      -1.312   4.739   0.833  0.00  0.00    +0.013 C 
ATOM     20  C   UNL     1      -2.499   1.756   0.548  0.00  0.00    +0.018 C 
ENDROOT
BRANCH  16  21
ATOM     21  C   UNL     1       1.868   4.475   0.484  0.00  0.00    +0.230 C 
ATOM     22  O   UNL     1       1.679   5.168   1.461  0.00  0.00    -0.274 OA
ATOM     23  N   UNL     1       3.029   4.569  -0.194  0.00  0.00    -0.284 N 
ATOM     24  H   UNL     1       3.231   3.890  -1.036  0.00  0.00    +0.155 HD
BRANCH  23  25
ATOM     25  C   UNL     1       3.977   5.531   0.172  0.00  0.00    +0.050 A 
ATOM     26  C   UNL     1       4.140   5.875   1.507  0.00  0.00    +0.057 A 
ATOM     27  C   UNL     1       5.077   6.824   1.865  0.00  0.00    +0.128 A 
ATOM     28  C   UNL     1       5.853   7.433   0.896  0.00  0.00    +0.034 A 
ATOM     29  C   UNL     1       5.694   7.093  -0.435  0.00  0.00    +0.019 A 
ATOM     30  C   UNL     1       4.762   6.141  -0.800  0.00  0.00    +0.039 A 
ATOM     31 BR   UNL     1       4.549   5.672  -2.619  0.00  0.00    -0.048 Br
BRANCH  27  32
ATOM     32  N   UNL     1       5.251   7.190   3.289  0.00  0.00    +0.056 N 
ATOM     33  O   UNL     1       4.569   6.655   4.144  0.00  0.00    -0.126 OA
ATOM     34  O   UNL     1       6.077   8.027   3.606  0.00  0.00    -0.126 OA
ENDBRANCH  27  32
ENDBRANCH  23  25
ENDBRANCH  16  21
TORSDOF 3
