REMARK  Name = ZINC16531105
REMARK  20 active torsions:
REMARK  status: ('A' for Active; 'I' for Inactive)
REMARK    1  A    between atoms: C_1  and  C_2
REMARK    2  A    between atoms: C_2  and  N_3
REMARK    3  A    between atoms: N_3  and  C_4
REMARK    4  A    between atoms: N_3  and  C_6
REMARK    5  A    between atoms: C_4  and  C_5
REMARK    6  A    between atoms: C_6  and  C_7
REMARK    7  A    between atoms: C_7  and  C_8
REMARK    8  A    between atoms: C_8  and  C_9
REMARK    9  A    between atoms: C_9  and  C_11
REMARK   10  A    between atoms: C_9  and  N_12
REMARK   11  A    between atoms: C_13  and  O_25
REMARK   12  A    between atoms: N_14  and  C_15
REMARK   13  A    between atoms: C_15  and  C_17
REMARK   14  A    between atoms: C_21  and  O_23
REMARK   15  A    between atoms: O_23  and  C_24
REMARK   16  A    between atoms: O_25  and  C_26
REMARK   17  A    between atoms: C_26  and  C_27
REMARK   18  A    between atoms: C_27  and  O_28
REMARK   19  A    between atoms: O_28  and  C_29
REMARK   20  A    between atoms: C_29  and  C_30
REMARK                            x       y       z     vdW  Elec       q    Type
REMARK                         _______ _______ _______ _____ _____    ______ ____
ROOT
ATOM      1  N   UNL     1       3.299  -2.124  -4.706  0.00  0.00    -0.299 N 
ATOM      2  C   UNL     1       3.356  -2.725  -5.926  0.00  0.00    +0.274 C 
ATOM      3  N   UNL     1       2.881  -2.104  -6.992  0.00  0.00    -0.127 NA
ATOM      4  H   UNL     1       3.895  -1.387  -4.500  0.00  0.00    +0.150 HD
ENDROOT
BRANCH   1   5
ATOM      5  C   UNL     1       2.336  -2.589  -3.705  0.00  0.00    +0.071 C 
ATOM      6  C   UNL     1       0.973  -2.802  -4.368  0.00  0.00    +0.028 C 
BRANCH   5   7
ATOM      7  C   UNL     1       2.205  -1.541  -2.598  0.00  0.00    +0.020 C 
BRANCH   7   8
ATOM      8  C   UNL     1       3.536  -1.418  -1.853  0.00  0.00    -0.017 C 
BRANCH   8   9
ATOM      9  C   UNL     1       3.405  -0.370  -0.746  0.00  0.00    -0.079 C 
BRANCH   9  10
ATOM     10  N   UNL     1       4.637  -0.347   0.055  0.00  0.00    +0.379 N 
ATOM     11  H   UNL     1       4.834  -1.276   0.396  0.00  0.00    -0.082 HD
BRANCH  10  13
ATOM     12  C   UNL     1       7.058   0.021   0.016  0.00  0.00    -0.017 C 
ATOM     13  C   UNL     1       5.755   0.115  -0.779  0.00  0.00    -0.082 C 
ENDBRANCH  10  13
BRANCH  10  14
ATOM     14  C   UNL     1       4.465   0.566   1.192  0.00  0.00    -0.082 C 
ATOM     15  C   UNL     1       3.429  -0.013   2.159  0.00  0.00    -0.017 C 
ENDBRANCH  10  14
ENDBRANCH   9  10
ENDBRANCH   8   9
ENDBRANCH   7   8
ENDBRANCH   5   7
ENDBRANCH   1   5
BRANCH   3  16
ATOM     16  C   UNL     1       2.824  -2.743  -8.170  0.00  0.00    +0.271 C 
ATOM     17  O   UNL     1       3.113  -3.924  -8.236  0.00  0.00    -0.268 OA
BRANCH  16  18
ATOM     18  C   UNL     1       2.409  -2.012  -9.389  0.00  0.00    +0.042 A 
ATOM     19  C   UNL     1       2.084  -0.657  -9.316  0.00  0.00    +0.013 A 
ATOM     20  C   UNL     1       1.698   0.021 -10.454  0.00  0.00    +0.004 A 
ATOM     21  C   UNL     1       1.633  -0.637 -11.668  0.00  0.00    +0.045 A 
ATOM     22  C   UNL     1       1.955  -1.985 -11.750  0.00  0.00    +0.121 A 
ATOM     23  C   UNL     1       2.349  -2.674 -10.615  0.00  0.00    +0.058 A 
BRANCH  22  24
ATOM     24  O   UNL     1       1.889  -2.628 -12.946  0.00  0.00    -0.495 OA
ATOM     25  C   UNL     1       1.481  -1.855 -14.076  0.00  0.00    +0.277 C 
ENDBRANCH  22  24
ENDBRANCH  16  18
ENDBRANCH   3  16
BRANCH   2  26
ATOM     26  O   UNL     1       3.897  -3.952  -6.047  0.00  0.00    -0.465 OA
BRANCH  26  27
ATOM     27  C   UNL     1       4.365  -4.575  -4.849  0.00  0.00    +0.260 C 
BRANCH  27  28
ATOM     28  C   UNL     1       5.886  -4.729  -4.915  0.00  0.00    +0.201 C 
BRANCH  28  29
ATOM     29  O   UNL     1       6.495  -3.437  -4.932  0.00  0.00    -0.377 OA
BRANCH  29  30
ATOM     30  C   UNL     1       7.922  -3.467  -4.994  0.00  0.00    +0.156 C 
ATOM     31  C   UNL     1       8.463  -2.036  -5.007  0.00  0.00    +0.034 C 
ENDBRANCH  29  30
ENDBRANCH  28  29
ENDBRANCH  27  28
ENDBRANCH  26  27
ENDBRANCH   2  26
TORSDOF 15
