REMARK  Name = ZINC20837390
REMARK  10 active torsions:
REMARK  status: ('A' for Active; 'I' for Inactive)
REMARK    1  A    between atoms: C_1  and  N_2
REMARK    2  A    between atoms: N_2  and  C_3
REMARK    3  A    between atoms: N_2  and  S_4
REMARK    4  A    between atoms: S_4  and  C_7
REMARK    5  A    between atoms: C_10  and  C_13
REMARK    6  A    between atoms: C_13  and  C_15
REMARK    7  A    between atoms: C_16  and  C_17
REMARK    8  A    between atoms: C_19  and  O_25
REMARK    9  A    between atoms: C_20  and  O_24
REMARK   10  A    between atoms: O_25  and  C_26
REMARK                            x       y       z     vdW  Elec       q    Type
REMARK                         _______ _______ _______ _____ _____    ______ ____
ROOT
ATOM      1  C   UNL     1      -3.119   3.065   4.888  0.00  0.00    +0.186 C 
ATOM      2  O   UNL     1      -3.928   2.301   5.381  0.00  0.00    -0.287 OA
ENDROOT
BRANCH   1   6
ATOM      3  C   UNL     1      -0.927   1.900   1.439  0.00  0.00    +0.105 A 
ATOM      4  C   UNL     1      -0.715   3.147   2.002  0.00  0.00    +0.029 A 
ATOM      5  C   UNL     1      -1.427   3.533   3.118  0.00  0.00    +0.013 A 
ATOM      6  C   UNL     1      -2.356   2.660   3.687  0.00  0.00    +0.022 A 
ATOM      7  C   UNL     1      -2.561   1.402   3.117  0.00  0.00    +0.013 A 
ATOM      8  C   UNL     1      -1.846   1.030   1.998  0.00  0.00    +0.029 A 
BRANCH   3   9
ATOM      9  S   UNL     1      -0.017   1.417   0.010  0.00  0.00    +0.060 S 
ATOM     10  O   UNL     1       0.002  -0.004   0.002  0.00  0.00    -0.153 OA
ATOM     11  O   UNL     1       1.172   2.195   0.003  0.00  0.00    -0.153 OA
BRANCH   9  13
ATOM     12  C   UNL     1      -0.691   3.213  -1.897  0.00  0.00    +0.131 C 
ATOM     13  N   UNL     1      -0.897   1.885  -1.312  0.00  0.00    -0.183 NA
ATOM     14  C   UNL     1      -1.883   0.973  -1.897  0.00  0.00    +0.131 C 
ENDBRANCH   9  13
ENDBRANCH   3   9
ENDBRANCH   1   6
BRANCH   1  15
ATOM     15  C   UNL     1      -2.908   4.343   5.463  0.00  0.00    +0.052 C 
ATOM     16  C   UNL     1      -3.605   4.714   6.561  0.00  0.00    +0.012 C 
BRANCH  16  17
ATOM     17  C   UNL     1      -3.386   6.038   7.158  0.00  0.00    -0.020 A 
ATOM     18  C   UNL     1      -4.108   6.424   8.295  0.00  0.00    +0.057 A 
ATOM     19  C   UNL     1      -3.898   7.670   8.851  0.00  0.00    +0.163 A 
ATOM     20  C   UNL     1      -2.969   8.541   8.282  0.00  0.00    +0.173 A 
ATOM     21  C   UNL     1      -2.253   8.160   7.154  0.00  0.00    +0.063 A 
ATOM     22  C   UNL     1      -2.452   6.916   6.595  0.00  0.00    +0.027 A 
ATOM     23 BR   UNL     1      -0.997   9.348   6.388  0.00  0.00    -0.046 Br
BRANCH  20  24
ATOM     24  O   UNL     1      -2.764   9.766   8.832  0.00  0.00    -0.503 OA
ATOM     25  H   UNL     1      -2.032  10.454   8.385  0.00  0.00    +0.292 HD
ENDBRANCH  20  24
BRANCH  19  26
ATOM     26  O   UNL     1      -4.596   8.048   9.955  0.00  0.00    -0.491 OA
ATOM     27  C   UNL     1      -5.531   7.106  10.485  0.00  0.00    +0.277 C 
ENDBRANCH  19  26
ENDBRANCH  16  17
ENDBRANCH   1  15
TORSDOF 7
