REMARK  Name = ZINC39884118
REMARK  6 active torsions:
REMARK  status: ('A' for Active; 'I' for Inactive)
REMARK    1  A    between atoms: C_1  and  C_2
REMARK    2  A    between atoms: C_5  and  N_8
REMARK    3  A    between atoms: C_9  and  C_11
REMARK    4  A    between atoms: C_11  and  N_12
REMARK    5  A    between atoms: C_18  and  C_30
REMARK    6  A    between atoms: C_33  and  O_36
REMARK                            x       y       z     vdW  Elec       q    Type
REMARK                         _______ _______ _______ _____ _____    ______ ____
ROOT
ATOM      1  N   UNL     1       0.564  -6.810   2.390  0.00  0.00    -0.288 N 
ATOM      2  C   UNL     1       1.766  -6.939   3.038  0.00  0.00    +0.091 A 
ATOM      3  C   UNL     1       1.687  -7.415   4.301  0.00  0.00    +0.033 A 
ATOM      4  S   UNL     1      -0.052  -7.675   4.526  0.00  0.00    -0.030 S 
ATOM      5  C   UNL     1      -0.579  -7.150   3.017  0.00  0.00    +0.292 A 
ATOM      6  O   UNL     1      -1.719  -7.092   2.593  0.00  0.00    -0.259 OA
ATOM      7  C   UNL     1       2.784  -7.663   5.300  0.00  0.00    +0.072 C 
ATOM      8  C   UNL     1       3.985  -6.848   4.896  0.00  0.00    +0.112 C 
ATOM      9  C   UNL     1       4.459  -7.325   3.490  0.00  0.00    +0.153 C 
ATOM     10  S   UNL     1       3.344  -6.533   2.303  0.00  0.00    -0.093 S 
ATOM     11  C   UNL     1       5.865  -6.799   3.498  0.00  0.00    +0.253 C 
ATOM     12  O   UNL     1       6.600  -6.472   2.424  0.00  0.00    -0.272 OA
ATOM     13  N   UNL     1       6.243  -6.720   4.759  0.00  0.00    -0.145 NA
ATOM     14  C   UNL     1       5.273  -6.999   5.642  0.00  0.00    +0.245 C 
ATOM     15  O   UNL     1       5.417  -7.300   6.810  0.00  0.00    -0.273 OA
ENDROOT
BRANCH   7  16
ATOM     16  C   UNL     1       3.141  -9.127   5.309  0.00  0.00    -0.038 A 
ATOM     17  C   UNL     1       3.045  -9.868   4.146  0.00  0.00    +0.008 A 
ATOM     18  C   UNL     1       3.372 -11.210   4.152  0.00  0.00    +0.045 A 
ATOM     19  C   UNL     1       3.798 -11.814   5.326  0.00  0.00    +0.117 A 
ATOM     20  C   UNL     1       3.894 -11.068   6.492  0.00  0.00    +0.045 A 
ATOM     21  C   UNL     1       3.571  -9.725   6.479  0.00  0.00    +0.008 A 
BRANCH  19  22
ATOM     22  O   UNL     1       4.120 -13.134   5.335  0.00  0.00    -0.507 OA
ATOM     23  H   UNL     1       5.049 -13.314   5.138  0.00  0.00    +0.292 HD
ENDBRANCH  19  22
ENDBRANCH   7  16
BRANCH   1  24
ATOM     24  C   UNL     1       0.522  -6.298   1.018  0.00  0.00    +0.222 C 
BRANCH  24  26
ATOM     25  N   UNL     1       0.329  -4.104  -0.108  0.00  0.00    -0.284 N 
ATOM     26  C   UNL     1       0.387  -4.797   1.046  0.00  0.00    +0.237 C 
ATOM     27  O   UNL     1       0.331  -4.213   2.108  0.00  0.00    -0.274 OA
ATOM     28  H   UNL     1       0.298  -4.575  -0.956  0.00  0.00    +0.155 HD
BRANCH  25  33
ATOM     29  C   UNL     1       0.260   1.568  -0.012  0.00  0.00    +0.044 C 
ATOM     30  C   UNL     1       0.278   0.061  -0.038  0.00  0.00    -0.050 A 
ATOM     31  C   UNL     1       0.983  -0.637   0.926  0.00  0.00    +0.005 A 
ATOM     32  C   UNL     1       1.002  -2.018   0.905  0.00  0.00    +0.023 A 
ATOM     33  C   UNL     1       0.311  -2.705  -0.084  0.00  0.00    +0.033 A 
ATOM     34  C   UNL     1      -0.396  -2.002  -1.050  0.00  0.00    +0.023 A 
ATOM     35  C   UNL     1      -0.414  -0.621  -1.021  0.00  0.00    +0.005 A 
ENDBRANCH  25  33
ENDBRANCH  24  26
ENDBRANCH   1  24
TORSDOF 5
