REMARK  Name = ZINC36572002
REMARK  19 active torsions:
REMARK  status: ('A' for Active; 'I' for Inactive)
REMARK    1  A    between atoms: C_1  and  C_2
REMARK    2  A    between atoms: C_2  and  C_3
REMARK    3  A    between atoms: C_3  and  N_4
REMARK    4  A    between atoms: N_4  and  C_5
REMARK    5  A    between atoms: C_5  and  C_7
REMARK    6  A    between atoms: C_5  and  C_20
REMARK    7  A    between atoms: C_7  and  C_8
REMARK    8  A    between atoms: C_7  and  C_14
REMARK    9  A    between atoms: N_22  and  C_23
REMARK   10  A    between atoms: C_23  and  C_24
REMARK   11  A    between atoms: C_23  and  C_25
REMARK   12  A    between atoms: C_23  and  C_26
REMARK   13  A    between atoms: C_26  and  C_27
REMARK   14  A    between atoms: C_27  and  C_28
REMARK   15  A    between atoms: C_27  and  C_29
REMARK   16  A    between atoms: C_27  and  C_30
REMARK   17  A    between atoms: C_31  and  C_33
REMARK   18  A    between atoms: C_33  and  C_34
REMARK   19  A    between atoms: C_34  and  S_35
REMARK                            x       y       z     vdW  Elec       q    Type
REMARK                         _______ _______ _______ _____ _____    ______ ____
ROOT
ATOM      1  C   UNL     1       2.262  -2.363   2.589  0.00  0.00    +0.173 C 
ENDROOT
BRANCH   1   2
ATOM      2  C   UNL     1       3.628  -1.768   2.365  0.00  0.00    +0.235 C 
ATOM      3  O   UNL     1       4.108  -1.023   3.192  0.00  0.00    -0.274 OA
ATOM      4  N   UNL     1       4.316  -2.065   1.245  0.00  0.00    -0.309 N 
ATOM      5  H   UNL     1       3.929  -2.654   0.578  0.00  0.00    +0.149 HD
BRANCH   4   6
ATOM      6  C   UNL     1       5.651  -1.498   1.033  0.00  0.00    +0.030 C 
ATOM      7  C   UNL     1       5.521  -0.030   0.622  0.00  0.00    +0.031 C 
ATOM      8  C   UNL     1       6.458  -1.596   2.329  0.00  0.00    +0.031 C 
BRANCH   6   9
ATOM      9  C   UNL     1       6.366  -2.276  -0.073  0.00  0.00    +0.031 C 
BRANCH   9  10
ATOM     10  C   UNL     1       6.130  -3.775   0.123  0.00  0.00    -0.036 C 
ATOM     11  C   UNL     1       4.756  -4.153  -0.434  0.00  0.00    +0.010 C 
ATOM     12  C   UNL     1       7.215  -4.563  -0.615  0.00  0.00    +0.010 C 
ATOM     13  C   UNL     1       6.184  -4.108   1.616  0.00  0.00    +0.010 C 
ENDBRANCH   9  10
ENDBRANCH   6   9
ENDBRANCH   4   6
ENDBRANCH   1   2
BRANCH   1  14
ATOM     14  N   UNL     1       1.827  -2.084   3.960  0.00  0.00    -0.289 N 
ATOM     15  C   UNL     1       1.600  -0.814   4.349  0.00  0.00    +0.217 C 
ATOM     16  O   UNL     1       1.756   0.098   3.565  0.00  0.00    -0.276 OA
BRANCH  14  17
ATOM     17  C   UNL     1       1.638  -3.185   4.907  0.00  0.00    +0.108 C 
BRANCH  17  19
ATOM     18  C   UNL     1       2.672  -4.433   6.809  0.00  0.00    +0.005 C 
ATOM     19  C   UNL     1       2.910  -3.368   5.736  0.00  0.00    +0.016 C 
ENDBRANCH  17  19
ENDBRANCH  14  17
BRANCH  15  20
ATOM     20  C   UNL     1       1.152  -0.526   5.759  0.00  0.00    +0.106 C 
BRANCH  20  21
ATOM     21  C   UNL     1       0.968   0.982   5.939  0.00  0.00    +0.075 C 
BRANCH  21  22
ATOM     22  S   UNL     1       0.429   1.327   7.636  0.00  0.00    -0.178 S 
ATOM     23  H   UNL     1       0.303   2.666   7.671  0.00  0.00    +0.102 HD
ENDBRANCH  21  22
ENDBRANCH  20  21
ENDBRANCH  15  20
ENDBRANCH   1  14
BRANCH   1  24
ATOM     24  C   UNL     1       1.268  -1.745   1.603  0.00  0.00    +0.078 C 
BRANCH  24  25
ATOM     25  C   UNL     1       1.766  -1.949   0.195  0.00  0.00    -0.038 A 
ATOM     26  C   UNL     1       1.778  -3.216  -0.357  0.00  0.00    +0.004 A 
ATOM     27  C   UNL     1       2.234  -3.403  -1.649  0.00  0.00    +0.000 A 
ATOM     28  C   UNL     1       2.677  -2.323  -2.388  0.00  0.00    +0.000 A 
ATOM     29  C   UNL     1       2.664  -1.056  -1.837  0.00  0.00    +0.000 A 
ATOM     30  C   UNL     1       2.204  -0.868  -0.547  0.00  0.00    +0.004 A 
ENDBRANCH  24  25
BRANCH  24  31
ATOM     31  C   UNL     1      -0.076  -2.407   1.762  0.00  0.00    -0.038 A 
ATOM     32  C   UNL     1      -1.230  -1.715   1.446  0.00  0.00    +0.004 A 
ATOM     33  C   UNL     1      -2.462  -2.322   1.592  0.00  0.00    +0.000 A 
ATOM     34  C   UNL     1      -2.542  -3.623   2.053  0.00  0.00    +0.000 A 
ATOM     35  C   UNL     1      -1.388  -4.316   2.368  0.00  0.00    +0.000 A 
ATOM     36  C   UNL     1      -0.155  -3.710   2.219  0.00  0.00    +0.004 A 
ENDBRANCH  24  31
ENDBRANCH   1  24
TORSDOF 13
