REMARK  Name = ZINC46539798
REMARK  8 active torsions:
REMARK  status: ('A' for Active; 'I' for Inactive)
REMARK    1  A    between atoms: C_1  and  C_2
REMARK    2  A    between atoms: C_2  and  C_3
REMARK    3  A    between atoms: C_3  and  N_4
REMARK    4  A    between atoms: N_4  and  C_5
REMARK    5  A    between atoms: C_5  and  C_6
REMARK    6  A    between atoms: N_8  and  C_9
REMARK    7  A    between atoms: C_18  and  C_20
REMARK    8  A    between atoms: C_24  and  N_26
REMARK                            x       y       z     vdW  Elec       q    Type
REMARK                         _______ _______ _______ _____ _____    ______ ____
ROOT
ATOM      1  N   UNL     1       0.655  -2.055   1.100  0.00  0.00    -0.289 N 
ATOM      2  C   UNL     1      -0.376  -2.601   1.775  0.00  0.00    +0.247 C 
ATOM      3  O   UNL     1      -1.083  -1.902   2.474  0.00  0.00    -0.270 OA
ENDROOT
BRANCH   2   4
ATOM      4  C   UNL     1      -0.646  -4.050   1.665  0.00  0.00    +0.039 A 
ATOM      5  C   UNL     1       0.406  -4.965   1.724  0.00  0.00    +0.014 A 
ATOM      6  C   UNL     1       0.152  -6.317   1.622  0.00  0.00    +0.022 A 
ATOM      7  C   UNL     1      -1.146  -6.771   1.461  0.00  0.00    +0.062 A 
ATOM      8  C   UNL     1      -2.201  -5.867   1.402  0.00  0.00    +0.055 A 
ATOM      9  C   UNL     1      -1.955  -4.507   1.509  0.00  0.00    +0.038 A 
ATOM     10 CL   UNL     1      -1.457  -8.474   1.332  0.00  0.00    -0.082 Cl
BRANCH   8  11
ATOM     11  N   UNL     1      -3.512  -6.330   1.239  0.00  0.00    -0.270 N 
ATOM     12  C   UNL     1      -4.415  -6.667   2.346  0.00  0.00    +0.114 C 
ATOM     13  C   UNL     1      -5.830  -6.699   1.728  0.00  0.00    +0.029 C 
ATOM     14  C   UNL     1      -5.521  -7.020   0.247  0.00  0.00    +0.098 C 
ATOM     15  C   UNL     1      -4.107  -6.519   0.048  0.00  0.00    +0.220 C 
ATOM     16  O   UNL     1      -3.586  -6.319  -1.028  0.00  0.00    -0.275 OA
ENDBRANCH   8  11
ENDBRANCH   2   4
BRANCH   1  17
ATOM     17  C   UNL     1       0.997  -0.645   1.301  0.00  0.00    +0.108 C 
BRANCH  17  19
ATOM     18  C   UNL     1       0.674   1.677   0.435  0.00  0.00    +0.005 C 
ATOM     19  C   UNL     1       0.317   0.204   0.225  0.00  0.00    +0.016 C 
ENDBRANCH  17  19
ENDBRANCH   1  17
BRANCH   1  20
ATOM     20  C   UNL     1       1.433  -2.872   0.166  0.00  0.00    +0.204 C 
BRANCH  20  21
ATOM     21  C   UNL     1       2.684  -3.362   0.849  0.00  0.00    +0.235 C 
ATOM     22  O   UNL     1       2.904  -3.059   2.002  0.00  0.00    -0.274 OA
ATOM     23  N   UNL     1       3.559  -4.137   0.177  0.00  0.00    -0.282 N 
ATOM     24  H   UNL     1       3.350  -4.438  -0.721  0.00  0.00    +0.155 HD
BRANCH  23  25
ATOM     25  C   UNL     1       4.770  -4.508   0.777  0.00  0.00    +0.072 A 
ATOM     26  C   UNL     1       5.311  -3.729   1.790  0.00  0.00    +0.029 A 
ATOM     27  C   UNL     1       6.505  -4.095   2.381  0.00  0.00    +0.043 A 
ATOM     28  C   UNL     1       7.164  -5.239   1.964  0.00  0.00    +0.161 A 
ATOM     29  C   UNL     1       6.628  -6.020   0.952  0.00  0.00    +0.195 A 
ATOM     30  C   UNL     1       5.428  -5.660   0.361  0.00  0.00    +0.182 A 
ATOM     31  F   UNL     1       4.901  -6.423  -0.620  0.00  0.00    -0.200 F 
ATOM     32  F   UNL     1       7.272  -7.136   0.545  0.00  0.00    -0.199 F 
ATOM     33  F   UNL     1       8.332  -5.594   2.543  0.00  0.00    -0.202 F 
ENDBRANCH  23  25
ENDBRANCH  20  21
ENDBRANCH   1  20
TORSDOF 7
