REMARK  Name = ZINC08636512
REMARK  6 active torsions:
REMARK  status: ('A' for Active; 'I' for Inactive)
REMARK    1  A    between atoms: C_1  and  C_2
REMARK    2  A    between atoms: C_5  and  N_9
REMARK    3  A    between atoms: C_12  and  C_26
REMARK    4  A    between atoms: C_15  and  O_25
REMARK    5  A    between atoms: C_17  and  O_24
REMARK    6  A    between atoms: C_31  and  C_34
REMARK                            x       y       z     vdW  Elec       q    Type
REMARK                         _______ _______ _______ _____ _____    ______ ____
ROOT
ATOM      1  N   UNL     1      -2.888   3.259   0.775  0.00  0.00    -0.277 N 
ATOM      2  C   UNL     1      -4.111   2.765   0.143  0.00  0.00    +0.115 C 
ATOM      3  C   UNL     1      -3.902   2.009  -1.121  0.00  0.00    +0.100 C 
ATOM      4  C   UNL     1      -4.079   2.803  -2.395  0.00  0.00    +0.048 C 
ATOM      5  C   UNL     1      -5.322   3.666  -2.355  0.00  0.00    +0.146 C 
ATOM      6  C   UNL     1      -5.344   4.590  -1.164  0.00  0.00    +0.165 C 
ATOM      7  C   UNL     1      -5.076   3.927   0.167  0.00  0.00    +0.124 C 
ATOM      8  N   UNL     1      -4.391   4.912   1.039  0.00  0.00    -0.319 N 
ATOM      9  C   UNL     1      -3.149   4.472   1.293  0.00  0.00    +0.138 C 
ATOM     10  S   UNL     1      -2.004   5.373   2.191  0.00  0.00    -0.018 S 
ATOM     11  H   UNL     1      -4.777   5.737   1.371  0.00  0.00    +0.148 HD
ENDROOT
BRANCH   1  16
ATOM     12  C   UNL     1       2.088   0.541   0.990  0.00  0.00    +0.045 C 
ATOM     13  C   UNL     1       0.766   1.263   0.933  0.00  0.00    -0.032 A 
ATOM     14  C   UNL     1      -0.344   0.720   1.553  0.00  0.00    +0.006 A 
ATOM     15  C   UNL     1      -1.558   1.377   1.498  0.00  0.00    +0.024 A 
ATOM     16  C   UNL     1      -1.661   2.590   0.828  0.00  0.00    +0.037 A 
ATOM     17  C   UNL     1      -0.544   3.133   0.207  0.00  0.00    +0.043 A 
ATOM     18  C   UNL     1       0.667   2.469   0.261  0.00  0.00    +0.046 A 
ATOM     19 CL   UNL     1       2.063   3.147  -0.516  0.00  0.00    -0.083 Cl
ENDBRANCH   1  16
BRANCH   3  20
ATOM     20  C   UNL     1      -2.507   1.441  -1.109  0.00  0.00    +0.221 C 
ATOM     21  O   UNL     1      -1.567   2.133  -1.440  0.00  0.00    -0.275 OA
ATOM     22  N   UNL     1      -2.302   0.165  -0.728  0.00  0.00    -0.301 N 
ATOM     23  C   UNL     1      -3.424  -0.673  -0.285  0.00  0.00    +0.108 C 
ATOM     24  C   UNL     1      -3.424  -1.968  -1.113  0.00  0.00    +0.032 C 
ATOM     25  C   UNL     1      -2.054  -2.640  -0.998  0.00  0.00    +0.078 C 
ATOM     26  C   UNL     1      -0.978  -1.709  -1.561  0.00  0.00    +0.032 C 
ATOM     27  C   UNL     1      -0.951  -0.413  -0.744  0.00  0.00    +0.108 C 
BRANCH  25  28
ATOM     28  C   UNL     1      -2.061  -3.929  -1.779  0.00  0.00    +0.214 C 
ATOM     29  O   UNL     1      -1.283  -4.087  -2.695  0.00  0.00    -0.276 OA
ATOM     30  N   UNL     1      -2.933  -4.906  -1.459  0.00  0.00    -0.329 N 
ATOM     31  H   UNL     1      -3.556  -4.779  -0.726  0.00  0.00    +0.145 HD
ATOM     32  H   UNL     1      -2.937  -5.736  -1.962  0.00  0.00    +0.145 HD
ENDBRANCH  25  28
ENDBRANCH   3  20
BRANCH   6  33
ATOM     33  O   UNL     1      -4.358   5.604  -1.367  0.00  0.00    -0.387 OA
ATOM     34  H   UNL     1      -4.454   6.084  -2.201  0.00  0.00    +0.210 HD
ENDBRANCH   6  33
BRANCH   5  35
ATOM     35  O   UNL     1      -6.471   2.818  -2.303  0.00  0.00    -0.389 OA
ATOM     36  H   UNL     1      -6.531   2.192  -3.038  0.00  0.00    +0.210 HD
ENDBRANCH   5  35
TORSDOF 5
