REMARK  Name = ZINC36342648
REMARK  14 active torsions:
REMARK  status: ('A' for Active; 'I' for Inactive)
REMARK    1  A    between atoms: C_1  and  C_2
REMARK    2  A    between atoms: C_2  and  O_3
REMARK    3  A    between atoms: O_3  and  C_4
REMARK    4  A    between atoms: C_4  and  C_6
REMARK    5  A    between atoms: N_12  and  C_13
REMARK    6  A    between atoms: C_13  and  C_14
REMARK    7  A    between atoms: C_17  and  C_30
REMARK    8  A    between atoms: C_20  and  C_22
REMARK    9  A    between atoms: C_24  and  C_29
REMARK   10  A    between atoms: C_27  and  C_28
REMARK   11  A    between atoms: C_33  and  O_38
REMARK   12  A    between atoms: C_35  and  O_36
REMARK   13  A    between atoms: O_36  and  C_37
REMARK   14  A    between atoms: O_38  and  C_39
REMARK                            x       y       z     vdW  Elec       q    Type
REMARK                         _______ _______ _______ _____ _____    ______ ____
ROOT
ATOM      1  C   UNL     1      -0.157  -5.726   2.274  0.00  0.00    +0.219 C 
ATOM      2  O   UNL     1       0.836  -6.422   2.247  0.00  0.00    -0.276 OA
ATOM      3  N   UNL     1      -1.379  -6.296   2.276  0.00  0.00    -0.187 N 
ATOM      4  C   UNL     1      -1.649  -7.742   2.254  0.00  0.00    +0.140 C 
ATOM      5  C   UNL     1      -3.189  -7.822   2.268  0.00  0.00    +0.087 C 
ATOM      6  C   UNL     1      -3.628  -6.376   2.297  0.00  0.00    +0.069 C 
ATOM      7  N   UNL     1      -2.592  -5.611   2.305  0.00  0.00    -0.181 NA
ENDROOT
BRANCH   6   8
ATOM      8  C   UNL     1      -5.029  -5.912   2.319  0.00  0.00    +0.001 A 
ATOM      9  C   UNL     1      -6.073  -6.837   2.397  0.00  0.00    +0.013 A 
ATOM     10  C   UNL     1      -7.380  -6.396   2.417  0.00  0.00    -0.050 A 
ATOM     11  C   UNL     1      -7.657  -5.041   2.358  0.00  0.00    +0.003 A 
ATOM     12  C   UNL     1      -6.628  -4.120   2.279  0.00  0.00    +0.004 A 
ATOM     13  C   UNL     1      -5.316  -4.546   2.266  0.00  0.00    -0.042 A 
ATOM     14  C   UNL     1      -4.196  -3.541   2.187  0.00  0.00    +0.044 C 
ATOM     15  C   UNL     1      -8.508  -7.391   2.502  0.00  0.00    +0.044 C 
ENDBRANCH   6   8
BRANCH   4  16
ATOM     16  C   UNL     1      -1.094  -8.367   1.000  0.00  0.00    +0.017 A 
ATOM     17  C   UNL     1      -0.784  -7.573  -0.088  0.00  0.00    +0.013 A 
ATOM     18  C   UNL     1      -0.275  -8.142  -1.239  0.00  0.00    +0.046 A 
ATOM     19  C   UNL     1      -0.073  -9.514  -1.305  0.00  0.00    +0.124 A 
ATOM     20  C   UNL     1      -0.383 -10.312  -0.215  0.00  0.00    +0.091 A 
ATOM     21  C   UNL     1      -0.889  -9.738   0.941  0.00  0.00    +0.129 A 
BRANCH  21  22
ATOM     22  O   UNL     1      -1.188 -10.517   2.014  0.00  0.00    -0.495 OA
ATOM     23  C   UNL     1      -0.951 -11.920   1.882  0.00  0.00    +0.277 C 
ENDBRANCH  21  22
BRANCH  19  24
ATOM     24  O   UNL     1       0.427 -10.074  -2.438  0.00  0.00    -0.495 OA
ATOM     25  C   UNL     1       0.723  -9.191  -3.521  0.00  0.00    +0.277 C 
ENDBRANCH  19  24
ENDBRANCH   4  16
BRANCH   1  26
ATOM     26  C   UNL     1      -0.025  -4.226   2.304  0.00  0.00    +0.022 C 
BRANCH  26  32
ATOM     27  C   UNL     1       1.525  -2.403   2.156  0.00  0.00    +0.043 C 
ATOM     28  C   UNL     1       3.004  -2.024   2.064  0.00  0.00    -0.004 C 
ATOM     29  C   UNL     1       3.723  -2.482   3.337  0.00  0.00    -0.003 C 
ATOM     30  C   UNL     1       3.520  -3.989   3.512  0.00  0.00    -0.019 C 
ATOM     31  C   UNL     1       2.021  -4.296   3.550  0.00  0.00    -0.077 C 
ATOM     32  N   UNL     1       1.397  -3.859   2.295  0.00  0.00    +0.394 N 
ATOM     33  H   UNL     1       1.854  -4.311   1.518  0.00  0.00    -0.080 HD
BRANCH  27  34
ATOM     34  C   UNL     1       0.814  -1.955   0.905  0.00  0.00    +0.293 C 
ATOM     35  O   UNL     1       0.682  -2.718  -0.022  0.00  0.00    -0.253 OA
BRANCH  34  36
ATOM     36  O   UNL     1       0.326  -0.707   0.822  0.00  0.00    -0.466 OA
BRANCH  36  38
ATOM     37  C   UNL     1      -0.820   1.099  -0.303  0.00  0.00    +0.048 C 
ATOM     38  C   UNL     1      -0.336  -0.349  -0.393  0.00  0.00    +0.228 C 
ENDBRANCH  36  38
ENDBRANCH  34  36
ENDBRANCH  27  34
ENDBRANCH  26  32
ENDBRANCH   1  26
TORSDOF 9
