REMARK  Name = ZINC11911324
REMARK  8 active torsions:
REMARK  status: ('A' for Active; 'I' for Inactive)
REMARK    1  A    between atoms: C_9  and  N_55
REMARK    2  A    between atoms: C_13  and  C_14
REMARK    3  A    between atoms: C_13  and  N_55
REMARK    4  A    between atoms: C_14  and  C_15
REMARK    5  A    between atoms: N_23  and  C_24
REMARK    6  A    between atoms: C_24  and  C_25
REMARK    7  A    between atoms: C_25  and  C_26
REMARK    8  A    between atoms: C_26  and  O_27
REMARK                            x       y       z     vdW  Elec       q    Type
REMARK                         _______ _______ _______ _____ _____    ______ ____
ROOT
ATOM      1  C   UNL     1       4.654  -1.041  -4.488  0.00  0.00    +0.203 A 
ATOM      2  N   UNL     1       4.854   0.044  -3.773  0.00  0.00    -0.230 NA
ATOM      3  C   UNL     1       3.912   0.382  -2.898  0.00  0.00    +0.116 A 
ATOM      4  C   UNL     1       2.723  -0.355  -2.698  0.00  0.00    +0.076 A 
ATOM      5  C   UNL     1       1.808   0.165  -1.698  0.00  0.00    -0.023 A 
ATOM      6  C   UNL     1       2.184   1.300  -1.063  0.00  0.00    -0.006 A 
ATOM      7  S   UNL     1       3.761   1.722  -1.760  0.00  0.00    -0.073 S 
ATOM      8  C   UNL     1       1.429   2.038  -0.001  0.00  0.00    +0.027 C 
ATOM      9  C   UNL     1      -0.019   1.527   0.010  0.00  0.00    -0.067 C 
ATOM     10  C   UNL     1       0.002  -0.004   0.002  0.00  0.00    -0.011 C 
ATOM     11  C   UNL     1       0.481  -0.509  -1.359  0.00  0.00    +0.035 C 
ATOM     12  C   UNL     1       2.545  -1.533  -3.498  0.00  0.00    +0.262 A 
ATOM     13  O   UNL     1       1.555  -2.239  -3.402  0.00  0.00    -0.267 OA
ATOM     14  N   UNL     1       3.546  -1.811  -4.367  0.00  0.00    -0.299 N 
ENDROOT
BRANCH   9  15
ATOM     15  N   UNL     1      -0.701   1.999   1.230  0.00  0.00    +0.381 N 
ATOM     16  H   UNL     1      -0.027   2.033   2.004  0.00  0.00    -0.086 HD
ATOM     17  H   UNL     1      -1.460   1.349   1.466  0.00  0.00    -0.086 HD
BRANCH  15  18
ATOM     18  C   UNL     1      -1.263   3.346   1.014  0.00  0.00    -0.078 C 
BRANCH  18  19
ATOM     19  C   UNL     1      -1.963   3.808   2.294  0.00  0.00    +0.011 C 
BRANCH  19  20
ATOM     20  C   UNL     1      -2.540   5.184   2.082  0.00  0.00    -0.075 C 
ATOM     21  C   UNL     1      -3.780   5.272   1.720  0.00  0.00    -0.028 C 
ATOM     22  C   UNL     1      -4.491   6.570   1.466  0.00  0.00    +0.027 C 
ATOM     23  C   UNL     1      -3.706   7.731   2.080  0.00  0.00    +0.004 C 
ATOM     24  C   UNL     1      -2.241   7.611   1.643  0.00  0.00    +0.005 C 
ATOM     25  C   UNL     1      -1.641   6.365   2.298  0.00  0.00    +0.030 C 
ENDBRANCH  19  20
ENDBRANCH  18  19
ENDBRANCH  15  18
ENDBRANCH   9  15
BRANCH  14  26
ATOM     26  C   UNL     1       3.425  -3.000  -5.214  0.00  0.00    +0.128 C 
BRANCH  26  27
ATOM     27  C   UNL     1       2.724  -2.625  -6.521  0.00  0.00    +0.049 C 
BRANCH  27  28
ATOM     28  C   UNL     1       2.599  -3.867  -7.407  0.00  0.00    +0.157 C 
BRANCH  28  29
ATOM     29  O   UNL     1       1.944  -3.517  -8.628  0.00  0.00    -0.395 OA
ATOM     30  H   UNL     1       1.829  -4.257  -9.239  0.00  0.00    +0.209 HD
ENDBRANCH  28  29
ENDBRANCH  27  28
ENDBRANCH  26  27
ENDBRANCH  14  26
TORSDOF 8
