REMARK  Name = ZINC08933083
REMARK  6 active torsions:
REMARK  status: ('A' for Active; 'I' for Inactive)
REMARK    1  A    between atoms: C_1  and  C_2
REMARK    2  A    between atoms: C_15  and  C_17
REMARK    3  A    between atoms: N_20  and  S_23
REMARK    4  A    between atoms: S_23  and  C_26
REMARK    5  A    between atoms: C_29  and  S_32
REMARK    6  A    between atoms: S_32  and  C_33
REMARK                            x       y       z     vdW  Elec       q    Type
REMARK                         _______ _______ _______ _____ _____    ______ ____
ROOT
ATOM      1  C   UNL     1      -1.167  -0.956   0.007  0.00  0.00    +0.073 C 
ATOM      2  C   UNL     1       0.002  -0.004   0.002  0.00  0.00    +0.076 A 
ATOM      3  N   UNL     1       1.274  -0.285  -0.012  0.00  0.00    -0.243 NA
ATOM      4  C   UNL     1       2.231   0.667  -0.016  0.00  0.00    +0.094 A 
ATOM      5  C   UNL     1       1.734   1.991  -0.004  0.00  0.00    +0.040 A 
ATOM      6  S   UNL     1      -0.021   1.732   0.012  0.00  0.00    -0.072 S 
ATOM      7  C   UNL     1       2.572   3.083  -0.006  0.00  0.00    +0.019 A 
ATOM      8  C   UNL     1       3.924   2.934  -0.019  0.00  0.00    +0.030 A 
ATOM      9  C   UNL     1       4.505   1.637  -0.031  0.00  0.00    +0.082 A 
ATOM     10  C   UNL     1       3.628   0.541  -0.030  0.00  0.00    +0.067 A 
ATOM     11  S   UNL     1       4.740  -0.844  -0.046  0.00  0.00    -0.050 S 
ATOM     12  C   UNL     1       6.261   0.094  -0.056  0.00  0.00    +0.166 A 
ATOM     13  N   UNL     1       5.824   1.331  -0.045  0.00  0.00    -0.224 NA
ATOM     14  N   UNL     1       7.569  -0.367  -0.070  0.00  0.00    -0.264 N 
ATOM     15  C   UNL     1       8.593   0.509  -0.075  0.00  0.00    +0.222 C 
ATOM     16  O   UNL     1       8.371   1.701  -0.067  0.00  0.00    -0.275 OA
ATOM     17  H   UNL     1       7.747  -1.321  -0.076  0.00  0.00    +0.157 HD
ENDROOT
BRANCH  15  18
ATOM     18  C   UNL     1      10.014   0.008  -0.090  0.00  0.00    +0.078 C 
ATOM     19  C   UNL     1      10.265  -0.850   1.153  0.00  0.00    +0.030 C 
ATOM     20  C   UNL     1      11.700  -1.386   1.116  0.00  0.00    +0.110 C 
ATOM     21  N   UNL     1      12.624  -0.254   0.967  0.00  0.00    -0.177 NA
ATOM     22  C   UNL     1      12.417   0.686  -0.143  0.00  0.00    +0.110 C 
ATOM     23  C   UNL     1      10.975   1.199  -0.093  0.00  0.00    +0.030 C 
BRANCH  21  24
ATOM     24  S   UNL     1      13.876  -0.041   2.030  0.00  0.00    +0.061 S 
ATOM     25  O   UNL     1      14.155  -1.317   2.591  0.00  0.00    -0.153 OA
ATOM     26  O   UNL     1      14.862   0.724   1.349  0.00  0.00    -0.153 OA
BRANCH  24  27
ATOM     27  C   UNL     1      13.277   0.967   3.346  0.00  0.00    +0.106 A 
ATOM     28  C   UNL     1      13.388   2.343   3.266  0.00  0.00    +0.029 A 
ATOM     29  C   UNL     1      12.914   3.136   4.292  0.00  0.00    +0.016 A 
ATOM     30  C   UNL     1      12.336   2.549   5.411  0.00  0.00    +0.008 A 
ATOM     31  C   UNL     1      12.231   1.166   5.491  0.00  0.00    +0.016 A 
ATOM     32  C   UNL     1      12.702   0.379   4.458  0.00  0.00    +0.029 A 
BRANCH  30  33
ATOM     33  S   UNL     1      11.736   3.557   6.726  0.00  0.00    -0.129 S 
ATOM     34  C   UNL     1      12.086   5.250   6.177  0.00  0.00    +0.090 C 
ENDBRANCH  30  33
ENDBRANCH  24  27
ENDBRANCH  21  24
ENDBRANCH  15  18
TORSDOF 4
