REMARK  Name = ZINC67481882
REMARK  7 active torsions:
REMARK  status: ('A' for Active; 'I' for Inactive)
REMARK    1  A    between atoms: C_1  and  C_2
REMARK    2  A    between atoms: C_2  and  N_3
REMARK    3  A    between atoms: C_4  and  C_6
REMARK    4  A    between atoms: N_15  and  C_16
REMARK    5  A    between atoms: C_16  and  C_17
REMARK    6  A    between atoms: N_22  and  C_23
REMARK    7  A    between atoms: C_23  and  C_24
REMARK                            x       y       z     vdW  Elec       q    Type
REMARK                         _______ _______ _______ _____ _____    ______ ____
ROOT
ATOM      1  C   UNL     1       1.421  -1.770  -3.093  0.00  0.00    +0.092 C 
ATOM      2  C   UNL     1       1.367  -3.298  -3.018  0.00  0.00    +0.016 C 
ATOM      3  C   UNL     1       2.097  -3.896  -4.223  0.00  0.00    +0.020 C 
ATOM      4  C   UNL     1       3.566  -3.462  -4.191  0.00  0.00    +0.109 C 
ATOM      5  N   UNL     1       3.624  -1.996  -4.117  0.00  0.00    -0.285 N 
ATOM      6  C   UNL     1       2.882  -1.312  -3.049  0.00  0.00    +0.122 C 
ATOM      7  C   UNL     1       4.346  -1.291  -5.011  0.00  0.00    +0.302 C 
ATOM      8  O   UNL     1       4.318  -0.076  -4.992  0.00  0.00    -0.253 OA
ATOM      9  N   UNL     1       5.098  -1.934  -5.926  0.00  0.00    -0.301 N 
ATOM     10  H   UNL     1       5.064  -2.901  -5.989  0.00  0.00    +0.150 HD
ENDROOT
BRANCH   1  12
ATOM     11  N   UNL     1       0.590   0.155  -1.781  0.00  0.00    -0.315 N 
ATOM     12  C   UNL     1       0.674  -1.183  -1.923  0.00  0.00    +0.218 C 
ATOM     13  O   UNL     1       0.149  -1.913  -1.110  0.00  0.00    -0.275 OA
ATOM     14  H   UNL     1       1.011   0.739  -2.431  0.00  0.00    +0.149 HD
BRANCH  11  16
ATOM     15  C   UNL     1      -0.079   2.254  -0.718  0.00  0.00    +0.024 C 
ATOM     16  C   UNL     1      -0.136   0.726  -0.644  0.00  0.00    +0.101 C 
ENDBRANCH  11  16
ENDBRANCH   1  12
BRANCH   9  17
ATOM     17  C   UNL     1       5.967  -1.171  -6.826  0.00  0.00    +0.090 C 
BRANCH  17  18
ATOM     18  C   UNL     1       6.705  -2.133  -7.759  0.00  0.00    -0.051 C 
ATOM     19  C   UNL     1       7.745  -1.359  -8.595  0.00  0.00    -0.016 C 
ATOM     20  C   UNL     1       9.063  -1.583  -7.807  0.00  0.00    -0.020 C 
ATOM     21  C   UNL     1       8.878  -3.032  -7.293  0.00  0.00    -0.078 C 
ATOM     22  N   UNL     1       7.436  -3.139  -6.967  0.00  0.00    +0.383 N 
ATOM     23  H   UNL     1       7.295  -2.963  -5.983  0.00  0.00    -0.081 HD
BRANCH  22  24
ATOM     24  C   UNL     1       6.948  -4.483  -7.302  0.00  0.00    -0.075 C 
BRANCH  24  25
ATOM     25  C   UNL     1       7.628  -5.513  -6.398  0.00  0.00    -0.028 C 
ATOM     26  C   UNL     1       7.174  -6.919  -6.794  0.00  0.00    +0.002 C 
ATOM     27  C   UNL     1       7.854  -7.949  -5.890  0.00  0.00    +0.000 C 
ATOM     28  C   UNL     1       7.470  -7.681  -4.433  0.00  0.00    +0.000 C 
ATOM     29  C   UNL     1       7.925  -6.274  -4.037  0.00  0.00    +0.000 C 
ATOM     30  C   UNL     1       7.244  -5.245  -4.941  0.00  0.00    +0.002 C 
ENDBRANCH  24  25
ENDBRANCH  22  24
ENDBRANCH  17  18
ENDBRANCH   9  17
TORSDOF 6
