REMARK  Name = ZINC02824749
REMARK  14 active torsions:
REMARK  status: ('A' for Active; 'I' for Inactive)
REMARK    1  A    between atoms: C_1  and  C_2
REMARK    2  A    between atoms: C_2  and  C_3
REMARK    3  A    between atoms: C_3  and  C_4
REMARK    4  A    between atoms: C_4  and  O_5
REMARK    5  A    between atoms: O_5  and  P_6
REMARK    6  A    between atoms: P_6  and  C_8
REMARK    7  A    between atoms: P_6  and  O_24
REMARK    8  A    between atoms: C_8  and  C_10
REMARK    9  A    between atoms: C_8  and  N_17
REMARK   10  A    between atoms: N_17  and  C_18
REMARK   11  A    between atoms: O_24  and  C_25
REMARK   12  A    between atoms: C_25  and  C_26
REMARK   13  A    between atoms: C_26  and  C_27
REMARK   14  A    between atoms: C_27  and  C_28
REMARK                            x       y       z     vdW  Elec       q    Type
REMARK                         _______ _______ _______ _____ _____    ______ ____
ROOT
ATOM      1  C   UNL     1       2.332   5.349  -0.102  0.00  0.00    +0.219 C 
ENDROOT
BRANCH   1   2
ATOM      2  C   UNL     1       3.380   5.932   0.811  0.00  0.00    +0.020 A 
ATOM      3  C   UNL     1       4.574   5.264   1.008  0.00  0.00    +0.009 A 
ATOM      4  C   UNL     1       5.537   5.802   1.841  0.00  0.00    +0.001 A 
ATOM      5  C   UNL     1       5.303   7.002   2.487  0.00  0.00    +0.003 A 
ATOM      6  C   UNL     1       4.108   7.668   2.296  0.00  0.00    +0.039 A 
ATOM      7  C   UNL     1       3.144   7.133   1.457  0.00  0.00    +0.129 A 
ATOM      8  F   UNL     1       1.975   7.784   1.270  0.00  0.00    -0.205 F 
ENDBRANCH   1   2
BRANCH   1   9
ATOM      9  P   UNL     1       2.682   5.843  -1.821  0.00  0.00    +0.357 P 
ATOM     10  O   UNL     1       1.589   5.372  -2.701  0.00  0.00    -0.256 OA
BRANCH   9  11
ATOM     11  O   UNL     1       2.788   7.447  -1.908  0.00  0.00    -0.306 OA
BRANCH  11  12
ATOM     12  C   UNL     1       2.952   8.150  -3.141  0.00  0.00    +0.170 C 
BRANCH  12  13
ATOM     13  C   UNL     1       3.017   9.654  -2.865  0.00  0.00    +0.028 C 
BRANCH  13  15
ATOM     14  C   UNL     1       3.257  11.911  -3.910  0.00  0.00    +0.004 C 
ATOM     15  C   UNL     1       3.192  10.407  -4.186  0.00  0.00    -0.001 C 
ENDBRANCH  13  15
ENDBRANCH  12  13
ENDBRANCH  11  12
ENDBRANCH   9  11
BRANCH   9  16
ATOM     16  O   UNL     1       4.073   5.186  -2.296  0.00  0.00    -0.306 OA
BRANCH  16  17
ATOM     17  C   UNL     1       4.572   5.300  -3.630  0.00  0.00    +0.170 C 
BRANCH  17  18
ATOM     18  C   UNL     1       5.909   4.564  -3.738  0.00  0.00    +0.028 C 
BRANCH  18  19
ATOM     19  C   UNL     1       6.444   4.686  -5.167  0.00  0.00    -0.001 C 
ATOM     20  C   UNL     1       7.781   3.950  -5.275  0.00  0.00    +0.004 C 
ENDBRANCH  18  19
ENDBRANCH  17  18
ENDBRANCH  16  17
ENDBRANCH   9  16
ENDBRANCH   1   9
BRANCH   1  21
ATOM     21  N   UNL     1       2.353   3.888   0.001  0.00  0.00    -0.327 N 
ATOM     22  H   UNL     1       3.200   3.415   0.012  0.00  0.00    +0.147 HD
BRANCH  21  23
ATOM     23  C   UNL     1       1.154   3.176   0.082  0.00  0.00    +0.028 A 
ATOM     24  C   UNL     1      -0.058   3.832  -0.089  0.00  0.00    +0.023 A 
ATOM     25  C   UNL     1      -1.242   3.125  -0.008  0.00  0.00    +0.002 A 
ATOM     26  C   UNL     1      -1.221   1.766   0.248  0.00  0.00    +0.000 A 
ATOM     27  C   UNL     1      -0.016   1.109   0.413  0.00  0.00    +0.002 A 
ATOM     28  C   UNL     1       1.171   1.810   0.334  0.00  0.00    +0.023 A 
ENDBRANCH  21  23
ENDBRANCH   1  21
TORSDOF 12
