REMARK  Name = ZINC50044960
REMARK  3 active torsions:
REMARK  status: ('A' for Active; 'I' for Inactive)
REMARK    1  A    between atoms: C_6  and  C_7
REMARK    2  A    between atoms: C_7  and  N_8
REMARK    3  A    between atoms: C_9  and  C_11
REMARK                            x       y       z     vdW  Elec       q    Type
REMARK                         _______ _______ _______ _____ _____    ______ ____
ROOT
ATOM      1  N   UNL     1      -1.727  -1.016  -1.368  0.00  0.00    -0.307 N 
ATOM      2  C   UNL     1      -2.868  -1.691  -1.607  0.00  0.00    +0.247 C 
ATOM      3  O   UNL     1      -3.539  -2.099  -0.679  0.00  0.00    -0.270 OA
ATOM      4  H   UNL     1      -1.192  -0.690  -2.109  0.00  0.00    +0.149 HD
ENDROOT
BRANCH   2   5
ATOM      5  C   UNL     1      -3.305  -1.935  -2.998  0.00  0.00    +0.074 A 
ATOM      6  C   UNL     1      -2.539  -1.475  -4.075  0.00  0.00    +0.032 A 
ATOM      7  C   UNL     1      -2.992  -1.730  -5.359  0.00  0.00    +0.037 A 
ATOM      8  C   UNL     1      -4.176  -2.425  -5.534  0.00  0.00    +0.127 A 
ATOM      9  N   UNL     1      -4.878  -2.846  -4.499  0.00  0.00    -0.242 NA
ATOM     10  C   UNL     1      -4.486  -2.634  -3.259  0.00  0.00    +0.141 A 
ATOM     11 CL   UNL     1      -5.450  -3.220  -1.939  0.00  0.00    -0.061 Cl
ATOM     12 BR   UNL     1      -2.003  -1.135  -6.857  0.00  0.00    -0.049 Br
ENDBRANCH   2   5
BRANCH   1  13
ATOM     13  C   UNL     1      -1.294  -0.774   0.010  0.00  0.00    +0.140 C 
BRANCH  13  19
ATOM     14  C   UNL     1      -0.017   1.378   0.010  0.00  0.00    +0.009 A 
ATOM     15  C   UNL     1       1.170   2.088   0.002  0.00  0.00    +0.050 A 
ATOM     16  C   UNL     1       2.380   1.416  -0.013  0.00  0.00    +0.166 A 
ATOM     17  C   UNL     1       2.399   0.023  -0.021  0.00  0.00    +0.167 A 
ATOM     18  C   UNL     1       1.207  -0.682  -0.014  0.00  0.00    +0.054 A 
ATOM     19  C   UNL     1       0.002  -0.004   0.002  0.00  0.00    -0.027 A 
ATOM     20  O   UNL     1       3.698  -0.395  -0.036  0.00  0.00    -0.453 OA
ATOM     21  C   UNL     1       4.466   0.750  -0.450  0.00  0.00    +0.466 C 
ATOM     22  O   UNL     1       3.668   1.870  -0.024  0.00  0.00    -0.453 OA
ENDBRANCH  13  19
ENDBRANCH   1  13
TORSDOF 3
