REMARK  Name = ZINC42697379
REMARK  9 active torsions:
REMARK  status: ('A' for Active; 'I' for Inactive)
REMARK    1  A    between atoms: C_1  and  C_2
REMARK    2  A    between atoms: C_2  and  C_3
REMARK    3  A    between atoms: C_2  and  C_4
REMARK    4  A    between atoms: C_2  and  C_5
REMARK    5  A    between atoms: N_7  and  C_8
REMARK    6  A    between atoms: C_8  and  C_9
REMARK    7  A    between atoms: C_9  and  C_10
REMARK    8  A    between atoms: C_16  and  C_18
REMARK    9  A    between atoms: C_18  and  C_19
REMARK                            x       y       z     vdW  Elec       q    Type
REMARK                         _______ _______ _______ _____ _____    ______ ____
ROOT
ATOM      1  C   UNL     1       2.258  -4.301  -3.913  0.00  0.00    +0.220 C 
ATOM      2  O   UNL     1       2.701  -3.502  -4.712  0.00  0.00    -0.275 OA
ATOM      3  N   UNL     1       2.397  -5.623  -4.135  0.00  0.00    -0.265 N 
ATOM      4  C   UNL     1       3.048  -6.071  -5.279  0.00  0.00    +0.165 A 
ATOM      5  N   UNL     1       3.591  -5.359  -6.242  0.00  0.00    -0.233 NA
ATOM      6  C   UNL     1       4.178  -5.940  -7.272  0.00  0.00    +0.124 A 
ATOM      7  C   UNL     1       4.193  -7.295  -7.288  0.00  0.00    +0.015 A 
ATOM      8  S   UNL     1       3.338  -7.656  -5.763  0.00  0.00    -0.057 S 
ATOM      9  H   UNL     1       2.043  -6.261  -3.496  0.00  0.00    +0.157 HD
ENDROOT
BRANCH   1  10
ATOM     10  C   UNL     1       1.553  -3.814  -2.673  0.00  0.00    +0.115 C 
BRANCH  10  11
ATOM     11  C   UNL     1       1.532  -2.285  -2.665  0.00  0.00    +0.113 C 
BRANCH  11  14
ATOM     12  C   UNL     1       0.707  -0.490  -1.238  0.00  0.00    +0.218 C 
ATOM     13  O   UNL     1       1.150   0.308  -2.036  0.00  0.00    -0.275 OA
ATOM     14  N   UNL     1       0.847  -1.812  -1.460  0.00  0.00    -0.314 N 
ATOM     15  H   UNL     1       0.493  -2.451  -0.821  0.00  0.00    +0.149 HD
BRANCH  12  17
ATOM     16  C   UNL     1      -0.019   1.526   0.010  0.00  0.00    +0.020 C 
ATOM     17  C   UNL     1       0.002  -0.004   0.002  0.00  0.00    +0.039 C 
ATOM     18  C   UNL     1       0.742  -0.511   1.242  0.00  0.00    +0.020 C 
ATOM     19  C   UNL     1      -1.433  -0.534   0.013  0.00  0.00    +0.020 C 
ENDBRANCH  12  17
ENDBRANCH  11  14
ENDBRANCH  10  11
ENDBRANCH   1  10
BRANCH   7  20
ATOM     20  C   UNL     1       4.776  -8.238  -8.310  0.00  0.00    +0.079 C 
BRANCH  20  21
ATOM     21  C   UNL     1       6.206  -8.547  -7.950  0.00  0.00    -0.041 A 
ATOM     22  C   UNL     1       7.228  -7.750  -8.434  0.00  0.00    +0.004 A 
ATOM     23  C   UNL     1       8.540  -8.033  -8.105  0.00  0.00    +0.002 A 
ATOM     24  C   UNL     1       8.832  -9.112  -7.291  0.00  0.00    +0.020 A 
ATOM     25  C   UNL     1       7.810  -9.909  -6.807  0.00  0.00    +0.041 A 
ATOM     26  C   UNL     1       6.496  -9.622  -7.132  0.00  0.00    +0.024 A 
ATOM     27 CL   UNL     1       8.176 -11.264  -5.786  0.00  0.00    -0.084 Cl
ENDBRANCH  20  21
ENDBRANCH   7  20
TORSDOF 6
