REMARK  Name = ZINC09442733
REMARK  11 active torsions:
REMARK  status: ('A' for Active; 'I' for Inactive)
REMARK    1  A    between atoms: C_1  and  C_2
REMARK    2  A    between atoms: C_2  and  C_3
REMARK    3  A    between atoms: C_4  and  C_30
REMARK    4  A    between atoms: C_6  and  C_8
REMARK    5  A    between atoms: C_11  and  C_13
REMARK    6  A    between atoms: C_13  and  N_51
REMARK    7  A    between atoms: C_14  and  N_51
REMARK    8  A    between atoms: C_15  and  C_16
REMARK    9  A    between atoms: C_15  and  N_51
REMARK   10  A    between atoms: N_18  and  C_19
REMARK   11  A    between atoms: C_23  and  C_25
REMARK                            x       y       z     vdW  Elec       q    Type
REMARK                         _______ _______ _______ _____ _____    ______ ____
ROOT
ATOM      1  C   UNL     1      -2.157   0.543   1.555  0.00  0.00    -0.095 C 
ATOM      2  N   UNL     1      -0.920   1.312   1.303  0.00  0.00    +0.389 N 
ATOM      3  H   UNL     1      -1.162   2.303   1.184  0.00  0.00    -0.081 HD
ENDROOT
BRANCH   2   4
ATOM      4  C   UNL     1      -0.265   0.826   0.071  0.00  0.00    +0.021 C 
BRANCH   4   8
ATOM      5  C   UNL     1      -2.615   1.099  -2.676  0.00  0.00    +0.255 A 
ATOM      6  N   UNL     1      -1.968   2.243  -2.736  0.00  0.00    -0.107 NA
ATOM      7  N   UNL     1      -1.090   2.282  -1.797  0.00  0.00    -0.114 NA
ATOM      8  C   UNL     1      -1.133   1.175  -1.111  0.00  0.00    +0.202 A 
ATOM      9  O   UNL     1      -2.097   0.402  -1.644  0.00  0.00    -0.422 OA
BRANCH   5  13
ATOM     10  C   UNL     1      -5.694  -0.530  -4.940  0.00  0.00    -0.007 A 
ATOM     11  C   UNL     1      -5.286   0.707  -5.327  0.00  0.00    -0.040 A 
ATOM     12  C   UNL     1      -4.275   1.330  -4.633  0.00  0.00    +0.024 A 
ATOM     13  C   UNL     1      -3.700   0.663  -3.567  0.00  0.00    +0.076 A 
ATOM     14  S   UNL     1      -4.625  -0.865  -3.550  0.00  0.00    -0.088 S 
ATOM     15  C   UNL     1      -5.940   1.392  -6.499  0.00  0.00    +0.044 C 
BRANCH  10  17
ATOM     16  C   UNL     1      -6.170  -2.289  -6.622  0.00  0.00    +0.009 C 
ATOM     17  C   UNL     1      -6.773  -1.398  -5.534  0.00  0.00    +0.039 C 
ENDBRANCH  10  17
ENDBRANCH   5  13
ENDBRANCH   4   8
ENDBRANCH   2   4
BRANCH   2  18
ATOM     18  C   UNL     1       0.001   1.178   2.451  0.00  0.00    +0.019 C 
BRANCH  18  19
ATOM     19  C   UNL     1      -0.602   1.877   3.643  0.00  0.00    +0.201 C 
ATOM     20  O   UNL     1      -1.686   2.412   3.547  0.00  0.00    -0.278 OA
ATOM     21  N   UNL     1       0.065   1.909   4.814  0.00  0.00    -0.287 N 
ATOM     22  H   UNL     1       0.895   1.417   4.913  0.00  0.00    +0.155 HD
BRANCH  21  23
ATOM     23  C   UNL     1      -0.442   2.651   5.887  0.00  0.00    +0.034 A 
ATOM     24  C   UNL     1      -1.137   3.830   5.652  0.00  0.00    +0.025 A 
ATOM     25  C   UNL     1      -1.639   4.557   6.712  0.00  0.00    +0.022 A 
ATOM     26  C   UNL     1      -1.442   4.118   8.010  0.00  0.00    +0.053 A 
ATOM     27  C   UNL     1      -0.746   2.946   8.247  0.00  0.00    +0.075 A 
ATOM     28  C   UNL     1      -0.245   2.212   7.190  0.00  0.00    +0.037 A 
ATOM     29 CL   UNL     1      -2.070   5.038   9.341  0.00  0.00    -0.083 Cl
BRANCH  27  30
ATOM     30  C   UNL     1      -0.533   2.470   9.661  0.00  0.00    +0.419 C 
ATOM     31  F   UNL     1       0.191   1.274   9.647  0.00  0.00    -0.166 F 
ATOM     32  F   UNL     1       0.180   3.438  10.377  0.00  0.00    -0.166 F 
ATOM     33  F   UNL     1      -1.773   2.257  10.273  0.00  0.00    -0.166 F 
ENDBRANCH  27  30
ENDBRANCH  21  23
ENDBRANCH  18  19
ENDBRANCH   2  18
TORSDOF 8
