REMARK  Name = ZINC13072376
REMARK  15 active torsions:
REMARK  status: ('A' for Active; 'I' for Inactive)
REMARK    1  A    between atoms: C_1  and  C_2
REMARK    2  A    between atoms: C_2  and  O_3
REMARK    3  A    between atoms: O_3  and  C_4
REMARK    4  A    between atoms: C_4  and  C_6
REMARK    5  A    between atoms: C_6  and  N_7
REMARK    6  A    between atoms: N_7  and  C_8
REMARK    7  A    between atoms: C_15  and  C_17
REMARK    8  A    between atoms: C_17  and  O_18
REMARK    9  A    between atoms: O_18  and  C_19
REMARK   10  A    between atoms: C_19  and  C_21
REMARK   11  A    between atoms: C_24  and  O_27
REMARK   12  A    between atoms: O_27  and  C_28
REMARK   13  A    between atoms: C_28  and  C_29
REMARK   14  A    between atoms: C_29  and  C_30
REMARK   15  A    between atoms: C_29  and  C_31
REMARK                            x       y       z     vdW  Elec       q    Type
REMARK                         _______ _______ _______ _____ _____    ______ ____
ROOT
ATOM      1  N   UNL     1       2.105   4.345   0.107  0.00  0.00    -0.258 N 
ATOM      2  C   UNL     1       1.065   3.555  -0.228  0.00  0.00    +0.258 C 
ATOM      3  O   UNL     1      -0.051   4.023  -0.307  0.00  0.00    -0.271 OA
ENDROOT
BRANCH   1   4
ATOM      4  C   UNL     1       3.408   3.832   0.092  0.00  0.00    +0.037 A 
ATOM      5  C   UNL     1       3.781   2.858   1.008  0.00  0.00    +0.026 A 
ATOM      6  C   UNL     1       5.065   2.349   0.988  0.00  0.00    +0.040 A 
ATOM      7  C   UNL     1       5.983   2.818   0.062  0.00  0.00    +0.124 A 
ATOM      8  C   UNL     1       5.613   3.793  -0.848  0.00  0.00    +0.040 A 
ATOM      9  C   UNL     1       4.329   4.301  -0.835  0.00  0.00    +0.026 A 
ATOM     10  F   UNL     1       7.239   2.322   0.048  0.00  0.00    -0.205 F 
ENDBRANCH   1   4
BRANCH   1  11
ATOM     11  C   UNL     1       1.872   5.741   0.486  0.00  0.00    +0.234 C 
BRANCH  11  12
ATOM     12  C   UNL     1       1.653   5.827   1.975  0.00  0.00    +0.325 C 
ATOM     13  O   UNL     1       1.688   4.825   2.650  0.00  0.00    -0.249 OA
BRANCH  12  14
ATOM     14  O   UNL     1       1.419   7.017   2.551  0.00  0.00    -0.464 OA
BRANCH  14  16
ATOM     15  C   UNL     1       0.966   8.458   4.462  0.00  0.00    +0.048 C 
ATOM     16  C   UNL     1       1.217   7.024   3.989  0.00  0.00    +0.229 C 
ENDBRANCH  14  16
ENDBRANCH  12  14
ENDBRANCH  11  12
ENDBRANCH   1  11
BRANCH   2  17
ATOM     17  C   UNL     1       1.290   2.091  -0.504  0.00  0.00    +0.328 C 
BRANCH  17  18
ATOM     18  O   UNL     1       0.050   1.488  -0.957  0.00  0.00    -0.452 OA
BRANCH  18  19
ATOM     19  C   UNL     1       0.080   0.173  -1.249  0.00  0.00    +0.340 C 
ATOM     20  O   UNL     1       1.114  -0.453  -1.127  0.00  0.00    -0.245 OA
BRANCH  19  21
ATOM     21  C   UNL     1      -1.143  -0.507  -1.715  0.00  0.00    +0.059 A 
ATOM     22  C   UNL     1      -2.336   0.210  -1.850  0.00  0.00    +0.018 A 
ATOM     23  C   UNL     1      -3.473  -0.427  -2.292  0.00  0.00    +0.046 A 
ATOM     24  C   UNL     1      -3.440  -1.784  -2.592  0.00  0.00    +0.121 A 
ATOM     25  C   UNL     1      -2.258  -2.502  -2.454  0.00  0.00    +0.046 A 
ATOM     26  C   UNL     1      -1.114  -1.871  -2.018  0.00  0.00    +0.018 A 
BRANCH  24  27
ATOM     27  O   UNL     1      -4.565  -2.410  -3.022  0.00  0.00    -0.492 OA
BRANCH  27  28
ATOM     28  C   UNL     1      -5.745  -1.613  -3.141  0.00  0.00    +0.232 C 
BRANCH  28  29
ATOM     29  C   UNL     1      -6.902  -2.484  -3.635  0.00  0.00    +0.020 C 
ATOM     30  C   UNL     1      -8.192  -1.662  -3.644  0.00  0.00    +0.010 C 
ATOM     31  C   UNL     1      -6.600  -2.976  -5.052  0.00  0.00    +0.010 C 
ENDBRANCH  28  29
ENDBRANCH  27  28
ENDBRANCH  24  27
ENDBRANCH  19  21
ENDBRANCH  18  19
ENDBRANCH  17  18
ENDBRANCH   2  17
TORSDOF 12
