REMARK  Name = ZINC15109342
REMARK  10 active torsions:
REMARK  status: ('A' for Active; 'I' for Inactive)
REMARK    1  A    between atoms: C_1  and  O_2
REMARK    2  A    between atoms: O_2  and  C_3
REMARK    3  A    between atoms: C_7  and  C_9
REMARK    4  A    between atoms: C_16  and  N_35
REMARK    5  A    between atoms: C_17  and  C_33
REMARK    6  A    between atoms: C_18  and  C_20
REMARK    7  A    between atoms: C_22  and  O_31
REMARK    8  A    between atoms: C_25  and  O_26
REMARK    9  A    between atoms: O_26  and  C_27
REMARK   10  A    between atoms: O_31  and  C_32
REMARK                            x       y       z     vdW  Elec       q    Type
REMARK                         _______ _______ _______ _____ _____    ______ ____
ROOT
ATOM      1  C   UNL     1      -2.514  -4.565  -0.798  0.00  0.00    +0.100 A 
ATOM      2  C   UNL     1      -3.221  -5.266   0.184  0.00  0.00    +0.054 A 
ATOM      3  C   UNL     1      -3.169  -6.594  -0.124  0.00  0.00    +0.223 A 
ATOM      4  N   UNL     1      -2.455  -6.724  -1.262  0.00  0.00    -0.246 N 
ATOM      5  H   UNL     1      -2.256  -7.556  -1.718  0.00  0.00    +0.192 HD
ATOM      6  N   UNL     1      -2.058  -5.442  -1.673  0.00  0.00    -0.171 NA
ATOM      7  O   UNL     1      -3.760  -7.547   0.639  0.00  0.00    -0.423 OA
ATOM      8  C   UNL     1      -4.177  -7.190   1.871  0.00  0.00    +0.200 C 
ATOM      9  C   UNL     1      -4.283  -5.908   2.287  0.00  0.00    +0.098 C 
ATOM     10  C   UNL     1      -3.942  -4.739   1.397  0.00  0.00    +0.105 C 
ENDROOT
BRANCH  10  11
ATOM     11  C   UNL     1      -5.207  -4.038   0.973  0.00  0.00    +0.014 A 
ATOM     12  C   UNL     1      -5.548  -2.824   1.542  0.00  0.00    +0.057 A 
ATOM     13  C   UNL     1      -6.711  -2.178   1.154  0.00  0.00    +0.166 A 
ATOM     14  C   UNL     1      -7.537  -2.748   0.192  0.00  0.00    +0.211 A 
ATOM     15  C   UNL     1      -7.194  -3.967  -0.379  0.00  0.00    +0.211 A 
ATOM     16  C   UNL     1      -6.024  -4.609   0.010  0.00  0.00    +0.170 A 
ATOM     17  O   UNL     1      -8.157  -4.311  -1.285  0.00  0.00    -0.449 OA
ATOM     18  C   UNL     1      -9.296  -3.490  -0.967  0.00  0.00    +0.467 C 
ATOM     19  O   UNL     1      -8.715  -2.324  -0.354  0.00  0.00    -0.449 OA
BRANCH  16  20
ATOM     20  O   UNL     1      -5.683  -5.800  -0.552  0.00  0.00    -0.491 OA
ATOM     21  C   UNL     1      -6.336  -6.966  -0.045  0.00  0.00    +0.277 C 
ENDBRANCH  16  20
BRANCH  13  22
ATOM     22  O   UNL     1      -7.044  -0.984   1.716  0.00  0.00    -0.491 OA
ATOM     23  C   UNL     1      -6.149  -0.457   2.698  0.00  0.00    +0.277 C 
ENDBRANCH  13  22
ENDBRANCH  10  11
BRANCH   1  28
ATOM     24  C   UNL     1      -1.808  -1.020   0.249  0.00  0.00    +0.121 A 
ATOM     25  C   UNL     1      -1.952  -0.349  -0.958  0.00  0.00    +0.045 A 
ATOM     26  C   UNL     1      -2.277  -1.047  -2.106  0.00  0.00    +0.004 A 
ATOM     27  C   UNL     1      -2.460  -2.415  -2.059  0.00  0.00    +0.010 A 
ATOM     28  C   UNL     1      -2.317  -3.095  -0.852  0.00  0.00    +0.006 A 
ATOM     29  C   UNL     1      -1.985  -2.393   0.304  0.00  0.00    +0.055 A 
BRANCH  24  31
ATOM     30  C   UNL     1      -1.321   1.083   1.246  0.00  0.00    +0.277 C 
ATOM     31  O   UNL     1      -1.488  -0.331   1.375  0.00  0.00    -0.495 OA
ENDBRANCH  24  31
ENDBRANCH   1  28
BRANCH   8  32
ATOM     32  N   UNL     1      -4.514  -8.186   2.753  0.00  0.00    -0.328 N 
ATOM     33  H   UNL     1      -4.449  -9.116   2.483  0.00  0.00    +0.145 HD
ATOM     34  H   UNL     1      -4.818  -7.961   3.646  0.00  0.00    +0.145 HD
ENDBRANCH   8  32
BRANCH   9  35
ATOM     35  C   UNL     1      -4.734  -5.652   3.622  0.00  0.00    +0.101 C 
ATOM     36  N   UNL     1      -5.092  -5.448   4.680  0.00  0.00    -0.191 NA
ENDBRANCH   9  35
TORSDOF 7
