REMARK  Name = ZINC12559694
REMARK  8 active torsions:
REMARK  status: ('A' for Active; 'I' for Inactive)
REMARK    1  A    between atoms: C_1  and  C_2
REMARK    2  A    between atoms: C_2  and  C_4
REMARK    3  A    between atoms: C_2  and  N_14
REMARK    4  A    between atoms: C_7  and  S_10
REMARK    5  A    between atoms: S_10  and  C_13
REMARK    6  A    between atoms: C_15  and  C_17
REMARK    7  A    between atoms: C_17  and  C_18
REMARK    8  A    between atoms: C_24  and  C_26
REMARK                            x       y       z     vdW  Elec       q    Type
REMARK                         _______ _______ _______ _____ _____    ______ ____
ROOT
ATOM      1  N   UNL     1      -1.041  -0.511   0.897  0.00  0.00    -0.308 N 
ATOM      2  C   UNL     1      -0.918  -1.735   1.449  0.00  0.00    +0.219 C 
ATOM      3  O   UNL     1       0.055  -2.416   1.205  0.00  0.00    -0.275 OA
ATOM      4  H   UNL     1      -1.819   0.033   1.093  0.00  0.00    +0.149 HD
ENDROOT
BRANCH   1   6
ATOM      5  C   UNL     1      -0.255  -0.510  -1.419  0.00  0.00    +0.033 C 
ATOM      6  C   UNL     1       0.002  -0.004   0.002  0.00  0.00    +0.100 C 
BRANCH   6   7
ATOM      7  C   UNL     1      -0.018   1.503   0.010  0.00  0.00    -0.027 A 
ATOM      8  C   UNL     1      -1.225   2.178   0.020  0.00  0.00    +0.007 A 
ATOM      9  C   UNL     1      -1.244   3.560   0.032  0.00  0.00    +0.027 A 
ATOM     10  C   UNL     1      -0.056   4.267   0.025  0.00  0.00    +0.088 A 
ATOM     11  C   UNL     1       1.151   3.592   0.010  0.00  0.00    +0.027 A 
ATOM     12  C   UNL     1       1.169   2.210   0.003  0.00  0.00    +0.007 A 
BRANCH  10  13
ATOM     13  S   UNL     1      -0.080   6.029   0.033  0.00  0.00    -0.006 S 
ATOM     14  O   UNL     1      -1.313   6.372   0.650  0.00  0.00    -0.170 OA
ATOM     15  O   UNL     1       1.155   6.405   0.626  0.00  0.00    -0.170 OA
ATOM     16  C   UNL     1      -0.103   6.503  -1.717  0.00  0.00    +0.200 C 
ENDBRANCH  10  13
ENDBRANCH   6   7
ENDBRANCH   1   6
BRANCH   2  17
ATOM     17  C   UNL     1      -1.991  -2.257   2.370  0.00  0.00    +0.150 C 
BRANCH  17  18
ATOM     18  C   UNL     1      -1.616  -3.636   2.847  0.00  0.00    +0.041 A 
ATOM     19  C   UNL     1      -0.812  -3.771   3.901  0.00  0.00    +0.070 A 
ATOM     20  S   UNL     1      -0.689  -5.547   4.046  0.00  0.00    -0.057 S 
ATOM     21  C   UNL     1      -1.727  -5.969   2.666  0.00  0.00    +0.178 A 
ATOM     22  N   UNL     1      -2.103  -4.742   2.185  0.00  0.00    -0.296 N 
ATOM     23  C   UNL     1      -2.922  -5.018   1.096  0.00  0.00    +0.121 A 
ATOM     24  C   UNL     1      -3.001  -6.365   0.972  0.00  0.00    +0.090 A 
ATOM     25  N   UNL     1      -2.255  -6.919   1.951  0.00  0.00    -0.221 NA
BRANCH  24  26
ATOM     26  C   UNL     1      -3.770  -7.102  -0.060  0.00  0.00    +0.002 A 
ATOM     27  C   UNL     1      -4.506  -6.403  -1.016  0.00  0.00    +0.010 A 
ATOM     28  C   UNL     1      -5.216  -7.094  -1.976  0.00  0.00    +0.001 A 
ATOM     29  C   UNL     1      -5.208  -8.477  -1.985  0.00  0.00    +0.000 A 
ATOM     30  C   UNL     1      -4.484  -9.176  -1.036  0.00  0.00    +0.001 A 
ATOM     31  C   UNL     1      -3.765  -8.495  -0.074  0.00  0.00    +0.010 A 
ENDBRANCH  24  26
ENDBRANCH  17  18
ENDBRANCH   2  17
TORSDOF 6
