REMARK  Name = ZINC07039876
REMARK  9 active torsions:
REMARK  status: ('A' for Active; 'I' for Inactive)
REMARK    1  A    between atoms: C_4  and  N_11
REMARK    2  A    between atoms: C_5  and  C_7
REMARK    3  A    between atoms: N_11  and  C_12
REMARK    4  A    between atoms: C_12  and  N_14
REMARK    5  A    between atoms: N_14  and  N_15
REMARK    6  A    between atoms: C_16  and  C_17
REMARK    7  A    between atoms: C_20  and  O_23
REMARK    8  A    between atoms: O_23  and  C_24
REMARK    9  A    between atoms: C_24  and  C_25
REMARK                            x       y       z     vdW  Elec       q    Type
REMARK                         _______ _______ _______ _____ _____    ______ ____
ROOT
ATOM      1  N   UNL     1      -4.739  -0.062  -0.157  0.00  0.00    -0.218 N 
ATOM      2  H   UNL     1      -5.571  -0.557  -0.225  0.00  0.00    +0.176 HD
ENDROOT
BRANCH   1   3
ATOM      3  C   UNL     1      -3.568  -0.723  -0.070  0.00  0.00    +0.154 C 
ATOM      4  S   UNL     1      -3.547  -2.434  -0.079  0.00  0.00    -0.017 S 
BRANCH   3   5
ATOM      5  N   UNL     1      -2.412  -0.035   0.024  0.00  0.00    -0.295 N 
ATOM      6  H   UNL     1      -2.429   0.931   0.110  0.00  0.00    +0.154 HD
BRANCH   5  10
ATOM      7  C   UNL     1       1.228  -2.058  -0.050  0.00  0.00    +0.001 A 
ATOM      8  C   UNL     1       0.234  -2.393  -0.952  0.00  0.00    +0.002 A 
ATOM      9  C   UNL     1      -0.974  -1.724  -0.930  0.00  0.00    +0.024 A 
ATOM     10  C   UNL     1      -1.190  -0.715  -0.000  0.00  0.00    +0.044 A 
ATOM     11  C   UNL     1      -0.190  -0.382   0.904  0.00  0.00    +0.076 A 
ATOM     12  C   UNL     1       1.018  -1.051   0.873  0.00  0.00    +0.014 A 
BRANCH  11  13
ATOM     13  C   UNL     1      -0.421   0.712   1.914  0.00  0.00    +0.419 C 
ATOM     14  F   UNL     1       0.721   0.863   2.708  0.00  0.00    -0.166 F 
ATOM     15  F   UNL     1      -0.687   1.914   1.248  0.00  0.00    -0.166 F 
ATOM     16  F   UNL     1      -1.511   0.377   2.725  0.00  0.00    -0.166 F 
ENDBRANCH  11  13
ENDBRANCH   5  10
ENDBRANCH   3   5
ENDBRANCH   1   3
BRANCH   1  17
ATOM     17  N   UNL     1      -4.757   1.339  -0.150  0.00  0.00    -0.188 NA
ATOM     18  C   UNL     1      -5.885   1.974  -0.234  0.00  0.00    +0.138 C 
BRANCH  18  19
ATOM     19  C   UNL     1      -5.903   3.448  -0.226  0.00  0.00    -0.005 A 
ATOM     20  C   UNL     1      -4.707   4.163  -0.123  0.00  0.00    +0.013 A 
ATOM     21  C   UNL     1      -4.728   5.541  -0.121  0.00  0.00    +0.046 A 
ATOM     22  C   UNL     1      -5.937   6.219  -0.211  0.00  0.00    +0.121 A 
ATOM     23  C   UNL     1      -7.128   5.513  -0.309  0.00  0.00    +0.046 A 
ATOM     24  C   UNL     1      -7.117   4.135  -0.317  0.00  0.00    +0.013 A 
BRANCH  22  25
ATOM     25  O   UNL     1      -5.953   7.578  -0.203  0.00  0.00    -0.481 OA
BRANCH  25  26
ATOM     26  C   UNL     1      -4.692   8.241  -0.100  0.00  0.00    +0.353 C 
BRANCH  26  27
ATOM     27  C   UNL     1      -4.907   9.733  -0.107  0.00  0.00    +0.393 C 
ATOM     28  O   UNL     1      -6.026  10.182  -0.191  0.00  0.00    -0.243 OA
ATOM     29  O   UNL     1      -3.856  10.563  -0.019  0.00  0.00    -0.243 OA
ENDBRANCH  26  27
ENDBRANCH  25  26
ENDBRANCH  22  25
ENDBRANCH  18  19
ENDBRANCH   1  17
TORSDOF 9
