REMARK  Name = ZINC61985398
REMARK  2 active torsions:
REMARK  status: ('A' for Active; 'I' for Inactive)
REMARK    1  A    between atoms: C_3  and  C_8
REMARK    2  A    between atoms: C_26  and  C_28
REMARK                            x       y       z     vdW  Elec       q    Type
REMARK                         _______ _______ _______ _____ _____    ______ ____
ROOT
ATOM      1  C   UNL     1       3.419   1.736   0.198  0.00  0.00    +0.215 C 
ATOM      2  C   UNL     1       4.024   2.069   1.561  0.00  0.00    +0.113 C 
ATOM      3  C   UNL     1       4.053   0.753   2.322  0.00  0.00    +0.065 C 
ATOM      4  C   UNL     1       4.547  -0.420   1.593  0.00  0.00    +0.040 A 
ATOM      5  C   UNL     1       4.943  -1.579   2.259  0.00  0.00    +0.033 A 
ATOM      6  C   UNL     1       5.395  -2.662   1.532  0.00  0.00    +0.042 A 
ATOM      7  C   UNL     1       5.452  -2.596   0.148  0.00  0.00    +0.023 A 
ATOM      8  C   UNL     1       5.065  -1.452  -0.520  0.00  0.00    +0.048 A 
ATOM      9  C   UNL     1       4.612  -0.350   0.190  0.00  0.00    +0.130 A 
ATOM     10  O   UNL     1       4.245   0.778  -0.466  0.00  0.00    -0.483 OA
ATOM     11 CL   UNL     1       5.892  -4.109   2.353  0.00  0.00    -0.084 Cl
ATOM     12  N   UNL     1       3.594   0.695   3.529  0.00  0.00    -0.213 NA
ATOM     13  C   UNL     1       2.975   1.720   4.165  0.00  0.00    +0.270 A 
ATOM     14  N   UNL     1       2.493   1.810   5.397  0.00  0.00    -0.088 NA
ATOM     15  N   UNL     1       1.947   2.956   5.587  0.00  0.00    -0.021 NA
ATOM     16  N   UNL     1       2.042   3.684   4.526  0.00  0.00    -0.042 NA
ATOM     17  N   UNL     1       2.729   2.920   3.577  0.00  0.00    -0.202 N 
ATOM     18  C   UNL     1       3.193   3.191   2.209  0.00  0.00    +0.157 C 
ENDROOT
BRANCH   1  21
ATOM     19  C   UNL     1      -0.027   0.379  -0.539  0.00  0.00    +0.003 A 
ATOM     20  C   UNL     1       1.240   0.905  -0.712  0.00  0.00    +0.007 A 
ATOM     21  C   UNL     1       2.038   1.163   0.387  0.00  0.00    -0.004 A 
ATOM     22  C   UNL     1       1.569   0.897   1.660  0.00  0.00    +0.045 A 
ATOM     23  C   UNL     1       0.300   0.371   1.834  0.00  0.00    +0.124 A 
ATOM     24  C   UNL     1      -0.498   0.112   0.732  0.00  0.00    +0.038 A 
ATOM     25  F   UNL     1      -0.159   0.110   3.077  0.00  0.00    -0.205 F 
ENDBRANCH   1  21
BRANCH  18  26
ATOM     26  C   UNL     1       1.987   3.448   1.343  0.00  0.00    -0.004 A 
ATOM     27  C   UNL     1       0.716   3.125   1.795  0.00  0.00    +0.009 A 
ATOM     28  C   UNL     1      -0.364   3.379   0.964  0.00  0.00    +0.020 A 
ATOM     29  C   UNL     1      -0.140   3.941  -0.279  0.00  0.00    +0.111 A 
ATOM     30  N   UNL     1       1.082   4.235  -0.676  0.00  0.00    -0.263 NA
ATOM     31  C   UNL     1       2.132   4.013   0.091  0.00  0.00    +0.116 A 
ENDBRANCH  18  26
TORSDOF 2
