REMARK  Name = ZINC66598150
REMARK  14 active torsions:
REMARK  status: ('A' for Active; 'I' for Inactive)
REMARK    1  A    between atoms: C_1  and  C_2
REMARK    2  A    between atoms: C_2  and  C_4
REMARK    3  A    between atoms: C_2  and  N_11
REMARK    4  A    between atoms: C_4  and  O_5
REMARK    5  A    between atoms: O_5  and  C_6
REMARK    6  A    between atoms: C_6  and  C_7
REMARK    7  A    between atoms: N_14  and  C_15
REMARK    8  A    between atoms: N_14  and  C_19
REMARK    9  A    between atoms: C_15  and  C_16
REMARK   10  A    between atoms: C_16  and  O_17
REMARK   11  A    between atoms: O_17  and  C_18
REMARK   12  A    between atoms: C_19  and  C_20
REMARK   13  A    between atoms: C_20  and  O_21
REMARK   14  A    between atoms: O_21  and  C_22
REMARK                            x       y       z     vdW  Elec       q    Type
REMARK                         _______ _______ _______ _____ _____    ______ ____
ROOT
ATOM      1  N   UNL     1      -1.372  -0.511   0.012  0.00  0.00    -0.294 N 
ATOM      2  C   UNL     1      -2.029  -0.655   1.181  0.00  0.00    +0.303 C 
ATOM      3  O   UNL     1      -1.480  -0.364   2.226  0.00  0.00    -0.253 OA
ATOM      4  N   UNL     1      -3.293  -1.122   1.190  0.00  0.00    -0.280 N 
ATOM      5  H   UNL     1      -1.810  -0.743  -0.822  0.00  0.00    +0.151 HD
ENDROOT
BRANCH   1   7
ATOM      6  C   UNL     1      -0.019   1.526   0.010  0.00  0.00    +0.030 C 
ATOM      7  C   UNL     1       0.002  -0.004   0.002  0.00  0.00    +0.097 C 
BRANCH   7   8
ATOM      8  C   UNL     1       0.718  -0.497  -1.257  0.00  0.00    +0.182 C 
BRANCH   8   9
ATOM      9  O   UNL     1       0.097   0.070  -2.412  0.00  0.00    -0.369 OA
BRANCH   9  10
ATOM     10  C   UNL     1       0.693  -0.329  -3.648  0.00  0.00    +0.273 C 
BRANCH  10  11
ATOM     11  C   UNL     1      -0.048   0.336  -4.809  0.00  0.00    +0.413 C 
ATOM     12  F   UNL     1       0.033   1.726  -4.680  0.00  0.00    -0.168 F 
ATOM     13  F   UNL     1       0.535  -0.055  -6.019  0.00  0.00    -0.168 F 
ATOM     14  F   UNL     1      -1.391  -0.057  -4.791  0.00  0.00    -0.168 F 
ENDBRANCH  10  11
ENDBRANCH   9  10
ENDBRANCH   8   9
ENDBRANCH   7   8
ENDBRANCH   1   7
BRANCH   4  15
ATOM     15  C   UNL     1      -3.954  -1.472  -0.069  0.00  0.00    +0.137 C 
BRANCH  15  16
ATOM     16  C   UNL     1      -3.686  -2.943  -0.394  0.00  0.00    +0.178 C 
BRANCH  16  17
ATOM     17  O   UNL     1      -4.299  -3.769   0.598  0.00  0.00    -0.381 OA
ATOM     18  C   UNL     1      -4.107  -5.170   0.387  0.00  0.00    +0.194 C 
ENDBRANCH  16  17
ENDBRANCH  15  16
ENDBRANCH   4  15
BRANCH   4  19
ATOM     19  C   UNL     1      -4.006  -1.278   2.460  0.00  0.00    +0.150 C 
BRANCH  19  20
ATOM     20  C   UNL     1      -4.753   0.016   2.789  0.00  0.00    +0.248 C 
BRANCH  20  21
ATOM     21  O   UNL     1      -5.769   0.241   1.809  0.00  0.00    -0.490 OA
BRANCH  21  22
ATOM     22  C   UNL     1      -6.531   1.358   1.956  0.00  0.00    +0.121 A 
ATOM     23  C   UNL     1      -6.300   2.221   3.017  0.00  0.00    +0.048 A 
ATOM     24  C   UNL     1      -7.075   3.356   3.164  0.00  0.00    +0.042 A 
ATOM     25  C   UNL     1      -8.081   3.631   2.254  0.00  0.00    +0.124 A 
ATOM     26  C   UNL     1      -8.313   2.769   1.195  0.00  0.00    +0.042 A 
ATOM     27  C   UNL     1      -7.535   1.638   1.041  0.00  0.00    +0.048 A 
ATOM     28  F   UNL     1      -8.838   4.740   2.400  0.00  0.00    -0.205 F 
ENDBRANCH  21  22
ENDBRANCH  20  21
ENDBRANCH  19  20
ENDBRANCH   4  19
TORSDOF 12
