REMARK  Name = ZINC58901892
REMARK  5 active torsions:
REMARK  status: ('A' for Active; 'I' for Inactive)
REMARK    1  A    between atoms: C_4  and  N_27
REMARK    2  A    between atoms: C_5  and  C_7
REMARK    3  A    between atoms: C_7  and  C_8
REMARK    4  A    between atoms: C_20  and  S_22
REMARK    5  A    between atoms: S_22  and  N_25
REMARK                            x       y       z     vdW  Elec       q    Type
REMARK                         _______ _______ _______ _____ _____    ______ ____
ROOT
ATOM      1  C   UNL     1       1.157  -2.663   1.516  0.00  0.00    +0.222 C 
ATOM      2  O   UNL     1       1.106  -1.855   2.420  0.00  0.00    -0.275 OA
ATOM      3  N   UNL     1       1.151  -3.983   1.791  0.00  0.00    -0.292 N 
ATOM      4  C   UNL     1       1.290  -4.922   0.681  0.00  0.00    +0.001 C 
ATOM      5  N   UNL     1       0.224  -5.939   0.785  0.00  0.00    +0.482 NA
ATOM      6  S   UNL     1       0.198  -6.823   2.200  0.00  0.00    -0.056 S 
ATOM      7  O   UNL     1       1.287  -7.734   2.140  0.00  0.00    -0.191 OA
ATOM      8  O   UNL     1      -1.145  -7.242   2.403  0.00  0.00    -0.191 OA
ATOM      9  C   UNL     1       0.573  -5.652   3.469  0.00  0.00    +0.089 A 
ATOM     10  C   UNL     1       1.017  -4.381   3.121  0.00  0.00    +0.058 A 
ATOM     11  C   UNL     1       1.330  -3.472   4.128  0.00  0.00    +0.047 A 
ATOM     12  C   UNL     1       1.196  -3.830   5.455  0.00  0.00    +0.069 A 
ATOM     13  C   UNL     1       0.748  -5.096   5.793  0.00  0.00    +0.125 A 
ATOM     14  C   UNL     1       0.430  -6.006   4.794  0.00  0.00    +0.056 A 
ATOM     15 CL   UNL     1       1.588  -2.690   6.703  0.00  0.00    -0.081 Cl
ENDROOT
BRANCH  13  16
ATOM     16  S   UNL     1       0.571  -5.546   7.487  0.00  0.00    +0.057 S 
ATOM     17  O   UNL     1      -0.155  -4.498   8.113  0.00  0.00    -0.153 OA
ATOM     18  O   UNL     1       0.127  -6.896   7.503  0.00  0.00    -0.153 OA
BRANCH  16  19
ATOM     19  N   UNL     1       2.086  -5.539   8.157  0.00  0.00    -0.203 NA
ATOM     20  H   UNL     1       2.199  -5.328   9.097  0.00  0.00    +0.144 HD
ATOM     21  H   UNL     1       2.859  -5.745   7.609  0.00  0.00    +0.144 HD
ENDBRANCH  16  19
ENDBRANCH  13  16
BRANCH   1  22
ATOM     22  C   UNL     1       1.229  -2.191   0.087  0.00  0.00    +0.133 C 
BRANCH  22  27
ATOM     23  C   UNL     1       0.040   1.378  -0.231  0.00  0.00    +0.000 A 
ATOM     24  C   UNL     1       1.210   2.080  -0.007  0.00  0.00    +0.002 A 
ATOM     25  C   UNL     1       2.386   1.399   0.247  0.00  0.00    +0.033 A 
ATOM     26  C   UNL     1       2.392   0.017   0.278  0.00  0.00    +0.130 A 
ATOM     27  C   UNL     1       1.222  -0.684   0.055  0.00  0.00    -0.008 A 
ATOM     28  C   UNL     1       0.046  -0.004  -0.201  0.00  0.00    +0.006 A 
BRANCH  26  29
ATOM     29  N   UNL     1       3.651  -0.712   0.549  0.00  0.00    +0.057 N 
ATOM     30  O   UNL     1       4.693  -0.105   0.641  0.00  0.00    -0.126 OA
ATOM     31  O   UNL     1       3.638  -1.914   0.679  0.00  0.00    -0.126 OA
ENDBRANCH  26  29
ENDBRANCH  22  27
ENDBRANCH   1  22
TORSDOF 5
