REMARK  Name = ZINC09475154
REMARK  3 active torsions:
REMARK  status: ('A' for Active; 'I' for Inactive)
REMARK    1  A    between atoms: C_1  and  C_2
REMARK    2  A    between atoms: C_11  and  C_14
REMARK    3  A    between atoms: C_22  and  C_23
REMARK                            x       y       z     vdW  Elec       q    Type
REMARK                         _______ _______ _______ _____ _____    ______ ____
ROOT
ATOM      1  C   UNL     1       4.416  -0.665  -1.711  0.00  0.00    +0.046 C 
ATOM      2  C   UNL     1       3.312  -1.022  -0.750  0.00  0.00    -0.017 A 
ATOM      3  C   UNL     1       2.231  -0.153  -0.570  0.00  0.00    +0.078 A 
ATOM      4  C   UNL     1       1.246  -0.583   0.350  0.00  0.00    +0.117 A 
ATOM      5  N   UNL     1       0.170   0.141   0.611  0.00  0.00    -0.214 NA
ATOM      6  C   UNL     1      -0.025   1.302   0.024  0.00  0.00    +0.194 A 
ATOM      7  N   UNL     1       0.877   1.815  -0.875  0.00  0.00    -0.171 N 
ATOM      8  C   UNL     1       1.988   1.115  -1.192  0.00  0.00    +0.284 A 
ATOM      9  O   UNL     1       2.781   1.561  -2.002  0.00  0.00    -0.265 OA
ATOM     10  N   UNL     1       0.677   3.061  -1.473  0.00  0.00    -0.165 NA
ATOM     11  C   UNL     1      -0.015   4.029  -0.982  0.00  0.00    +0.079 C 
ATOM     12  C   UNL     1      -0.721   3.893   0.349  0.00  0.00    +0.135 C 
ATOM     13  S   UNL     1      -1.483   2.239   0.380  0.00  0.00    -0.080 S 
ATOM     14  S   UNL     1       1.867  -2.148   0.915  0.00  0.00    -0.064 S 
ATOM     15  C   UNL     1       3.365  -2.194  -0.054  0.00  0.00    +0.080 A 
ENDROOT
BRANCH  15  16
ATOM     16  C   UNL     1       4.396  -3.234  -0.093  0.00  0.00    +0.254 C 
ATOM     17  O   UNL     1       5.566  -2.925  -0.222  0.00  0.00    -0.269 OA
ATOM     18  N   UNL     1       4.049  -4.532   0.015  0.00  0.00    -0.293 N 
ATOM     19  C   UNL     1       2.635  -4.937   0.054  0.00  0.00    +0.136 C 
ATOM     20  C   UNL     1       2.426  -6.049  -0.986  0.00  0.00    +0.179 C 
ATOM     21  O   UNL     1       3.389  -7.083  -0.766  0.00  0.00    -0.377 OA
ATOM     22  C   UNL     1       4.746  -6.665  -0.933  0.00  0.00    +0.179 C 
ATOM     23  C   UNL     1       5.073  -5.585   0.103  0.00  0.00    +0.136 C 
ENDBRANCH  15  16
BRANCH  11  24
ATOM     24  C   UNL     1      -0.122   5.294  -1.732  0.00  0.00    -0.001 A 
ATOM     25  C   UNL     1      -0.873   6.353  -1.217  0.00  0.00    +0.011 A 
ATOM     26  C   UNL     1      -0.965   7.536  -1.920  0.00  0.00    +0.020 A 
ATOM     27  C   UNL     1      -0.323   7.671  -3.140  0.00  0.00    +0.041 A 
ATOM     28  C   UNL     1       0.419   6.623  -3.659  0.00  0.00    +0.020 A 
ATOM     29  C   UNL     1       0.523   5.437  -2.963  0.00  0.00    +0.011 A 
ATOM     30 CL   UNL     1      -0.449   9.161  -4.023  0.00  0.00    -0.084 Cl
ENDBRANCH  11  24
TORSDOF 2
