REMARK  Name = ZINC36628501
REMARK  9 active torsions:
REMARK  status: ('A' for Active; 'I' for Inactive)
REMARK    1  A    between atoms: C_1  and  C_2
REMARK    2  A    between atoms: C_4  and  C_35
REMARK    3  A    between atoms: C_6  and  S_8
REMARK    4  A    between atoms: S_8  and  C_9
REMARK    5  A    between atoms: C_9  and  C_10
REMARK    6  A    between atoms: C_13  and  C_16
REMARK    7  A    between atoms: N_18  and  N_19
REMARK    8  A    between atoms: C_20  and  C_22
REMARK    9  A    between atoms: C_22  and  N_23
REMARK                            x       y       z     vdW  Elec       q    Type
REMARK                         _______ _______ _______ _____ _____    ______ ____
ROOT
ATOM      1  C   UNL     1       0.097  -3.857   9.188  0.00  0.00    +0.260 C 
ATOM      2  O   UNL     1      -0.950  -4.120   9.747  0.00  0.00    -0.269 OA
ATOM      3  N   UNL     1       1.270  -4.107   9.801  0.00  0.00    -0.230 N 
ATOM      4  H   UNL     1       2.106  -3.897   9.355  0.00  0.00    +0.173 HD
ENDROOT
BRANCH   1   8
ATOM      5  C   UNL     1       0.056  -2.148   5.299  0.00  0.00    -0.037 A 
ATOM      6  C   UNL     1      -1.137  -2.447   5.933  0.00  0.00    +0.005 A 
ATOM      7  C   UNL     1      -1.131  -3.002   7.196  0.00  0.00    +0.013 A 
ATOM      8  C   UNL     1       0.083  -3.263   7.834  0.00  0.00    +0.038 A 
ATOM      9  C   UNL     1       1.283  -2.959   7.189  0.00  0.00    +0.013 A 
ATOM     10  C   UNL     1       1.262  -2.409   5.924  0.00  0.00    +0.005 A 
BRANCH   5  11
ATOM     11  C   UNL     1       0.041  -1.542   3.919  0.00  0.00    +0.112 C 
BRANCH  11  12
ATOM     12  S   UNL     1       0.053  -2.864   2.678  0.00  0.00    -0.081 S 
BRANCH  12  18
ATOM     13  C   UNL     1      -0.018   1.503   0.010  0.00  0.00    +0.066 C 
ATOM     14  C   UNL     1       0.002  -0.004   0.002  0.00  0.00    +0.043 A 
ATOM     15  C   UNL     1       0.006  -0.699  -1.198  0.00  0.00    +0.046 A 
ATOM     16  C   UNL     1       0.025  -2.084  -1.161  0.00  0.00    +0.043 A 
ATOM     17  N   UNL     1       0.039  -2.699   0.010  0.00  0.00    -0.227 NA
ATOM     18  C   UNL     1       0.035  -2.005   1.140  0.00  0.00    +0.189 A 
ATOM     19  N   UNL     1       0.022  -0.679   1.139  0.00  0.00    -0.227 NA
ATOM     20  C   UNL     1       0.029  -2.881  -2.440  0.00  0.00    +0.066 C 
ENDBRANCH  12  18
ENDBRANCH  11  12
ENDBRANCH   5  11
ENDBRANCH   1   8
BRANCH   3  21
ATOM     21  N   UNL     1       1.284  -4.670  11.084  0.00  0.00    -0.233 N 
ATOM     22  C   UNL     1       2.458  -4.921  11.698  0.00  0.00    +0.251 C 
ATOM     23  O   UNL     1       3.502  -4.658  11.140  0.00  0.00    -0.272 OA
ATOM     24  H   UNL     1       0.449  -4.880  11.530  0.00  0.00    +0.173 HD
BRANCH  22  25
ATOM     25  C   UNL     1       2.472  -5.527  13.078  0.00  0.00    +0.244 C 
BRANCH  25  26
ATOM     26  N   UNL     1       3.858  -5.698  13.521  0.00  0.00    -0.216 N 
ATOM     27  C   UNL     1       4.459  -4.698  14.198  0.00  0.00    +0.276 A 
ATOM     28  O   UNL     1       3.859  -3.666  14.440  0.00  0.00    -0.266 OA
ATOM     29  C   UNL     1       5.848  -4.876  14.640  0.00  0.00    +0.053 A 
ATOM     30  C   UNL     1       6.530  -3.885  15.344  0.00  0.00    +0.014 A 
ATOM     31  C   UNL     1       7.833  -4.105  15.735  0.00  0.00    +0.001 A 
ATOM     32  C   UNL     1       8.471  -5.301  15.435  0.00  0.00    +0.001 A 
ATOM     33  C   UNL     1       7.816  -6.294  14.740  0.00  0.00    +0.014 A 
ATOM     34  C   UNL     1       6.496  -6.094  14.334  0.00  0.00    +0.055 A 
ATOM     35  C   UNL     1       5.752  -7.117  13.592  0.00  0.00    +0.295 A 
ATOM     36  O   UNL     1       6.346  -8.298  13.283  0.00  0.00    -0.264 OA
ATOM     37  N   UNL     1       4.518  -6.894  13.236  0.00  0.00    -0.125 NA
ENDBRANCH  25  26
ENDBRANCH  22  25
ENDBRANCH   3  21
TORSDOF 7
