REMARK  Name = ZINC59993899
REMARK  10 active torsions:
REMARK  status: ('A' for Active; 'I' for Inactive)
REMARK    1  A    between atoms: C_1  and  N_2
REMARK    2  A    between atoms: N_2  and  C_3
REMARK    3  A    between atoms: N_2  and  C_4
REMARK    4  A    between atoms: C_4  and  C_6
REMARK    5  A    between atoms: C_4  and  C_22
REMARK    6  A    between atoms: C_6  and  N_7
REMARK    7  A    between atoms: N_10  and  C_11
REMARK    8  A    between atoms: C_11  and  C_12
REMARK    9  A    between atoms: C_12  and  O_13
REMARK   10  A    between atoms: O_13  and  C_14
REMARK                            x       y       z     vdW  Elec       q    Type
REMARK                         _______ _______ _______ _____ _____    ______ ____
ROOT
ATOM      1  N   UNL     1      -1.766   1.531  -1.169  0.00  0.00    -0.301 N 
ATOM      2  C   UNL     1      -2.260   2.263  -2.188  0.00  0.00    +0.300 C 
ATOM      3  O   UNL     1      -2.936   1.731  -3.047  0.00  0.00    -0.253 OA
ATOM      4  N   UNL     1      -2.004   3.585  -2.254  0.00  0.00    -0.296 N 
ATOM      5  H   UNL     1      -1.227   1.956  -0.484  0.00  0.00    +0.150 HD
ATOM      6  H   UNL     1      -1.465   4.009  -1.569  0.00  0.00    +0.150 HD
ENDROOT
BRANCH   1   7
ATOM      7  C   UNL     1      -2.044   0.095  -1.098  0.00  0.00    +0.095 C 
BRANCH   7   8
ATOM      8  C   UNL     1      -1.280  -0.514   0.080  0.00  0.00    -0.014 C 
BRANCH   8   9
ATOM      9  C   UNL     1      -1.798   0.069   1.370  0.00  0.00    -0.022 A 
ATOM     10  C   UNL     1      -1.272   1.061   2.129  0.00  0.00    +0.009 A 
ATOM     11  C   UNL     1      -1.927   1.438   3.287  0.00  0.00    +0.008 A 
ATOM     12  C   UNL     1      -3.075   0.803   3.629  0.00  0.00    +0.045 A 
ATOM     13  S   UNL     1      -3.265  -0.362   2.290  0.00  0.00    -0.103 S 
ENDBRANCH   8   9
BRANCH   8  15
ATOM     14  C   UNL     1      -0.940  -2.543  -1.154  0.00  0.00    -0.096 C 
ATOM     15  N   UNL     1      -1.474  -1.970   0.089  0.00  0.00    +0.382 N 
ATOM     16  C   UNL     1      -0.769  -2.551   1.239  0.00  0.00    -0.096 C 
ATOM     17  H   UNL     1      -2.459  -2.178   0.159  0.00  0.00    -0.082 HD
ENDBRANCH   8  15
ENDBRANCH   7   8
ENDBRANCH   1   7
BRANCH   4  18
ATOM     18  C   UNL     1      -2.541   4.380  -3.361  0.00  0.00    +0.146 C 
BRANCH  18  19
ATOM     19  C   UNL     1      -2.107   5.838  -3.199  0.00  0.00    +0.248 C 
BRANCH  19  20
ATOM     20  O   UNL     1      -0.686   5.928  -3.322  0.00  0.00    -0.489 OA
BRANCH  20  21
ATOM     21  C   UNL     1      -0.133   7.165  -3.203  0.00  0.00    +0.140 A 
ATOM     22  C   UNL     1      -0.942   8.267  -2.965  0.00  0.00    +0.047 A 
ATOM     23  C   UNL     1      -0.378   9.522  -2.844  0.00  0.00    +0.005 A 
ATOM     24  C   UNL     1       0.990   9.682  -2.958  0.00  0.00    +0.022 A 
ATOM     25  C   UNL     1       1.800   8.586  -3.196  0.00  0.00    +0.063 A 
ATOM     26  C   UNL     1       1.241   7.325  -3.312  0.00  0.00    +0.101 A 
ATOM     27 CL   UNL     1       2.256   5.948  -3.602  0.00  0.00    -0.078 Cl
ATOM     28 CL   UNL     1       3.518   8.790  -3.340  0.00  0.00    -0.082 Cl
ENDBRANCH  20  21
ENDBRANCH  19  20
ENDBRANCH  18  19
ENDBRANCH   4  18
TORSDOF 8
