REMARK  Name = ZINC65196936
REMARK  5 active torsions:
REMARK  status: ('A' for Active; 'I' for Inactive)
REMARK    1  A    between atoms: C_1  and  C_2
REMARK    2  A    between atoms: C_2  and  C_3
REMARK    3  A    between atoms: N_5  and  C_6
REMARK    4  A    between atoms: C_14  and  C_17
REMARK    5  A    between atoms: N_22  and  C_25
REMARK                            x       y       z     vdW  Elec       q    Type
REMARK                         _______ _______ _______ _____ _____    ______ ____
ROOT
ATOM      1  C   UNL     1      -2.982  -2.277  -0.054  0.00  0.00    +0.052 A 
ATOM      2  C   UNL     1      -3.282  -3.638  -0.083  0.00  0.00    +0.028 A 
ATOM      3  C   UNL     1      -4.609  -4.018  -0.174  0.00  0.00    +0.048 A 
ATOM      4  C   UNL     1      -5.591  -3.038  -0.233  0.00  0.00    +0.139 A 
ATOM      5  N   UNL     1      -5.271  -1.755  -0.204  0.00  0.00    -0.236 NA
ATOM      6  C   UNL     1      -4.017  -1.356  -0.112  0.00  0.00    +0.136 A 
ATOM      7  N   UNL     1      -6.937  -3.412  -0.325  0.00  0.00    -0.290 N 
ATOM      8  C   UNL     1      -7.996  -2.572  -0.492  0.00  0.00    +0.127 A 
ATOM      9  C   UNL     1      -9.114  -3.353  -0.529  0.00  0.00    +0.144 A 
ATOM     10  N   UNL     1      -8.720  -4.644  -0.386  0.00  0.00    -0.231 NA
ATOM     11  C   UNL     1      -7.424  -4.682  -0.270  0.00  0.00    +0.206 A 
ENDROOT
BRANCH   9  12
ATOM     12  C   UNL     1     -10.500  -2.880  -0.695  0.00  0.00    +0.267 C 
ATOM     13  O   UNL     1     -10.718  -1.706  -0.926  0.00  0.00    -0.268 OA
ATOM     14  N   UNL     1     -11.525  -3.748  -0.591  0.00  0.00    -0.293 N 
ATOM     15  C   UNL     1     -11.273  -5.186  -0.420  0.00  0.00    +0.127 C 
ATOM     16  C   UNL     1     -12.004  -5.666   0.840  0.00  0.00    +0.124 C 
ATOM     17  N   UNL     1     -13.394  -5.192   0.785  0.00  0.00    -0.327 N 
ATOM     18  C   UNL     1     -13.646  -3.754   0.615  0.00  0.00    +0.124 C 
ATOM     19  C   UNL     1     -12.915  -3.274  -0.639  0.00  0.00    +0.127 C 
BRANCH  17  20
ATOM     20  C   UNL     1     -14.457  -6.092   0.894  0.00  0.00    +0.030 A 
ATOM     21  C   UNL     1     -14.211  -7.429   1.179  0.00  0.00    +0.024 A 
ATOM     22  C   UNL     1     -15.263  -8.317   1.286  0.00  0.00    +0.022 A 
ATOM     23  C   UNL     1     -16.563  -7.875   1.108  0.00  0.00    +0.041 A 
ATOM     24  C   UNL     1     -16.811  -6.544   0.824  0.00  0.00    +0.022 A 
ATOM     25  C   UNL     1     -15.763  -5.651   0.722  0.00  0.00    +0.024 A 
ATOM     26 CL   UNL     1     -17.884  -8.994   1.242  0.00  0.00    -0.084 Cl
ENDBRANCH  17  20
ENDBRANCH   9  12
BRANCH   1  29
ATOM     27  C   UNL     1      -0.674  -2.542  -0.575  0.00  0.00    +0.217 C 
ATOM     28  O   UNL     1      -0.933  -3.584  -1.139  0.00  0.00    -0.275 OA
ATOM     29  N   UNL     1      -1.652  -1.846   0.038  0.00  0.00    -0.284 N 
ATOM     30  H   UNL     1      -1.436  -1.047   0.542  0.00  0.00    +0.155 HD
BRANCH  27  32
ATOM     31  C   UNL     1       1.647  -2.995  -1.321  0.00  0.00    +0.013 C 
ATOM     32  C   UNL     1       0.741  -2.025  -0.560  0.00  0.00    +0.093 C 
ENDBRANCH  27  32
ENDBRANCH   1  29
TORSDOF 4
