REMARK  Name = ZINC16905066
REMARK  9 active torsions:
REMARK  status: ('A' for Active; 'I' for Inactive)
REMARK    1  A    between atoms: C_1  and  C_2
REMARK    2  A    between atoms: C_2  and  C_4
REMARK    3  A    between atoms: C_2  and  N_60
REMARK    4  A    between atoms: C_7  and  S_16
REMARK    5  A    between atoms: N_8  and  C_9
REMARK    6  A    between atoms: S_16  and  C_17
REMARK    7  A    between atoms: C_17  and  C_19
REMARK    8  A    between atoms: C_17  and  C_20
REMARK    9  A    between atoms: N_22  and  C_23
REMARK                            x       y       z     vdW  Elec       q    Type
REMARK                         _______ _______ _______ _____ _____    ______ ____
ROOT
ATOM      1  C   UNL     1      -1.062   1.457   3.510  0.00  0.00    +0.125 A 
ATOM      2  N   UNL     1      -1.236   2.727   3.743  0.00  0.00    -0.135 NA
ATOM      3  N   UNL     1      -1.753   2.897   4.907  0.00  0.00    -0.122 NA
ATOM      4  C   UNL     1      -1.932   1.735   5.491  0.00  0.00    +0.197 A 
ATOM      5  N   UNL     1      -1.496   0.777   4.617  0.00  0.00    -0.275 N 
ENDROOT
BRANCH   5   6
ATOM      6  C   UNL     1      -1.494  -0.612   4.814  0.00  0.00    +0.050 A 
ATOM      7  C   UNL     1      -2.293  -1.427   4.024  0.00  0.00    +0.029 A 
ATOM      8  C   UNL     1      -2.286  -2.795   4.216  0.00  0.00    +0.040 A 
ATOM      9  C   UNL     1      -1.490  -3.352   5.202  0.00  0.00    +0.124 A 
ATOM     10  C   UNL     1      -0.696  -2.541   5.995  0.00  0.00    +0.040 A 
ATOM     11  C   UNL     1      -0.697  -1.173   5.802  0.00  0.00    +0.029 A 
ATOM     12  F   UNL     1      -1.488  -4.690   5.392  0.00  0.00    -0.205 F 
ENDBRANCH   5   6
BRANCH   1  14
ATOM     13  C   UNL     1       1.036   1.008   2.268  0.00  0.00    -0.005 C 
ATOM     14  C   UNL     1      -0.485   0.849   2.258  0.00  0.00    -0.002 C 
BRANCH  14  20
ATOM     15  C   UNL     1      -2.500   1.371   1.021  0.00  0.00    -0.078 C 
ATOM     16  C   UNL     1      -3.059   2.211  -0.130  0.00  0.00    -0.019 C 
ATOM     17  C   UNL     1      -2.422   1.755  -1.445  0.00  0.00    -0.004 C 
ATOM     18  C   UNL     1      -0.900   1.885  -1.338  0.00  0.00    -0.019 C 
ATOM     19  C   UNL     1      -0.403   1.055  -0.153  0.00  0.00    -0.078 C 
ATOM     20  N   UNL     1      -1.035   1.560   1.085  0.00  0.00    +0.386 N 
ATOM     21  H   UNL     1      -0.832   2.562   1.177  0.00  0.00    -0.081 HD
ENDBRANCH  14  20
ENDBRANCH   1  14
BRANCH   4  22
ATOM     22  S   UNL     1      -2.604   1.461   7.096  0.00  0.00    -0.073 S 
BRANCH  22  23
ATOM     23  C   UNL     1      -2.927   3.170   7.598  0.00  0.00    +0.137 C 
ATOM     24  C   UNL     1      -1.601   3.925   7.720  0.00  0.00    +0.029 C 
BRANCH  23  25
ATOM     25  C   UNL     1      -3.634   3.178   8.928  0.00  0.00    +0.230 C 
ATOM     26  O   UNL     1      -3.505   2.243   9.690  0.00  0.00    -0.274 OA
ATOM     27  N   UNL     1      -4.410   4.225   9.273  0.00  0.00    -0.284 N 
ATOM     28  H   UNL     1      -4.572   4.939   8.636  0.00  0.00    +0.155 HD
BRANCH  27  29
ATOM     29  C   UNL     1      -4.983   4.282  10.549  0.00  0.00    +0.036 A 
ATOM     30  C   UNL     1      -6.225   4.877  10.727  0.00  0.00    +0.026 A 
ATOM     31  C   UNL     1      -6.792   4.928  11.986  0.00  0.00    +0.043 A 
ATOM     32  C   UNL     1      -6.118   4.396  13.072  0.00  0.00    +0.159 A 
ATOM     33  C   UNL     1      -4.875   3.807  12.898  0.00  0.00    +0.160 A 
ATOM     34  C   UNL     1      -4.308   3.749  11.638  0.00  0.00    +0.064 A 
ATOM     35  F   UNL     1      -4.219   3.288  13.959  0.00  0.00    -0.202 F 
ATOM     36  F   UNL     1      -6.672   4.452  14.303  0.00  0.00    -0.202 F 
ENDBRANCH  27  29
ENDBRANCH  23  25
ENDBRANCH  22  23
ENDBRANCH   4  22
TORSDOF 7
