REMARK  Name = ZINC11572239
REMARK  7 active torsions:
REMARK  status: ('A' for Active; 'I' for Inactive)
REMARK    1  A    between atoms: C_1  and  C_2
REMARK    2  A    between atoms: C_4  and  N_26
REMARK    3  A    between atoms: C_7  and  N_8
REMARK    4  A    between atoms: C_9  and  C_11
REMARK    5  A    between atoms: C_11  and  C_12
REMARK    6  A    between atoms: C_12  and  N_13
REMARK    7  A    between atoms: C_14  and  C_16
REMARK                            x       y       z     vdW  Elec       q    Type
REMARK                         _______ _______ _______ _____ _____    ______ ____
ROOT
ATOM      1  N   UNL     1      -1.156  -0.694   0.009  0.00  0.00    -0.285 N 
ATOM      2  C   UNL     1       0.002  -0.005   0.010  0.00  0.00    +0.219 C 
ATOM      3  O   UNL     1       1.061  -0.597   0.016  0.00  0.00    -0.275 OA
ATOM      4  H   UNL     1      -2.000  -0.223   0.088  0.00  0.00    +0.155 HD
ENDROOT
BRANCH   1  11
ATOM      5  C   UNL     1      -3.359  -2.151   1.064  0.00  0.00    +0.046 C 
ATOM      6  C   UNL     1      -2.196  -2.840   0.398  0.00  0.00    -0.028 A 
ATOM      7  C   UNL     1      -2.183  -4.215   0.282  0.00  0.00    +0.028 A 
ATOM      8  C   UNL     1      -1.109  -4.851  -0.327  0.00  0.00    +0.030 A 
ATOM      9  C   UNL     1      -0.050  -4.101  -0.824  0.00  0.00    +0.025 A 
ATOM     10  C   UNL     1      -0.066  -2.726  -0.713  0.00  0.00    +0.025 A 
ATOM     11  C   UNL     1      -1.140  -2.091  -0.104  0.00  0.00    +0.036 A 
BRANCH   8  12
ATOM     12  N   UNL     1      -1.092  -6.245  -0.439  0.00  0.00    -0.330 N 
ATOM     13  C   UNL     1      -0.857  -6.663  -1.845  0.00  0.00    +0.105 C 
ATOM     14  C   UNL     1      -0.354  -8.122  -1.701  0.00  0.00    +0.020 C 
ATOM     15  C   UNL     1       0.517  -8.063  -0.425  0.00  0.00    +0.020 C 
ATOM     16  C   UNL     1       0.018  -6.827   0.346  0.00  0.00    +0.105 C 
ENDBRANCH   8  12
ENDBRANCH   1  11
BRANCH   2  17
ATOM     17  C   UNL     1      -0.017   1.502   0.002  0.00  0.00    +0.115 C 
BRANCH  17  18
ATOM     18  C   UNL     1       1.418   2.031   0.004  0.00  0.00    +0.113 C 
BRANCH  18  19
ATOM     19  N   UNL     1       1.399   3.496  -0.004  0.00  0.00    -0.314 N 
ATOM     20  C   UNL     1       2.558   4.185  -0.004  0.00  0.00    +0.219 C 
ATOM     21  O   UNL     1       3.616   3.592   0.003  0.00  0.00    -0.275 OA
ATOM     22  H   UNL     1       0.553   3.970  -0.009  0.00  0.00    +0.149 HD
BRANCH  20  23
ATOM     23  C   UNL     1       2.538   5.692  -0.012  0.00  0.00    +0.048 C 
ATOM     24  C   UNL     1       1.814   6.186  -1.266  0.00  0.00    +0.019 C 
ATOM     25  C   UNL     1       1.794   7.716  -1.274  0.00  0.00    -0.009 C 
ATOM     26  C   UNL     1       3.230   8.244  -1.272  0.00  0.00    +0.007 C 
ATOM     27  C   UNL     1       3.954   7.750  -0.018  0.00  0.00    -0.009 C 
ATOM     28  C   UNL     1       3.974   6.221  -0.010  0.00  0.00    +0.019 C 
ATOM     29  C   UNL     1       3.221   8.258   1.226  0.00  0.00    +0.007 C 
ATOM     30  C   UNL     1       1.786   7.729   1.224  0.00  0.00    -0.009 C 
ATOM     31  C   UNL     1       1.062   8.223  -0.030  0.00  0.00    +0.007 C 
ATOM     32  C   UNL     1       1.806   6.199   1.232  0.00  0.00    +0.019 C 
ENDBRANCH  20  23
ENDBRANCH  18  19
ENDBRANCH  17  18
ENDBRANCH   2  17
TORSDOF 6
