REMARK  Name = ZINC04280653
REMARK  3 active torsions:
REMARK  status: ('A' for Active; 'I' for Inactive)
REMARK    1  A    between atoms: C_1  and  N_2
REMARK    2  A    between atoms: C_11  and  C_12
REMARK    3  A    between atoms: C_11  and  C_14
REMARK                            x       y       z     vdW  Elec       q    Type
REMARK                         _______ _______ _______ _____ _____    ______ ____
ROOT
ATOM      1  C   UNL     1      -2.756   1.256   0.069  0.00  0.00    +0.137 C 
ATOM      2  N   UNL     1      -2.440  -0.173   0.147  0.00  0.00    -0.289 N 
ATOM      3  C   UNL     1      -3.362  -1.204   0.294  0.00  0.00    +0.056 A 
ATOM      4  C   UNL     1      -4.745  -1.228   0.406  0.00  0.00    +0.025 A 
ATOM      5  C   UNL     1      -5.404  -2.432   0.553  0.00  0.00    +0.002 A 
ATOM      6  C   UNL     1      -4.690  -3.618   0.588  0.00  0.00    +0.002 A 
ATOM      7  C   UNL     1      -3.314  -3.606   0.477  0.00  0.00    +0.025 A 
ATOM      8  C   UNL     1      -2.642  -2.401   0.330  0.00  0.00    +0.054 A 
ATOM      9  N   UNL     1      -1.296  -2.076   0.197  0.00  0.00    -0.300 N 
ATOM     10  C   UNL     1      -1.193  -0.721   0.084  0.00  0.00    +0.115 C 
ATOM     11  C   UNL     1      -0.003  -0.009  -0.066  0.00  0.00    +0.114 C 
ATOM     12  H   UNL     1      -0.536  -2.871   0.198  0.00  0.00    +0.153 HD
ENDROOT
BRANCH  11  13
ATOM     13  C   UNL     1      -0.018   1.465  -0.049  0.00  0.00    +0.103 A 
ATOM     14  C   UNL     1      -0.082   2.193  -1.247  0.00  0.00    +0.063 A 
ATOM     15  C   UNL     1      -0.094   3.571  -1.175  0.00  0.00    +0.131 A 
ATOM     16  N   UNL     1      -0.044   4.159   0.013  0.00  0.00    -0.225 NA
ATOM     17  C   UNL     1       0.015   3.449   1.124  0.00  0.00    +0.223 A 
ATOM     18  N   UNL     1       0.023   2.131   1.108  0.00  0.00    -0.215 NA
ATOM     19 CL   UNL     1       0.078   4.274   2.650  0.00  0.00    -0.041 Cl
ATOM     20 BR   UNL     1      -0.151   1.308  -2.917  0.00  0.00    -0.046 Br
ENDBRANCH  11  13
BRANCH  11  21
ATOM     21  C   UNL     1       1.234  -0.710  -0.237  0.00  0.00    +0.105 C 
ATOM     22  N   UNL     1       2.215  -1.266  -0.373  0.00  0.00    -0.191 NA
ENDBRANCH  11  21
TORSDOF 2
