REMARK  Name = ZINC00718393
REMARK  4 active torsions:
REMARK  status: ('A' for Active; 'I' for Inactive)
REMARK    1  A    between atoms: C_3  and  C_8
REMARK    2  A    between atoms: C_11  and  C_22
REMARK    3  A    between atoms: C_17  and  N_21
REMARK    4  A    between atoms: C_18  and  C_19
REMARK                            x       y       z     vdW  Elec       q    Type
REMARK                         _______ _______ _______ _____ _____    ______ ____
ROOT
ATOM      1  C   UNL     1       3.745   2.295  -0.013  0.00  0.00    +0.102 C 
ATOM      2  C   UNL     1       4.553   1.791  -1.181  0.00  0.00    +0.054 A 
ATOM      3  C   UNL     1       4.351   1.995  -2.550  0.00  0.00    +0.100 A 
ATOM      4  N   UNL     1       5.308   1.362  -3.200  0.00  0.00    -0.171 NA
ATOM      5  N   UNL     1       6.145   0.740  -2.260  0.00  0.00    -0.246 N 
ATOM      6  H   UNL     1       6.929   0.206  -2.460  0.00  0.00    +0.192 HD
ATOM      7  C   UNL     1       5.665   1.016  -1.030  0.00  0.00    +0.223 A 
ATOM      8  O   UNL     1       6.135   0.638   0.186  0.00  0.00    -0.423 OA
ATOM      9  C   UNL     1       5.640   1.269   1.270  0.00  0.00    +0.200 C 
ATOM     10  C   UNL     1       4.538   2.053   1.247  0.00  0.00    +0.098 C 
ENDROOT
BRANCH   1  13
ATOM     11  C   UNL     1       0.043   1.566   0.114  0.00  0.00    +0.003 A 
ATOM     12  C   UNL     1       1.244   2.248   0.048  0.00  0.00    +0.005 A 
ATOM     13  C   UNL     1       2.437   1.550   0.059  0.00  0.00    -0.032 A 
ATOM     14  C   UNL     1       2.431   0.170   0.136  0.00  0.00    +0.043 A 
ATOM     15  C   UNL     1       1.228  -0.513   0.202  0.00  0.00    +0.124 A 
ATOM     16  C   UNL     1       0.034   0.187   0.191  0.00  0.00    +0.038 A 
ATOM     17  F   UNL     1       1.221  -1.862   0.277  0.00  0.00    -0.205 F 
ENDBRANCH   1  13
BRANCH   3  18
ATOM     18  C   UNL     1       3.253   2.784  -3.162  0.00  0.00    +0.003 A 
ATOM     19  C   UNL     1       2.878   4.006  -2.609  0.00  0.00    +0.013 A 
ATOM     20  C   UNL     1       1.857   4.737  -3.182  0.00  0.00    +0.039 A 
ATOM     21  C   UNL     1       1.205   4.256  -4.306  0.00  0.00    +0.123 A 
ATOM     22  C   UNL     1       1.574   3.040  -4.859  0.00  0.00    +0.039 A 
ATOM     23  C   UNL     1       2.598   2.306  -4.296  0.00  0.00    +0.013 A 
ATOM     24  F   UNL     1       0.206   4.974  -4.864  0.00  0.00    -0.205 F 
ENDBRANCH   3  18
BRANCH   9  25
ATOM     25  N   UNL     1       6.292   1.106   2.467  0.00  0.00    -0.328 N 
ATOM     26  H   UNL     1       7.085   0.549   2.515  0.00  0.00    +0.145 HD
ATOM     27  H   UNL     1       5.959   1.547   3.264  0.00  0.00    +0.145 HD
ENDBRANCH   9  25
BRANCH  10  28
ATOM     28  C   UNL     1       4.109   2.678   2.462  0.00  0.00    +0.101 C 
ATOM     29  N   UNL     1       3.768   3.173   3.426  0.00  0.00    -0.191 NA
ENDBRANCH  10  28
TORSDOF 4
