REMARK  Name = ZINC35396843
REMARK  10 active torsions:
REMARK  status: ('A' for Active; 'I' for Inactive)
REMARK    1  A    between atoms: C_1  and  C_2
REMARK    2  A    between atoms: C_4  and  C_32
REMARK    3  A    between atoms: N_5  and  C_18
REMARK    4  A    between atoms: C_8  and  S_9
REMARK    5  A    between atoms: S_9  and  C_12
REMARK    6  A    between atoms: C_18  and  C_19
REMARK    7  A    between atoms: N_21  and  C_22
REMARK    8  A    between atoms: C_24  and  C_31
REMARK    9  A    between atoms: C_27  and  O_28
REMARK   10  A    between atoms: O_28  and  C_29
REMARK                            x       y       z     vdW  Elec       q    Type
REMARK                         _______ _______ _______ _____ _____    ______ ____
ROOT
ATOM      1  C   UNL     1      -0.167   1.511   0.091  0.00  0.00    +0.046 C 
ATOM      2  C   UNL     1      -0.165   0.004   0.071  0.00  0.00    -0.018 A 
ATOM      3  C   UNL     1      -0.167  -0.688  -1.148  0.00  0.00    +0.026 A 
ATOM      4  C   UNL     1      -0.165  -2.042  -1.156  0.00  0.00    +0.020 A 
ATOM      5  N   UNL     1      -0.161  -2.742   0.008  0.00  0.00    -0.302 N 
ATOM      6  C   UNL     1      -0.160  -2.105   1.194  0.00  0.00    +0.278 A 
ATOM      7  O   UNL     1      -0.157  -2.749   2.232  0.00  0.00    -0.266 OA
ATOM      8  C   UNL     1      -0.156  -0.701   1.239  0.00  0.00    +0.161 A 
ATOM      9  C   UNL     1      -0.167  -2.780  -2.470  0.00  0.00    +0.063 C 
ENDROOT
BRANCH   8  10
ATOM     10  S   UNL     1      -0.147   0.141   2.787  0.00  0.00    +0.037 S 
ATOM     11  O   UNL     1       0.585  -0.677   3.689  0.00  0.00    -0.164 OA
ATOM     12  O   UNL     1       0.214   1.488   2.515  0.00  0.00    -0.164 OA
BRANCH  10  13
ATOM     13  C   UNL     1      -1.809   0.174   3.372  0.00  0.00    +0.132 A 
ATOM     14  C   UNL     1      -2.456  -0.722   4.156  0.00  0.00    +0.036 A 
ATOM     15  C   UNL     1      -3.776  -0.489   4.493  0.00  0.00    +0.029 A 
ATOM     16  C   UNL     1      -4.385   0.631   4.029  0.00  0.00    +0.080 A 
ATOM     17  S   UNL     1      -3.075   1.401   3.091  0.00  0.00    -0.058 S 
ATOM     18 CL   UNL     1      -6.012   1.178   4.286  0.00  0.00    -0.076 Cl
ENDBRANCH  10  13
ENDBRANCH   8  10
BRANCH   5  19
ATOM     19  C   UNL     1      -0.159  -4.207  -0.029  0.00  0.00    +0.221 C 
BRANCH  19  20
ATOM     20  C   UNL     1       1.262  -4.706  -0.044  0.00  0.00    +0.237 C 
ATOM     21  O   UNL     1       2.183  -3.917  -0.027  0.00  0.00    -0.274 OA
ATOM     22  N   UNL     1       1.511  -6.031  -0.077  0.00  0.00    -0.281 N 
ATOM     23  H   UNL     1       0.778  -6.659  -0.170  0.00  0.00    +0.155 HD
BRANCH  22  24
ATOM     24  C   UNL     1       2.828  -6.500   0.021  0.00  0.00    +0.076 A 
ATOM     25  C   UNL     1       3.798  -5.722   0.637  0.00  0.00    +0.031 A 
ATOM     26  C   UNL     1       5.097  -6.186   0.733  0.00  0.00    -0.030 A 
ATOM     27  C   UNL     1       5.432  -7.425   0.216  0.00  0.00    +0.047 A 
ATOM     28  C   UNL     1       4.469  -8.206  -0.399  0.00  0.00    +0.067 A 
ATOM     29  C   UNL     1       3.165  -7.749  -0.494  0.00  0.00    +0.143 A 
ATOM     30 CL   UNL     1       7.065  -8.002   0.340  0.00  0.00    -0.083 Cl
ATOM     31  C   UNL     1       6.149  -5.340   1.401  0.00  0.00    +0.045 C 
BRANCH  29  32
ATOM     32  O   UNL     1       2.216  -8.518  -1.092  0.00  0.00    -0.493 OA
ATOM     33  C   UNL     1       2.633  -9.788  -1.597  0.00  0.00    +0.277 C 
ENDBRANCH  29  32
ENDBRANCH  22  24
ENDBRANCH  19  20
ENDBRANCH   5  19
TORSDOF 6
