REMARK  Name = ZINC38635509
REMARK  10 active torsions:
REMARK  status: ('A' for Active; 'I' for Inactive)
REMARK    1  A    between atoms: C_1  and  C_2
REMARK    2  A    between atoms: C_9  and  C_12
REMARK    3  A    between atoms: N_10  and  C_11
REMARK    4  A    between atoms: C_13  and  C_14
REMARK    5  A    between atoms: C_13  and  C_26
REMARK    6  A    between atoms: N_16  and  C_25
REMARK    7  A    between atoms: C_20  and  C_24
REMARK    8  A    between atoms: C_27  and  C_39
REMARK    9  A    between atoms: N_28  and  C_38
REMARK   10  A    between atoms: N_29  and  C_32
REMARK                            x       y       z     vdW  Elec       q    Type
REMARK                         _______ _______ _______ _____ _____    ______ ____
ROOT
ATOM      1  C   UNL     1      -0.115  -5.401   2.485  0.00  0.00    +0.074 C 
ATOM      2  C   UNL     1       0.141  -5.482   3.860  0.00  0.00    -0.001 C 
ENDROOT
BRANCH   2   3
ATOM      3  C   UNL     1      -0.089  -4.371   4.682  0.00  0.00    +0.072 C 
ATOM      4  C   UNL     1      -1.098  -4.409   5.633  0.00  0.00    +0.194 C 
ATOM      5  N   UNL     1      -1.420  -3.405   6.462  0.00  0.00    -0.271 N 
ATOM      6  C   UNL     1      -2.465  -3.822   7.250  0.00  0.00    +0.079 A 
ATOM      7  C   UNL     1      -3.196  -3.215   8.267  0.00  0.00    +0.027 A 
ATOM      8  C   UNL     1      -4.214  -3.909   8.887  0.00  0.00    +0.005 A 
ATOM      9  C   UNL     1      -4.512  -5.206   8.502  0.00  0.00    -0.047 A 
ATOM     10  C   UNL     1      -3.792  -5.817   7.493  0.00  0.00    +0.051 A 
ATOM     11  C   UNL     1      -2.767  -5.132   6.862  0.00  0.00    +0.152 A 
ATOM     12  O   UNL     1      -1.912  -5.459   5.863  0.00  0.00    -0.440 OA
ATOM     13  C   UNL     1      -5.626  -5.954   9.187  0.00  0.00    +0.044 C 
ATOM     14  C   UNL     1      -0.770  -2.092   6.517  0.00  0.00    +0.138 C 
ENDBRANCH   2   3
BRANCH   1  23
ATOM     15  C   UNL     1      -2.096   1.459   0.912  0.00  0.00    +0.044 C 
ATOM     16  C   UNL     1      -1.722   0.008   0.751  0.00  0.00    -0.047 A 
ATOM     17  C   UNL     1      -1.683  -0.556  -0.513  0.00  0.00    +0.005 A 
ATOM     18  C   UNL     1      -1.341  -1.884  -0.671  0.00  0.00    +0.030 A 
ATOM     19  C   UNL     1      -1.033  -2.657   0.444  0.00  0.00    +0.087 A 
ATOM     20  C   UNL     1      -1.073  -2.084   1.720  0.00  0.00    +0.154 A 
ATOM     21  C   UNL     1      -1.413  -0.749   1.865  0.00  0.00    +0.051 A 
ATOM     22  O   UNL     1      -0.734  -3.055   2.603  0.00  0.00    -0.438 OA
ATOM     23  C   UNL     1      -0.490  -4.191   1.920  0.00  0.00    +0.202 A 
ATOM     24  N   UNL     1      -0.666  -3.970   0.609  0.00  0.00    -0.312 N 
ATOM     25  C   UNL     1      -0.497  -4.957  -0.461  0.00  0.00    +0.152 C 
ENDBRANCH   1  23
BRANCH   2  26
ATOM     26  C   UNL     1       0.654  -6.737   4.443  0.00  0.00    +0.069 A 
ATOM     27  C   UNL     1       1.015  -6.943   5.744  0.00  0.00    +0.046 A 
ATOM     28  N   UNL     1       1.434  -8.227   5.879  0.00  0.00    -0.283 N 
ATOM     29  N   UNL     1       1.347  -8.881   4.646  0.00  0.00    -0.217 N 
ATOM     30  C   UNL     1       0.867  -8.008   3.736  0.00  0.00    +0.280 A 
ATOM     31  O   UNL     1       0.655  -8.229   2.558  0.00  0.00    -0.265 OA
ATOM     32  C   UNL     1       1.904  -8.835   7.126  0.00  0.00    +0.171 C 
ATOM     33  C   UNL     1       0.960  -5.916   6.845  0.00  0.00    +0.066 C 
BRANCH  29  34
ATOM     34  C   UNL     1       1.693 -10.214   4.399  0.00  0.00    +0.067 A 
ATOM     35  C   UNL     1       2.508 -10.533   3.321  0.00  0.00    +0.028 A 
ATOM     36  C   UNL     1       2.847 -11.850   3.080  0.00  0.00    +0.002 A 
ATOM     37  C   UNL     1       2.377 -12.850   3.911  0.00  0.00    +0.000 A 
ATOM     38  C   UNL     1       1.565 -12.535   4.985  0.00  0.00    +0.002 A 
ATOM     39  C   UNL     1       1.227 -11.220   5.236  0.00  0.00    +0.028 A 
ENDBRANCH  29  34
ENDBRANCH   2  26
TORSDOF 4
