REMARK  Name = ZINC37138178
REMARK  6 active torsions:
REMARK  status: ('A' for Active; 'I' for Inactive)
REMARK    1  A    between atoms: C_1  and  C_2
REMARK    2  A    between atoms: C_2  and  C_4
REMARK    3  A    between atoms: C_2  and  N_11
REMARK    4  A    between atoms: N_11  and  C_12
REMARK    5  A    between atoms: C_14  and  S_19
REMARK    6  A    between atoms: S_19  and  N_22
REMARK                            x       y       z     vdW  Elec       q    Type
REMARK                         _______ _______ _______ _____ _____    ______ ____
ROOT
ATOM      1  C   UNL     1      -0.019  -0.613  -2.401  0.00  0.00    +0.048 A 
ATOM      2  C   UNL     1      -1.370  -0.296  -2.452  0.00  0.00    +0.053 A 
ATOM      3  C   UNL     1      -2.066  -0.431  -3.638  0.00  0.00    +0.107 A 
ATOM      4  C   UNL     1      -1.419  -0.883  -4.774  0.00  0.00    +0.030 A 
ATOM      5  C   UNL     1      -0.074  -1.200  -4.727  0.00  0.00    +0.024 A 
ATOM      6  C   UNL     1       0.630  -1.061  -3.546  0.00  0.00    +0.062 A 
ATOM      7 CL   UNL     1       2.320  -1.453  -3.490  0.00  0.00    -0.082 Cl
ENDROOT
BRANCH   3   8
ATOM      8  S   UNL     1      -3.780  -0.029  -3.703  0.00  0.00    +0.056 S 
ATOM      9  O   UNL     1      -4.328  -0.760  -4.791  0.00  0.00    -0.153 OA
ATOM     10  O   UNL     1      -4.276  -0.150  -2.377  0.00  0.00    -0.153 OA
BRANCH   8  11
ATOM     11  N   UNL     1      -3.892   1.574  -4.105  0.00  0.00    -0.204 NA
ATOM     12  H   UNL     1      -4.659   1.896  -4.604  0.00  0.00    +0.144 HD
ATOM     13  H   UNL     1      -3.190   2.190  -3.842  0.00  0.00    +0.144 HD
ENDBRANCH   8  11
ENDBRANCH   3   8
BRANCH   1  14
ATOM     14  N   UNL     1       0.688  -0.476  -1.203  0.00  0.00    -0.336 N 
ATOM     15  H   UNL     1       1.632  -0.695  -1.170  0.00  0.00    +0.147 HD
BRANCH  14  17
ATOM     16  C   UNL     1      -0.019   1.526   0.010  0.00  0.00    +0.033 C 
ATOM     17  C   UNL     1       0.002  -0.004   0.002  0.00  0.00    +0.098 C 
BRANCH  17  18
ATOM     18  C   UNL     1       0.731  -0.503   1.223  0.00  0.00    -0.028 A 
ATOM     19  C   UNL     1       2.113  -0.514   1.246  0.00  0.00    +0.006 A 
ATOM     20  C   UNL     1       2.782  -0.971   2.366  0.00  0.00    +0.015 A 
ATOM     21  C   UNL     1       2.068  -1.418   3.463  0.00  0.00    +0.018 A 
ATOM     22  C   UNL     1       0.685  -1.408   3.439  0.00  0.00    +0.015 A 
ATOM     23  C   UNL     1       0.017  -0.945   2.321  0.00  0.00    +0.006 A 
ATOM     24 BR   UNL     1       2.983  -2.045   4.995  0.00  0.00    -0.050 Br
ENDBRANCH  17  18
ENDBRANCH  14  17
ENDBRANCH   1  14
TORSDOF 5
