REMARK  Name = ZINC07615034
REMARK  9 active torsions:
REMARK  status: ('A' for Active; 'I' for Inactive)
REMARK    1  A    between atoms: C_1  and  C_2
REMARK    2  A    between atoms: C_2  and  C_3
REMARK    3  A    between atoms: C_6  and  C_9
REMARK    4  A    between atoms: C_9  and  C_11
REMARK    5  A    between atoms: C_9  and  N_49
REMARK    6  A    between atoms: C_18  and  C_20
REMARK    7  A    between atoms: C_18  and  C_21
REMARK    8  A    between atoms: C_18  and  N_49
REMARK    9  A    between atoms: N_26  and  C_27
REMARK                            x       y       z     vdW  Elec       q    Type
REMARK                         _______ _______ _______ _____ _____    ______ ____
ROOT
ATOM      1  C   UNL     1      -1.293  -0.775   0.010  0.00  0.00    -0.009 C 
ENDROOT
BRANCH   1   2
ATOM      2  C   UNL     1       0.002  -0.004   0.002  0.00  0.00    -0.054 A 
ATOM      3  C   UNL     1       1.208  -0.680  -0.014  0.00  0.00    +0.002 A 
ATOM      4  C   UNL     1       2.397   0.026  -0.022  0.00  0.00    +0.003 A 
ATOM      5  C   UNL     1       2.381   1.408  -0.014  0.00  0.00    +0.038 A 
ATOM      6  C   UNL     1       1.173   2.086   0.002  0.00  0.00    +0.124 A 
ATOM      7  C   UNL     1      -0.017   1.377   0.010  0.00  0.00    +0.040 A 
ATOM      8  F   UNL     1       1.156   3.437   0.009  0.00  0.00    -0.205 F 
ENDBRANCH   1   2
BRANCH   1  12
ATOM      9  C   UNL     1      -2.196  -2.083  -3.955  0.00  0.00    -0.048 A 
ATOM     10  C   UNL     1      -2.820  -0.963  -3.438  0.00  0.00    +0.004 A 
ATOM     11  C   UNL     1      -2.527  -0.540  -2.154  0.00  0.00    +0.002 A 
ATOM     12  C   UNL     1      -1.612  -1.236  -1.389  0.00  0.00    -0.057 A 
ATOM     13  C   UNL     1      -0.984  -2.353  -1.908  0.00  0.00    +0.002 A 
ATOM     14  C   UNL     1      -1.280  -2.780  -3.189  0.00  0.00    +0.004 A 
BRANCH   9  16
ATOM     15  C   UNL     1      -1.560  -1.870  -6.342  0.00  0.00    +0.009 C 
ATOM     16  C   UNL     1      -2.514  -2.544  -5.354  0.00  0.00    +0.032 C 
ENDBRANCH   9  16
ENDBRANCH   1  12
BRANCH   1  17
ATOM     17  N   UNL     1      -1.160  -1.952   0.890  0.00  0.00    +0.394 N 
ATOM     18  H   UNL     1      -0.203  -2.318   0.823  0.00  0.00    -0.083 HD
ATOM     19  H   UNL     1      -1.825  -2.675   0.591  0.00  0.00    -0.083 HD
BRANCH  17  20
ATOM     20  C   UNL     1      -1.442  -1.580   2.289  0.00  0.00    +0.015 C 
ATOM     21  C   UNL     1      -0.171  -1.029   2.938  0.00  0.00    -0.004 C 
BRANCH  20  22
ATOM     22  C   UNL     1      -1.902  -2.801   3.042  0.00  0.00    +0.206 C 
ATOM     23  O   UNL     1      -1.988  -3.868   2.473  0.00  0.00    -0.277 OA
ATOM     24  N   UNL     1      -2.217  -2.708   4.349  0.00  0.00    -0.242 N 
ATOM     25  C   UNL     1      -2.629  -3.800   5.023  0.00  0.00    +0.306 C 
ATOM     26  O   UNL     1      -2.715  -4.870   4.452  0.00  0.00    -0.252 OA
ATOM     27  N   UNL     1      -2.944  -3.707   6.330  0.00  0.00    -0.302 N 
ATOM     28  C   UNL     1      -3.391  -4.894   7.062  0.00  0.00    +0.129 C 
ATOM     29  H   UNL     1      -2.148  -1.855   4.805  0.00  0.00    +0.159 HD
ATOM     30  H   UNL     1      -2.875  -2.853   6.786  0.00  0.00    +0.150 HD
ENDBRANCH  20  22
ENDBRANCH  17  20
ENDBRANCH   1  17
TORSDOF 6
