REMARK  Name = ZINC27490272
REMARK  7 active torsions:
REMARK  status: ('A' for Active; 'I' for Inactive)
REMARK    1  A    between atoms: C_1  and  C_2
REMARK    2  A    between atoms: C_7  and  S_18
REMARK    3  A    between atoms: C_8  and  C_9
REMARK    4  A    between atoms: N_11  and  C_12
REMARK    5  A    between atoms: S_18  and  C_19
REMARK    6  A    between atoms: C_19  and  C_20
REMARK    7  A    between atoms: N_22  and  C_23
REMARK                            x       y       z     vdW  Elec       q    Type
REMARK                         _______ _______ _______ _____ _____    ______ ____
ROOT
ATOM      1  C   UNL     1       0.315   2.003   1.416  0.00  0.00    +0.045 C 
ATOM      2  C   UNL     1       0.385   0.668   0.721  0.00  0.00    -0.031 A 
ATOM      3  C   UNL     1       1.567  -0.004   0.637  0.00  0.00    +0.076 A 
ATOM      4  C   UNL     1       1.622  -1.247  -0.013  0.00  0.00    +0.271 A 
ATOM      5  O   UNL     1       2.681  -1.849  -0.077  0.00  0.00    -0.266 OA
ATOM      6  N   UNL     1       0.518  -1.783  -0.565  0.00  0.00    -0.202 NA
ATOM      7  C   UNL     1      -0.679  -1.141  -0.494  0.00  0.00    +0.114 A 
ATOM      8  C   UNL     1      -0.772   0.098   0.149  0.00  0.00    +0.072 A 
ENDROOT
BRANCH   8   9
ATOM      9  C   UNL     1      -2.060   0.799   0.229  0.00  0.00    +0.251 C 
ATOM     10  O   UNL     1      -2.316   1.693  -0.556  0.00  0.00    -0.270 OA
ATOM     11  N   UNL     1      -2.959   0.452   1.171  0.00  0.00    -0.281 N 
ATOM     12  H   UNL     1      -2.690  -0.285   1.943  0.00  0.00    +0.155 HD
BRANCH  11  13
ATOM     13  C   UNL     1      -4.233   1.027   1.167  0.00  0.00    +0.034 A 
ATOM     14  C   UNL     1      -4.838   1.372  -0.035  0.00  0.00    +0.023 A 
ATOM     15  C   UNL     1      -6.099   1.936  -0.035  0.00  0.00    +0.002 A 
ATOM     16  C   UNL     1      -6.755   2.166   1.160  0.00  0.00    +0.000 A 
ATOM     17  C   UNL     1      -6.154   1.829   2.359  0.00  0.00    +0.002 A 
ATOM     18  C   UNL     1      -4.896   1.260   2.366  0.00  0.00    +0.023 A 
ENDBRANCH  11  13
ENDBRANCH   8   9
BRANCH   7  19
ATOM     19  S   UNL     1      -2.111  -1.863  -1.226  0.00  0.00    -0.096 S 
BRANCH  19  20
ATOM     20  C   UNL     1      -1.394  -3.392  -1.875  0.00  0.00    +0.171 C 
BRANCH  20  21
ATOM     21  C   UNL     1      -2.466  -4.196  -2.564  0.00  0.00    +0.227 C 
ATOM     22  O   UNL     1      -3.603  -3.776  -2.612  0.00  0.00    -0.275 OA
ATOM     23  N   UNL     1      -2.162  -5.382  -3.128  0.00  0.00    -0.285 N 
ATOM     24  H   UNL     1      -1.154  -5.806  -3.008  0.00  0.00    +0.155 HD
BRANCH  23  25
ATOM     25  C   UNL     1      -3.128  -6.074  -3.867  0.00  0.00    +0.033 A 
ATOM     26  C   UNL     1      -3.089  -7.460  -3.938  0.00  0.00    +0.024 A 
ATOM     27  C   UNL     1      -4.047  -8.141  -4.664  0.00  0.00    +0.017 A 
ATOM     28  C   UNL     1      -5.039  -7.442  -5.329  0.00  0.00    +0.018 A 
ATOM     29  C   UNL     1      -5.077  -6.061  -5.264  0.00  0.00    +0.017 A 
ATOM     30  C   UNL     1      -4.125  -5.375  -4.535  0.00  0.00    +0.024 A 
ATOM     31 BR   UNL     1      -6.345  -8.378  -6.326  0.00  0.00    -0.050 Br
ENDBRANCH  23  25
ENDBRANCH  20  21
ENDBRANCH  19  20
ENDBRANCH   7  19
TORSDOF 6
