REMARK  Name = ZINC34747298
REMARK  8 active torsions:
REMARK  status: ('A' for Active; 'I' for Inactive)
REMARK    1  A    between atoms: C_1  and  C_2
REMARK    2  A    between atoms: C_2  and  N_3
REMARK    3  A    between atoms: N_3  and  C_4
REMARK    4  A    between atoms: C_4  and  C_5
REMARK    5  A    between atoms: C_6  and  C_8
REMARK    6  A    between atoms: C_8  and  N_9
REMARK    7  A    between atoms: N_22  and  C_25
REMARK    8  A    between atoms: C_25  and  C_26
REMARK                            x       y       z     vdW  Elec       q    Type
REMARK                         _______ _______ _______ _____ _____    ______ ____
ROOT
ATOM      1  N   UNL     1       4.219  -1.359   2.155  0.00  0.00    -0.271 N 
ATOM      2  C   UNL     1       4.695  -2.557   1.769  0.00  0.00    +0.264 A 
ATOM      3  O   UNL     1       3.969  -3.537   1.760  0.00  0.00    -0.267 OA
ATOM      4  C   UNL     1       6.065  -2.666   1.369  0.00  0.00    +0.076 A 
ATOM      5  C   UNL     1       6.787  -3.857   0.918  0.00  0.00    -0.023 A 
ATOM      6  C   UNL     1       8.086  -3.698   0.594  0.00  0.00    -0.004 A 
ATOM      7  S   UNL     1       8.422  -1.979   0.865  0.00  0.00    -0.073 S 
ATOM      8  C   UNL     1       6.811  -1.477   1.416  0.00  0.00    +0.117 A 
ATOM      9  N   UNL     1       6.280  -0.324   1.808  0.00  0.00    -0.208 NA
ATOM     10  C   UNL     1       5.015  -0.252   2.166  0.00  0.00    +0.202 A 
ATOM     11  N   UNL     1       4.491   0.954   2.561  0.00  0.00    -0.304 N 
ATOM     12  C   UNL     1       4.531   1.371   3.971  0.00  0.00    +0.089 C 
ATOM     13  C   UNL     1       5.111   2.788   4.042  0.00  0.00    -0.059 C 
ATOM     14  N   UNL     1       4.335   3.678   3.169  0.00  0.00    +0.384 N 
ATOM     15  C   UNL     1       4.485   3.260   1.769  0.00  0.00    -0.059 C 
ATOM     16  C   UNL     1       3.879   1.869   1.584  0.00  0.00    +0.089 C 
ATOM     17  C   UNL     1       9.036  -4.751   0.111  0.00  0.00    +0.043 C 
ATOM     18  C   UNL     1       8.416  -6.128   0.390  0.00  0.00    +0.005 C 
ATOM     19  C   UNL     1       6.963  -6.119  -0.095  0.00  0.00    +0.005 C 
ATOM     20  C   UNL     1       6.118  -5.225   0.814  0.00  0.00    +0.037 C 
ATOM     21  H   UNL     1       3.361   3.637   3.429  0.00  0.00    -0.081 HD
ENDROOT
BRANCH   1  22
ATOM     22  C   UNL     1       2.818  -1.241   2.566  0.00  0.00    +0.224 C 
BRANCH  22  24
ATOM     23  N   UNL     1       0.619  -0.901   1.485  0.00  0.00    -0.301 N 
ATOM     24  C   UNL     1       1.953  -1.036   1.349  0.00  0.00    +0.236 C 
ATOM     25  O   UNL     1       2.458  -0.993   0.247  0.00  0.00    -0.274 OA
BRANCH  23  27
ATOM     26  C   UNL     1      -0.356   0.796   0.018  0.00  0.00    +0.024 C 
ATOM     27  C   UNL     1      -0.222  -0.702   0.302  0.00  0.00    +0.104 C 
ENDBRANCH  23  27
BRANCH  23  28
ATOM     28  C   UNL     1       0.010  -0.953   2.816  0.00  0.00    +0.104 C 
ATOM     29  C   UNL     1      -0.360  -2.399   3.152  0.00  0.00    +0.024 C 
ENDBRANCH  23  28
ENDBRANCH  22  24
ENDBRANCH   1  22
BRANCH  14  30
ATOM     30  C   UNL     1       4.821   5.056   3.321  0.00  0.00    -0.041 C 
BRANCH  30  31
ATOM     31  C   UNL     1       3.949   5.987   2.521  0.00  0.00    -0.046 A 
ATOM     32  C   UNL     1       4.365   6.427   1.278  0.00  0.00    +0.003 A 
ATOM     33  C   UNL     1       3.565   7.282   0.543  0.00  0.00    +0.000 A 
ATOM     34  C   UNL     1       2.348   7.698   1.051  0.00  0.00    +0.001 A 
ATOM     35  C   UNL     1       1.931   7.259   2.293  0.00  0.00    +0.020 A 
ATOM     36  C   UNL     1       2.729   6.399   3.026  0.00  0.00    +0.042 A 
ATOM     37 CL   UNL     1       2.202   5.842   4.584  0.00  0.00    -0.083 Cl
ENDBRANCH  30  31
ENDBRANCH  14  30
TORSDOF 6
