REMARK  Name = ZINC39412463
REMARK  4 active torsions:
REMARK  status: ('A' for Active; 'I' for Inactive)
REMARK    1  A    between atoms: C_1  and  C_2
REMARK    2  A    between atoms: C_10  and  N_14
REMARK    3  A    between atoms: N_14  and  N_15
REMARK    4  A    between atoms: C_16  and  C_17
REMARK                            x       y       z     vdW  Elec       q    Type
REMARK                         _______ _______ _______ _____ _____    ______ ____
ROOT
ATOM      1  C   UNL     1       0.169   1.818   0.286  0.00  0.00    +0.046 C 
ATOM      2  C   UNL     1       0.136   0.314   0.205  0.00  0.00    -0.026 A 
ATOM      3  C   UNL     1       0.115  -0.302  -1.004  0.00  0.00    +0.005 A 
ATOM      4  C   UNL     1       0.084  -1.697  -1.125  0.00  0.00    +0.001 A 
ATOM      5  C   UNL     1       0.075  -2.504  -0.034  0.00  0.00    +0.012 A 
ATOM      6  C   UNL     1       0.097  -1.931   1.255  0.00  0.00    +0.029 A 
ATOM      7  C   UNL     1       0.095  -2.443   2.550  0.00  0.00    +0.137 C 
ATOM      8  C   UNL     1       0.127  -1.254   3.446  0.00  0.00    +0.159 C 
ATOM      9  N   UNL     1       0.132  -1.436   4.741  0.00  0.00    -0.218 NA
ATOM     10  C   UNL     1       0.107  -2.820   5.237  0.00  0.00    +0.349 C 
ATOM     11  N   UNL     1       0.076  -3.918   4.266  0.00  0.00    -0.138 NA
ATOM     12  N   UNL     1       0.073  -3.690   3.052  0.00  0.00    -0.147 NA
ATOM     13  N   UNL     1       0.145  -0.142   2.673  0.00  0.00    -0.338 N 
ATOM     14  C   UNL     1       0.134  -0.460   1.387  0.00  0.00    +0.053 A 
ATOM     15  H   UNL     1       0.166   0.765   3.015  0.00  0.00    +0.167 HD
ENDROOT
BRANCH  10  16
ATOM     16  N   UNL     1      -1.071  -2.960   6.098  0.00  0.00    -0.225 N 
ATOM     17  H   UNL     1      -1.862  -2.425   5.928  0.00  0.00    +0.172 HD
BRANCH  16  18
ATOM     18  N   UNL     1      -1.054  -3.866   7.166  0.00  0.00    -0.188 NA
ATOM     19  C   UNL     1      -2.067  -3.933   7.978  0.00  0.00    +0.176 C 
BRANCH  19  20
ATOM     20  C   UNL     1      -3.292  -3.181   7.685  0.00  0.00    +0.150 A 
ATOM     21  C   UNL     1      -4.379  -3.070   8.502  0.00  0.00    +0.067 A 
ATOM     22  C   UNL     1      -5.314  -2.263   7.827  0.00  0.00    +0.071 A 
ATOM     23  C   UNL     1      -4.762  -1.923   6.643  0.00  0.00    +0.185 A 
ATOM     24  O   UNL     1      -3.539  -2.476   6.563  0.00  0.00    -0.446 OA
ATOM     25 BR   UNL     1      -5.572  -0.843   5.318  0.00  0.00    -0.007 Br
ATOM     26 BR   UNL     1      -7.021  -1.751   8.458  0.00  0.00    -0.046 Br
ENDBRANCH  19  20
ENDBRANCH  16  18
ENDBRANCH  10  16
TORSDOF 3
