REMARK  Name = ZINC02653058
REMARK  7 active torsions:
REMARK  status: ('A' for Active; 'I' for Inactive)
REMARK    1  A    between atoms: C_6  and  C_7
REMARK    2  A    between atoms: C_7  and  C_12
REMARK    3  A    between atoms: C_12  and  O_14
REMARK    4  A    between atoms: O_14  and  C_15
REMARK    5  A    between atoms: C_15  and  C_16
REMARK    6  A    between atoms: N_18  and  C_19
REMARK    7  A    between atoms: C_20  and  C_27
REMARK                            x       y       z     vdW  Elec       q    Type
REMARK                         _______ _______ _______ _____ _____    ______ ____
ROOT
ATOM      1  C   UNL     1      -1.052   4.716  -4.970  0.00  0.00    +0.255 C 
ATOM      2  O   UNL     1      -2.192   4.309  -5.034  0.00  0.00    -0.272 OA
ATOM      3  N   UNL     1      -0.617   5.643  -5.847  0.00  0.00    -0.277 N 
ATOM      4  H   UNL     1       0.295   5.969  -5.796  0.00  0.00    +0.155 HD
ENDROOT
BRANCH   3   5
ATOM      5  C   UNL     1      -1.474   6.131  -6.822  0.00  0.00    +0.084 A 
ATOM      6  C   UNL     1      -1.217   7.079  -7.798  0.00  0.00    +0.068 A 
ATOM      7  C   UNL     1      -2.303   7.417  -8.716  0.00  0.00    -0.023 A 
ATOM      8  C   UNL     1      -3.458   6.763  -8.500  0.00  0.00    -0.004 A 
ATOM      9  S   UNL     1      -3.127   5.708  -7.110  0.00  0.00    -0.077 S 
ATOM     10  C   UNL     1      -4.527   7.166  -9.480  0.00  0.00    +0.043 C 
ATOM     11  C   UNL     1      -3.760   7.857 -10.629  0.00  0.00    +0.010 C 
ATOM     12  C   UNL     1      -2.495   8.360  -9.905  0.00  0.00    +0.037 C 
BRANCH   6  13
ATOM     13  C   UNL     1       0.099   7.717  -7.909  0.00  0.00    +0.244 C 
ATOM     14  O   UNL     1       0.959   7.220  -8.612  0.00  0.00    -0.270 OA
ATOM     15  N   UNL     1       0.355   8.854  -7.231  0.00  0.00    -0.325 N 
ATOM     16  H   UNL     1      -0.330   9.249  -6.671  0.00  0.00    +0.145 HD
ATOM     17  H   UNL     1       1.226   9.276  -7.305  0.00  0.00    +0.145 HD
ENDBRANCH   6  13
ENDBRANCH   3   5
BRANCH   1  18
ATOM     18  C   UNL     1      -0.120   4.186  -3.911  0.00  0.00    +0.328 C 
BRANCH  18  19
ATOM     19  O   UNL     1      -0.819   3.207  -3.098  0.00  0.00    -0.455 OA
BRANCH  19  20
ATOM     20  C   UNL     1      -0.125   2.635  -2.102  0.00  0.00    +0.318 C 
ATOM     21  O   UNL     1       1.028   2.943  -1.915  0.00  0.00    -0.250 OA
BRANCH  20  22
ATOM     22  C   UNL     1      -0.784   1.609  -1.216  0.00  0.00    +0.093 C 
ATOM     23  C   UNL     1       0.213   1.107  -0.158  0.00  0.00    +0.023 C 
ATOM     24  C   UNL     1      -0.387   1.462   1.219  0.00  0.00    +0.001 C 
ATOM     25  C   UNL     1      -1.346   2.643   0.921  0.00  0.00    +0.001 C 
ATOM     26  C   UNL     1      -1.958   2.251  -0.447  0.00  0.00    +0.023 C 
BRANCH  22  32
ATOM     27  C   UNL     1      -2.054  -0.534  -1.462  0.00  0.00    +0.006 A 
ATOM     28  C   UNL     1      -2.515  -1.591  -2.224  0.00  0.00    +0.020 A 
ATOM     29  C   UNL     1      -2.195  -1.667  -3.567  0.00  0.00    +0.041 A 
ATOM     30  C   UNL     1      -1.418  -0.681  -4.149  0.00  0.00    +0.020 A 
ATOM     31  C   UNL     1      -0.962   0.379  -3.388  0.00  0.00    +0.006 A 
ATOM     32  C   UNL     1      -1.282   0.454  -2.045  0.00  0.00    -0.031 A 
ATOM     33 CL   UNL     1      -2.768  -2.998  -4.523  0.00  0.00    -0.084 Cl
ENDBRANCH  22  32
ENDBRANCH  20  22
ENDBRANCH  19  20
ENDBRANCH  18  19
ENDBRANCH   1  18
TORSDOF 7
