REMARK  Name = ZINC03012263
REMARK  6 active torsions:
REMARK  status: ('A' for Active; 'I' for Inactive)
REMARK    1  A    between atoms: C_1  and  C_2
REMARK    2  A    between atoms: C_5  and  C_35
REMARK    3  A    between atoms: C_6  and  N_8
REMARK    4  A    between atoms: C_9  and  C_11
REMARK    5  A    between atoms: C_16  and  C_31
REMARK    6  A    between atoms: C_19  and  C_22
REMARK                            x       y       z     vdW  Elec       q    Type
REMARK                         _______ _______ _______ _____ _____    ______ ____
ROOT
ATOM      1  C   UNL     1       0.277  -2.885   4.827  0.00  0.00    +0.149 A 
ATOM      2  C   UNL     1       0.382  -2.321   6.119  0.00  0.00    +0.078 A 
ATOM      3  C   UNL     1       0.479  -3.336   7.000  0.00  0.00    +0.119 A 
ATOM      4  N   UNL     1       0.436  -4.510   6.302  0.00  0.00    -0.238 N 
ATOM      5  N   UNL     1       0.305  -4.201   4.949  0.00  0.00    -0.164 NA
ATOM      6  C   UNL     1       0.510  -5.832   6.931  0.00  0.00    +0.215 C 
ATOM      7  C   UNL     1       0.157  -5.696   8.416  0.00  0.00    +0.063 C 
ATOM      8  C   UNL     1       0.977  -4.565   9.046  0.00  0.00    +0.104 C 
ATOM      9  N   UNL     1       0.606  -3.295   8.391  0.00  0.00    -0.322 N 
ATOM     10  H   UNL     1       0.459  -2.480   8.896  0.00  0.00    +0.148 HD
ENDROOT
BRANCH   8  11
ATOM     11  C   UNL     1       2.446  -4.832   8.845  0.00  0.00    -0.024 A 
ATOM     12  C   UNL     1       3.042  -4.534   7.634  0.00  0.00    +0.009 A 
ATOM     13  C   UNL     1       4.390  -4.777   7.445  0.00  0.00    +0.050 A 
ATOM     14  C   UNL     1       5.147  -5.321   8.470  0.00  0.00    +0.166 A 
ATOM     15  C   UNL     1       4.546  -5.622   9.690  0.00  0.00    +0.167 A 
ATOM     16  C   UNL     1       3.197  -5.370   9.874  0.00  0.00    +0.055 A 
ATOM     17  O   UNL     1       5.493  -6.141  10.525  0.00  0.00    -0.453 OA
ATOM     18  C   UNL     1       6.584  -6.535   9.673  0.00  0.00    +0.466 C 
ATOM     19  O   UNL     1       6.469  -5.652   8.541  0.00  0.00    -0.453 OA
ENDBRANCH   8  11
BRANCH   1  21
ATOM     20  N   UNL     1       0.051  -2.797   2.392  0.00  0.00    -0.280 N 
ATOM     21  C   UNL     1       0.150  -2.135   3.561  0.00  0.00    +0.268 C 
ATOM     22  O   UNL     1       0.134  -0.919   3.574  0.00  0.00    -0.268 OA
ATOM     23  H   UNL     1      -0.017  -3.765   2.387  0.00  0.00    +0.155 HD
BRANCH  20  29
ATOM     24  C   UNL     1       1.265   1.227  -0.158  0.00  0.00    +0.044 C 
ATOM     25  C   UNL     1       0.628  -0.137  -0.079  0.00  0.00    -0.049 A 
ATOM     26  C   UNL     1       0.039  -0.690  -1.201  0.00  0.00    +0.004 A 
ATOM     27  C   UNL     1      -0.547  -1.940  -1.133  0.00  0.00    +0.005 A 
ATOM     28  C   UNL     1      -0.544  -2.642   0.057  0.00  0.00    -0.029 A 
ATOM     29  C   UNL     1       0.047  -2.090   1.185  0.00  0.00    +0.037 A 
ATOM     30  C   UNL     1       0.639  -0.835   1.112  0.00  0.00    +0.027 A 
ATOM     31  C   UNL     1      -1.184  -4.005   0.131  0.00  0.00    +0.045 C 
ENDBRANCH  20  29
ENDBRANCH   1  21
BRANCH   6  32
ATOM     32  C   UNL     1      -0.480  -6.779   6.250  0.00  0.00    +0.412 C 
ATOM     33  F   UNL     1      -0.161  -6.891   4.893  0.00  0.00    -0.168 F 
ATOM     34  F   UNL     1      -0.407  -8.041   6.851  0.00  0.00    -0.168 F 
ATOM     35  F   UNL     1      -1.777  -6.273   6.385  0.00  0.00    -0.168 F 
ENDBRANCH   6  32
TORSDOF 4
