REMARK  Name = ZINC39229712
REMARK  5 active torsions:
REMARK  status: ('A' for Active; 'I' for Inactive)
REMARK    1  A    between atoms: C_1  and  C_2
REMARK    2  A    between atoms: C_12  and  C_15
REMARK    3  A    between atoms: N_17  and  C_18
REMARK    4  A    between atoms: C_21  and  O_24
REMARK    5  A    between atoms: O_24  and  C_25
REMARK                            x       y       z     vdW  Elec       q    Type
REMARK                         _______ _______ _______ _____ _____    ______ ____
ROOT
ATOM      1  C   UNL     1      -1.421  -5.516  -5.028  0.00  0.00    +0.250 C 
ATOM      2  O   UNL     1      -2.410  -5.328  -5.711  0.00  0.00    -0.270 OA
ATOM      3  N   UNL     1      -0.658  -6.608  -5.234  0.00  0.00    -0.281 N 
ATOM      4  H   UNL     1       0.077  -6.806  -4.633  0.00  0.00    +0.155 HD
ENDROOT
BRANCH   1  15
ATOM      5  C   UNL     1      -1.761   0.258   1.483  0.00  0.00    -0.012 C 
ATOM      6  C   UNL     1      -0.935  -0.925   0.974  0.00  0.00    -0.057 C 
ATOM      7  C   UNL     1      -0.848  -0.866  -0.555  0.00  0.00    +0.090 C 
ATOM      8  N   UNL     1       0.056  -1.934  -1.011  0.00  0.00    -0.319 N 
ATOM      9  C   UNL     1       1.378  -2.043  -0.374  0.00  0.00    +0.087 C 
ATOM     10  C   UNL     1       1.185  -2.046   1.146  0.00  0.00    -0.063 C 
ATOM     11  N   UNL     1       0.417  -0.859   1.543  0.00  0.00    +0.383 N 
ATOM     12  C   UNL     1      -0.326  -2.811  -2.012  0.00  0.00    +0.121 A 
ATOM     13  C   UNL     1      -1.470  -2.541  -2.763  0.00  0.00    +0.044 A 
ATOM     14  C   UNL     1      -1.845  -3.410  -3.751  0.00  0.00    +0.018 A 
ATOM     15  C   UNL     1      -1.057  -4.550  -3.974  0.00  0.00    +0.055 A 
ATOM     16  C   UNL     1       0.075  -4.757  -3.184  0.00  0.00    +0.126 A 
ATOM     17  N   UNL     1       0.403  -3.893  -2.247  0.00  0.00    -0.240 NA
ATOM     18  H   UNL     1       0.883  -0.030   1.206  0.00  0.00    -0.085 HD
ATOM     19  H   UNL     1       0.355  -0.822   2.550  0.00  0.00    -0.085 HD
ENDBRANCH   1  15
BRANCH   3  20
ATOM     20  C   UNL     1      -0.927  -7.456  -6.315  0.00  0.00    +0.034 A 
ATOM     21  C   UNL     1      -0.713  -8.823  -6.196  0.00  0.00    +0.027 A 
ATOM     22  C   UNL     1      -0.978  -9.659  -7.263  0.00  0.00    +0.048 A 
ATOM     23  C   UNL     1      -1.458  -9.133  -8.454  0.00  0.00    +0.129 A 
ATOM     24  C   UNL     1      -1.672  -7.767  -8.574  0.00  0.00    +0.048 A 
ATOM     25  C   UNL     1      -1.413  -6.931  -7.506  0.00  0.00    +0.027 A 
BRANCH  23  26
ATOM     26  O   UNL     1      -1.718  -9.956  -9.504  0.00  0.00    -0.456 OA
BRANCH  26  27
ATOM     27  C   UNL     1      -1.573 -11.294  -9.317  0.00  0.00    +0.128 A 
ATOM     28  C   UNL     1      -2.516 -12.000  -8.584  0.00  0.00    +0.046 A 
ATOM     29  C   UNL     1      -2.366 -13.360  -8.395  0.00  0.00    +0.004 A 
ATOM     30  C   UNL     1      -1.278 -14.018  -8.937  0.00  0.00    +0.000 A 
ATOM     31  C   UNL     1      -0.336 -13.318  -9.667  0.00  0.00    +0.004 A 
ATOM     32  C   UNL     1      -0.484 -11.958  -9.863  0.00  0.00    +0.046 A 
ENDBRANCH  26  27
ENDBRANCH  23  26
ENDBRANCH   3  20
TORSDOF 4
