REMARK  Name = ZINC13272451
REMARK  14 active torsions:
REMARK  status: ('A' for Active; 'I' for Inactive)
REMARK    1  A    between atoms: C_1  and  N_2
REMARK    2  A    between atoms: N_2  and  C_3
REMARK    3  A    between atoms: N_2  and  S_4
REMARK    4  A    between atoms: S_4  and  C_7
REMARK    5  A    between atoms: C_10  and  N_16
REMARK    6  A    between atoms: C_11  and  C_13
REMARK    7  A    between atoms: N_16  and  C_17
REMARK    8  A    between atoms: C_17  and  C_18
REMARK    9  A    between atoms: C_18  and  C_19
REMARK   10  A    between atoms: C_19  and  C_20
REMARK   11  A    between atoms: C_20  and  C_21
REMARK   12  A    between atoms: C_21  and  C_22
REMARK   13  A    between atoms: C_23  and  C_29
REMARK   14  A    between atoms: C_24  and  N_28
REMARK                            x       y       z     vdW  Elec       q    Type
REMARK                         _______ _______ _______ _____ _____    ______ ____
ROOT
ATOM      1  N   UNL     1       5.609  -1.306  -3.248  0.00  0.00    -0.343 N 
ATOM      2  H   UNL     1       6.210  -2.016  -2.972  0.00  0.00    +0.146 HD
ENDROOT
BRANCH   1   6
ATOM      3  C   UNL     1       1.706  -1.197  -1.797  0.00  0.00    +0.106 A 
ATOM      4  C   UNL     1       2.192  -0.159  -2.578  0.00  0.00    +0.030 A 
ATOM      5  C   UNL     1       3.484  -0.192  -3.060  0.00  0.00    +0.025 A 
ATOM      6  C   UNL     1       4.310  -1.270  -2.765  0.00  0.00    +0.041 A 
ATOM      7  C   UNL     1       3.821  -2.324  -1.974  0.00  0.00    +0.086 A 
ATOM      8  C   UNL     1       2.510  -2.271  -1.488  0.00  0.00    +0.045 A 
BRANCH   3   9
ATOM      9  S   UNL     1       0.053  -1.137  -1.191  0.00  0.00    +0.060 S 
ATOM     10  O   UNL     1      -0.335  -2.479  -0.935  0.00  0.00    -0.153 OA
ATOM     11  O   UNL     1      -0.672  -0.288  -2.071  0.00  0.00    -0.153 OA
BRANCH   9  13
ATOM     12  C   UNL     1      -0.055   1.086   0.347  0.00  0.00    +0.131 C 
ATOM     13  N   UNL     1       0.097  -0.370   0.276  0.00  0.00    -0.183 NA
ATOM     14  C   UNL     1       0.288  -1.147   1.504  0.00  0.00    +0.131 C 
ENDBRANCH   9  13
ENDBRANCH   3   9
BRANCH   7  15
ATOM     15  C   UNL     1       4.683  -3.470  -1.653  0.00  0.00    +0.388 C 
ATOM     16  O   UNL     1       4.223  -4.434  -1.055  0.00  0.00    -0.241 OA
ATOM     17  O   UNL     1       5.861  -3.462  -1.984  0.00  0.00    -0.241 OA
ENDBRANCH   7  15
ENDBRANCH   1   6
BRANCH   1  18
ATOM     18  C   UNL     1       6.074  -0.273  -4.176  0.00  0.00    +0.101 C 
BRANCH  18  19
ATOM     19  C   UNL     1       7.532  -0.544  -4.553  0.00  0.00    +0.019 C 
BRANCH  19  20
ATOM     20  C   UNL     1       8.018   0.536  -5.522  0.00  0.00    +0.002 C 
BRANCH  20  21
ATOM     21  C   UNL     1       9.476   0.265  -5.899  0.00  0.00    +0.006 C 
BRANCH  21  22
ATOM     22  C   UNL     1       9.962   1.345  -6.868  0.00  0.00    +0.058 C 
BRANCH  22  23
ATOM     23  C   UNL     1      11.398   1.077  -7.238  0.00  0.00    +0.082 A 
ATOM     24  C   UNL     1      12.535   1.565  -6.554  0.00  0.00    +0.113 A 
ATOM     25  C   UNL     1      13.654   1.082  -7.228  0.00  0.00    +0.129 A 
ATOM     26  N   UNL     1      13.205   0.343  -8.263  0.00  0.00    -0.263 N 
ATOM     27  H   UNL     1      13.759  -0.121  -8.911  0.00  0.00    +0.190 HD
ATOM     28  N   UNL     1      11.806   0.353  -8.242  0.00  0.00    -0.176 NA
BRANCH  25  29
ATOM     29  N   UNL     1      14.975   1.316  -6.898  0.00  0.00    -0.342 N 
ATOM     30  H   UNL     1      15.193   1.865  -6.129  0.00  0.00    +0.144 HD
ATOM     31  H   UNL     1      15.685   0.930  -7.435  0.00  0.00    +0.144 HD
ENDBRANCH  25  29
BRANCH  24  32
ATOM     32  C   UNL     1      12.537   2.397  -5.389  0.00  0.00    +0.104 C 
ATOM     33  N   UNL     1      12.537   3.058  -4.465  0.00  0.00    -0.191 NA
ENDBRANCH  24  32
ENDBRANCH  22  23
ENDBRANCH  21  22
ENDBRANCH  20  21
ENDBRANCH  19  20
ENDBRANCH  18  19
ENDBRANCH   1  18
TORSDOF 12
