REMARK  Name = ZINC47872146
REMARK  12 active torsions:
REMARK  status: ('A' for Active; 'I' for Inactive)
REMARK    1  A    between atoms: C_1  and  C_2
REMARK    2  A    between atoms: C_2  and  C_3
REMARK    3  A    between atoms: C_3  and  C_5
REMARK    4  A    between atoms: C_3  and  C_6
REMARK    5  A    between atoms: C_6  and  C_8
REMARK    6  A    between atoms: C_6  and  N_26
REMARK    7  A    between atoms: N_10  and  N_11
REMARK    8  A    between atoms: N_11  and  C_12
REMARK    9  A    between atoms: C_12  and  N_14
REMARK   10  A    between atoms: N_14  and  C_15
REMARK   11  A    between atoms: C_20  and  C_25
REMARK   12  A    between atoms: C_22  and  C_24
REMARK                            x       y       z     vdW  Elec       q    Type
REMARK                         _______ _______ _______ _____ _____    ______ ____
ROOT
ATOM      1  C   UNL     1      -2.952  -2.543  -0.380  0.00  0.00    +0.250 C 
ATOM      2  O   UNL     1      -3.839  -2.848   0.389  0.00  0.00    -0.272 OA
ATOM      3  N   UNL     1      -3.158  -2.617  -1.709  0.00  0.00    -0.234 N 
ATOM      4  H   UNL     1      -2.448  -2.373  -2.324  0.00  0.00    +0.173 HD
ENDROOT
BRANCH   3   5
ATOM      5  N   UNL     1      -4.396  -3.045  -2.204  0.00  0.00    -0.246 N 
ATOM      6  H   UNL     1      -5.106  -3.288  -1.589  0.00  0.00    +0.172 HD
BRANCH   5   7
ATOM      7  C   UNL     1      -4.602  -3.118  -3.534  0.00  0.00    +0.147 C 
ATOM      8  S   UNL     1      -6.116  -3.641  -4.138  0.00  0.00    -0.017 S 
BRANCH   7   9
ATOM      9  N   UNL     1      -3.616  -2.780  -4.388  0.00  0.00    -0.322 N 
ATOM     10  H   UNL     1      -2.758  -2.483  -4.046  0.00  0.00    +0.148 HD
BRANCH   9  11
ATOM     11  C   UNL     1      -3.840  -2.860  -5.834  0.00  0.00    +0.075 C 
ATOM     12  C   UNL     1      -3.567  -4.286  -6.314  0.00  0.00    +0.022 C 
ATOM     13  C   UNL     1      -3.801  -4.370  -7.824  0.00  0.00    +0.002 C 
ATOM     14  C   UNL     1      -2.857  -3.401  -8.540  0.00  0.00    +0.003 C 
ATOM     15  C   UNL     1      -3.131  -1.974  -8.060  0.00  0.00    -0.009 C 
ATOM     16  C   UNL     1      -2.897  -1.891  -6.550  0.00  0.00    +0.009 C 
ATOM     17  C   UNL     1      -1.447  -2.266  -6.237  0.00  0.00    +0.009 C 
ATOM     18  C   UNL     1      -2.187  -1.006  -8.776  0.00  0.00    +0.008 C 
ENDBRANCH   9  11
ENDBRANCH   7   9
ENDBRANCH   5   7
ENDBRANCH   3   5
BRANCH   1  19
ATOM     19  C   UNL     1      -1.619  -2.083   0.152  0.00  0.00    +0.165 C 
BRANCH  19  20
ATOM     20  N   UNL     1      -1.467  -2.528   1.540  0.00  0.00    -0.288 N 
ATOM     21  C   UNL     1      -0.997  -3.763   1.804  0.00  0.00    +0.298 C 
ATOM     22  O   UNL     1      -0.786  -4.541   0.894  0.00  0.00    -0.253 OA
ATOM     23  N   UNL     1      -0.760  -4.136   3.077  0.00  0.00    -0.313 N 
ATOM     24  H   UNL     1      -1.704  -1.933   2.269  0.00  0.00    +0.151 HD
ATOM     25  H   UNL     1      -0.928  -3.515   3.804  0.00  0.00    +0.146 HD
ATOM     26  H   UNL     1      -0.422  -5.025   3.267  0.00  0.00    +0.146 HD
ENDBRANCH  19  20
BRANCH  19  27
ATOM     27  C   UNL     1      -1.547  -0.556   0.096  0.00  0.00    +0.015 C 
ATOM     28  C   UNL     1      -2.656   0.040   0.965  0.00  0.00    +0.010 C 
BRANCH  27  30
ATOM     29  C   UNL     1      -0.066   1.426   0.443  0.00  0.00    +0.004 C 
ATOM     30  C   UNL     1      -0.186  -0.089   0.615  0.00  0.00    +0.002 C 
ENDBRANCH  27  30
ENDBRANCH  19  27
ENDBRANCH   1  19
TORSDOF 8
