REMARK  Name = ZINC66635133
REMARK  5 active torsions:
REMARK  status: ('A' for Active; 'I' for Inactive)
REMARK    1  A    between atoms: C_3  and  C_15
REMARK    2  A    between atoms: C_6  and  C_7
REMARK    3  A    between atoms: C_7  and  S_8
REMARK    4  A    between atoms: S_8  and  C_9
REMARK    5  A    between atoms: C_20  and  N_23
REMARK                            x       y       z     vdW  Elec       q    Type
REMARK                         _______ _______ _______ _____ _____    ______ ____
ROOT
ATOM      1  C   UNL     1       2.801   5.715   0.835  0.00  0.00    +0.005 A 
ATOM      2  C   UNL     1       2.813   4.336   0.850  0.00  0.00    +0.013 A 
ATOM      3  C   UNL     1       3.639   3.639  -0.033  0.00  0.00    +0.037 A 
ATOM      4  C   UNL     1       4.448   4.343  -0.926  0.00  0.00    +0.013 A 
ATOM      5  C   UNL     1       4.426   5.722  -0.931  0.00  0.00    +0.005 A 
ATOM      6  C   UNL     1       3.605   6.407  -0.053  0.00  0.00    -0.037 A 
ENDROOT
BRANCH   3   7
ATOM      7  C   UNL     1       3.657   2.160  -0.022  0.00  0.00    +0.247 C 
ATOM      8  O   UNL     1       2.618   1.540   0.092  0.00  0.00    -0.270 OA
ATOM      9  N   UNL     1       4.826   1.500  -0.138  0.00  0.00    -0.298 N 
ATOM     10  C   UNL     1       4.850   0.036  -0.263  0.00  0.00    +0.106 C 
ATOM     11  C   UNL     1       5.777  -0.536   0.813  0.00  0.00    +0.004 C 
ATOM     12  C   UNL     1       7.152   0.127   0.701  0.00  0.00    -0.066 C 
ATOM     13  C   UNL     1       7.015   1.633   0.932  0.00  0.00    +0.004 C 
ATOM     14  C   UNL     1       6.101   2.230  -0.149  0.00  0.00    +0.106 C 
BRANCH  12  15
ATOM     15  N   UNL     1       8.054  -0.443   1.710  0.00  0.00    +0.382 N 
ATOM     16  C   UNL     1       8.270  -1.889   1.447  0.00  0.00    -0.079 C 
ATOM     17  C   UNL     1       9.602  -2.188   2.179  0.00  0.00    -0.020 C 
ATOM     18  C   UNL     1      10.428  -0.905   1.932  0.00  0.00    -0.020 C 
ATOM     19  C   UNL     1       9.389   0.187   1.615  0.00  0.00    -0.079 C 
ATOM     20  H   UNL     1       7.672  -0.310   2.634  0.00  0.00    -0.081 HD
ENDBRANCH  12  15
ENDBRANCH   3   7
BRANCH   6  21
ATOM     21  C   UNL     1       3.587   7.914  -0.064  0.00  0.00    +0.112 C 
BRANCH  21  22
ATOM     22  S   UNL     1       4.838   8.543   1.090  0.00  0.00    -0.082 S 
BRANCH  22  23
ATOM     23  C   UNL     1       4.693  10.294   0.963  0.00  0.00    +0.184 A 
ATOM     24  N   UNL     1       3.851  10.949   0.191  0.00  0.00    -0.209 NA
ATOM     25  H   UNL     1       6.120  11.022   2.293  0.00  0.00    +0.191 HD
ATOM     26  C   UNL     1       4.021  12.261   0.352  0.00  0.00    +0.245 A 
ATOM     27  N   UNL     1       4.970  12.466   1.226  0.00  0.00    -0.160 NA
ATOM     28  N   UNL     1       5.422  11.204   1.645  0.00  0.00    -0.254 N 
ENDBRANCH  22  23
ENDBRANCH  21  22
ENDBRANCH   6  21
TORSDOF 5
