REMARK  Name = ZINC13169565
REMARK  11 active torsions:
REMARK  status: ('A' for Active; 'I' for Inactive)
REMARK    1  A    between atoms: C_1  and  C_2
REMARK    2  A    between atoms: C_2  and  C_3
REMARK    3  A    between atoms: C_2  and  O_4
REMARK    4  A    between atoms: O_4  and  C_5
REMARK    5  A    between atoms: C_6  and  O_27
REMARK    6  A    between atoms: C_8  and  C_12
REMARK    7  A    between atoms: C_13  and  C_14
REMARK    8  A    between atoms: N_16  and  C_17
REMARK    9  A    between atoms: C_19  and  C_25
REMARK   10  A    between atoms: C_21  and  C_23
REMARK   11  A    between atoms: O_27  and  C_28
REMARK                            x       y       z     vdW  Elec       q    Type
REMARK                         _______ _______ _______ _____ _____    ______ ____
ROOT
ATOM      1  C   UNL     1      -2.508  -6.757  -4.611  0.00  0.00    +0.241 C 
ATOM      2  O   UNL     1      -2.094  -7.800  -4.139  0.00  0.00    -0.270 OA
ATOM      3  N   UNL     1      -3.375  -6.781  -5.642  0.00  0.00    -0.282 N 
ATOM      4  H   UNL     1      -3.764  -5.954  -5.968  0.00  0.00    +0.155 HD
ENDROOT
BRANCH   3   5
ATOM      5  C   UNL     1      -3.715  -7.998  -6.243  0.00  0.00    +0.035 A 
ATOM      6  C   UNL     1      -2.773  -9.013  -6.331  0.00  0.00    +0.038 A 
ATOM      7  C   UNL     1      -3.110 -10.231  -6.924  0.00  0.00    +0.066 A 
ATOM      8  C   UNL     1      -4.391 -10.423  -7.439  0.00  0.00    +0.030 A 
ATOM      9  C   UNL     1      -5.333  -9.399  -7.354  0.00  0.00    +0.066 A 
ATOM     10  C   UNL     1      -4.991  -8.186  -6.754  0.00  0.00    +0.038 A 
BRANCH   9  11
ATOM     11  C   UNL     1      -6.692  -9.598  -7.898  0.00  0.00    +0.387 C 
ATOM     12  O   UNL     1      -7.513  -8.706  -7.823  0.00  0.00    -0.241 OA
ATOM     13  O   UNL     1      -7.021 -10.769  -8.476  0.00  0.00    -0.241 OA
ENDBRANCH   9  11
BRANCH   7  14
ATOM     14  C   UNL     1      -2.107 -11.313  -7.013  0.00  0.00    +0.387 C 
ATOM     15  O   UNL     1      -0.991 -11.145  -6.564  0.00  0.00    -0.241 OA
ATOM     16  O   UNL     1      -2.432 -12.486  -7.591  0.00  0.00    -0.241 OA
ENDBRANCH   7  14
ENDBRANCH   3   5
BRANCH   1  18
ATOM     17  C   UNL     1      -1.196  -5.454  -3.025  0.00  0.00    +0.013 C 
ATOM     18  C   UNL     1      -2.065  -5.478  -4.058  0.00  0.00    +0.068 C 
BRANCH  17  22
ATOM     19  C   UNL     1       0.090  -1.739  -1.424  0.00  0.00    +0.180 A 
ATOM     20  C   UNL     1       0.571  -2.931  -0.884  0.00  0.00    +0.164 A 
ATOM     21  C   UNL     1       0.151  -4.141  -1.399  0.00  0.00    +0.057 A 
ATOM     22  C   UNL     1      -0.750  -4.169  -2.469  0.00  0.00    -0.020 A 
ATOM     23  C   UNL     1      -1.225  -2.968  -3.010  0.00  0.00    +0.031 A 
ATOM     24  C   UNL     1      -0.804  -1.764  -2.487  0.00  0.00    +0.087 A 
ATOM     25 CL   UNL     1      -1.394  -0.275  -3.158  0.00  0.00    -0.080 Cl
BRANCH  20  26
ATOM     26  O   UNL     1       1.450  -2.901   0.153  0.00  0.00    -0.491 OA
ATOM     27  C   UNL     1       1.902  -4.160   0.657  0.00  0.00    +0.277 C 
ENDBRANCH  20  26
BRANCH  19  28
ATOM     28  O   UNL     1       0.501  -0.549  -0.912  0.00  0.00    -0.484 OA
BRANCH  28  30
ATOM     29  C   UNL     1      -0.194   1.530   0.105  0.00  0.00    +0.051 C 
ATOM     30  C   UNL     1      -0.277   0.003   0.151  0.00  0.00    +0.168 C 
ATOM     31  C   UNL     1       0.265  -0.496   1.492  0.00  0.00    +0.051 C 
ENDBRANCH  28  30
ENDBRANCH  19  28
ENDBRANCH  17  22
ENDBRANCH   1  18
TORSDOF 8
