REMARK  Name = ZINC02766688
REMARK  3 active torsions:
REMARK  status: ('A' for Active; 'I' for Inactive)
REMARK    1  A    between atoms: C_6  and  C_7
REMARK    2  A    between atoms: C_10  and  C_20
REMARK    3  A    between atoms: C_14  and  C_17
REMARK                            x       y       z     vdW  Elec       q    Type
REMARK                         _______ _______ _______ _____ _____    ______ ____
ROOT
ATOM      1  C   UNL     1      -1.293  -0.775   0.010  0.00  0.00    +0.104 C 
ATOM      2  C   UNL     1      -1.616  -1.255  -1.409  0.00  0.00    +0.063 C 
ATOM      3  C   UNL     1      -0.459  -2.106  -1.946  0.00  0.00    +0.215 C 
ATOM      4  N   UNL     1      -0.109  -3.117  -0.944  0.00  0.00    -0.238 N 
ATOM      5  C   UNL     1      -0.449  -3.026   0.365  0.00  0.00    +0.136 A 
ATOM      6  C   UNL     1       0.041  -4.149   1.003  0.00  0.00    +0.111 A 
ATOM      7  C   UNL     1       0.697  -4.926   0.017  0.00  0.00    +0.155 A 
ATOM      8  N   UNL     1       0.600  -4.303  -1.127  0.00  0.00    -0.176 NA
ATOM      9  N   UNL     1      -1.163  -1.954   0.889  0.00  0.00    -0.321 N 
ATOM     10  H   UNL     1      -1.554  -1.978   1.776  0.00  0.00    +0.148 HD
ENDROOT
BRANCH   1  16
ATOM     11  C   UNL     1      -0.017   1.378   0.010  0.00  0.00    +0.006 A 
ATOM     12  C   UNL     1       1.171   2.086   0.002  0.00  0.00    +0.015 A 
ATOM     13  C   UNL     1       2.378   1.411  -0.013  0.00  0.00    +0.018 A 
ATOM     14  C   UNL     1       2.396   0.027  -0.021  0.00  0.00    +0.015 A 
ATOM     15  C   UNL     1       1.208  -0.679  -0.013  0.00  0.00    +0.006 A 
ATOM     16  C   UNL     1       0.002  -0.004   0.002  0.00  0.00    -0.027 A 
ATOM     17 BR   UNL     1       4.003   2.378  -0.024  0.00  0.00    -0.050 Br
ENDBRANCH   1  16
BRANCH   3  18
ATOM     18  C   UNL     1      -0.887  -2.793  -3.244  0.00  0.00    +0.412 C 
ATOM     19  F   UNL     1      -1.232  -1.825  -4.193  0.00  0.00    -0.168 F 
ATOM     20  F   UNL     1       0.170  -3.569  -3.732  0.00  0.00    -0.168 F 
ATOM     21  F   UNL     1      -1.992  -3.615  -2.994  0.00  0.00    -0.168 F 
ENDBRANCH   3  18
BRANCH   6  22
ATOM     22  C   UNL     1      -0.089  -4.466   2.394  0.00  0.00    +0.104 C 
ATOM     23  N   UNL     1      -0.192  -4.718   3.497  0.00  0.00    -0.191 NA
ENDBRANCH   6  22
TORSDOF 3
