REMARK  Name = ZINC04349516
REMARK  11 active torsions:
REMARK  status: ('A' for Active; 'I' for Inactive)
REMARK    1  A    between atoms: C_3  and  O_21
REMARK    2  A    between atoms: C_4  and  O_20
REMARK    3  A    between atoms: C_6  and  C_7
REMARK    4  A    between atoms: C_12  and  O_19
REMARK    5  A    between atoms: C_14  and  O_18
REMARK    6  A    between atoms: O_21  and  C_22
REMARK    7  A    between atoms: C_24  and  O_37
REMARK    8  A    between atoms: C_26  and  O_36
REMARK    9  A    between atoms: C_28  and  O_35
REMARK   10  A    between atoms: C_30  and  C_33
REMARK   11  A    between atoms: C_33  and  O_34
REMARK                            x       y       z     vdW  Elec       q    Type
REMARK                         _______ _______ _______ _____ _____    ______ ____
ROOT
ATOM      1  C   UNL     1       1.203  -0.680  -0.013  0.00  0.00    +0.015 A 
ATOM      2  C   UNL     1       0.002  -0.004   0.002  0.00  0.00    +0.050 A 
ATOM      3  C   UNL     1      -0.017   1.383   0.010  0.00  0.00    +0.165 A 
ATOM      4  C   UNL     1       1.179   2.100   0.002  0.00  0.00    +0.159 A 
ATOM      5  C   UNL     1       2.386   1.429  -0.013  0.00  0.00    +0.060 A 
ATOM      6  C   UNL     1       2.405   0.032  -0.020  0.00  0.00    +0.021 A 
ENDROOT
BRANCH   6   7
ATOM      7  C   UNL     1       3.692  -0.690  -0.035  0.00  0.00    +0.139 A 
ATOM      8  C   UNL     1       3.679  -2.050  -0.042  0.00  0.00    +0.098 A 
ATOM      9  C   UNL     1       4.903  -2.760  -0.057  0.00  0.00    +0.197 A 
ATOM     10  O   UNL     1       4.929  -3.980  -0.062  0.00  0.00    -0.287 OA
ATOM     11  C   UNL     1       6.145  -1.968  -0.065  0.00  0.00    +0.105 A 
ATOM     12  C   UNL     1       7.402  -2.587  -0.080  0.00  0.00    +0.135 A 
ATOM     13  C   UNL     1       8.544  -1.808  -0.087  0.00  0.00    +0.091 A 
ATOM     14  C   UNL     1       8.444  -0.420  -0.080  0.00  0.00    +0.124 A 
ATOM     15  C   UNL     1       7.203   0.198  -0.065  0.00  0.00    +0.092 A 
ATOM     16  C   UNL     1       6.046  -0.566  -0.057  0.00  0.00    +0.146 A 
ATOM     17  O   UNL     1       4.831   0.021  -0.048  0.00  0.00    -0.454 OA
BRANCH  14  18
ATOM     18  O   UNL     1       9.571   0.335  -0.088  0.00  0.00    -0.507 OA
ATOM     19  H   UNL     1       9.907   0.550   0.793  0.00  0.00    +0.292 HD
ENDBRANCH  14  18
BRANCH  12  20
ATOM     20  O   UNL     1       7.497  -3.940  -0.088  0.00  0.00    -0.506 OA
ATOM     21  H   UNL     1       7.516  -4.328  -0.974  0.00  0.00    +0.292 HD
ENDBRANCH  12  20
ENDBRANCH   6   7
BRANCH   4  22
ATOM     22  O   UNL     1       1.157   3.460   0.010  0.00  0.00    -0.503 OA
ATOM     23  H   UNL     1       1.159   3.849   0.895  0.00  0.00    +0.292 HD
ENDBRANCH   4  22
BRANCH   3  24
ATOM     24  O   UNL     1      -1.203   2.045   0.019  0.00  0.00    -0.457 OA
BRANCH  24  25
ATOM     25  C   UNL     1      -2.390   1.249   0.020  0.00  0.00    +0.339 C 
ATOM     26  C   UNL     1      -3.614   2.158   0.156  0.00  0.00    +0.214 C 
ATOM     27  C   UNL     1      -4.884   1.303   0.096  0.00  0.00    +0.180 C 
ATOM     28  C   UNL     1      -4.891   0.510  -1.215  0.00  0.00    +0.177 C 
ATOM     29  C   UNL     1      -3.617  -0.335  -1.297  0.00  0.00    +0.179 C 
ATOM     30  O   UNL     1      -2.474   0.518  -1.205  0.00  0.00    -0.331 OA
BRANCH  28  31
ATOM     31  O   UNL     1      -6.035  -0.346  -1.249  0.00  0.00    -0.386 OA
ATOM     32  H   UNL     1      -6.879   0.124  -1.200  0.00  0.00    +0.210 HD
ENDBRANCH  28  31
BRANCH  27  33
ATOM     33  O   UNL     1      -4.904   0.399   1.202  0.00  0.00    -0.386 OA
ATOM     34  H   UNL     1      -4.901   0.834   2.066  0.00  0.00    +0.210 HD
ENDBRANCH  27  33
BRANCH  26  35
ATOM     35  O   UNL     1      -3.561   2.847   1.407  0.00  0.00    -0.383 OA
ATOM     36  H   UNL     1      -2.779   3.405   1.516  0.00  0.00    +0.210 HD
ENDBRANCH  26  35
BRANCH  29  37
ATOM     37  C   UNL     1      -3.588  -1.085  -2.631  0.00  0.00    +0.190 C 
BRANCH  37  38
ATOM     38  O   UNL     1      -2.459  -1.961  -2.660  0.00  0.00    -0.392 OA
ATOM     39  H   UNL     1      -2.377  -2.470  -3.478  0.00  0.00    +0.210 HD
ENDBRANCH  37  38
ENDBRANCH  29  37
ENDBRANCH  24  25
ENDBRANCH   3  24
TORSDOF 11
