REMARK  Name = ZINC09970427
REMARK  22 active torsions:
REMARK  status: ('A' for Active; 'I' for Inactive)
REMARK    1  A    between atoms: C_1  and  C_2
REMARK    2  A    between atoms: C_2  and  C_32
REMARK    3  A    between atoms: C_3  and  C_30
REMARK    4  A    between atoms: C_3  and  O_31
REMARK    5  A    between atoms: C_4  and  C_28
REMARK    6  A    between atoms: C_4  and  O_29
REMARK    7  A    between atoms: C_5  and  C_26
REMARK    8  A    between atoms: C_5  and  O_27
REMARK    9  A    between atoms: C_6  and  C_8
REMARK   10  A    between atoms: C_6  and  O_9
REMARK   11  A    between atoms: O_9  and  C_10
REMARK   12  A    between atoms: C_10  and  C_25
REMARK   13  A    between atoms: C_11  and  C_23
REMARK   14  A    between atoms: C_11  and  O_24
REMARK   15  A    between atoms: C_12  and  C_21
REMARK   16  A    between atoms: C_12  and  O_22
REMARK   17  A    between atoms: C_13  and  C_19
REMARK   18  A    between atoms: C_13  and  O_20
REMARK   19  A    between atoms: C_14  and  C_16
REMARK   20  A    between atoms: C_14  and  C_17
REMARK   21  A    between atoms: C_17  and  O_18
REMARK   22  A    between atoms: C_32  and  O_33
REMARK                            x       y       z     vdW  Elec       q    Type
REMARK                         _______ _______ _______ _____ _____    ______ ____
ROOT
ATOM      1  O   UNL     1       3.179   0.312   1.280  0.00  0.00    -0.312 OA
ENDROOT
BRANCH   1   7
ATOM      2  C   UNL     1       0.970   1.513  -0.205  0.00  0.00    +0.047 C 
ATOM      3  C   UNL     1       0.528   0.051  -0.086  0.00  0.00    +0.124 C 
ATOM      4  C   UNL     1       0.981  -0.728  -1.317  0.00  0.00    +0.125 C 
ATOM      5  C   UNL     1       2.426  -1.198  -1.232  0.00  0.00    +0.128 C 
ATOM      6  C   UNL     1       2.803  -1.779   0.126  0.00  0.00    +0.147 C 
ATOM      7  C   UNL     1       2.356  -0.856   1.260  0.00  0.00    +0.202 C 
ATOM      8  O   UNL     1       0.989  -0.520   1.122  0.00  0.00    -0.335 OA
ATOM      9  C   UNL     1       2.551  -1.599   2.594  0.00  0.00    +0.077 C 
ATOM     10  C   UNL     1       2.227  -3.179   0.328  0.00  0.00    +0.050 C 
ATOM     11  C   UNL     1       2.651  -2.283  -2.303  0.00  0.00    +0.047 C 
ATOM     12  C   UNL     1       0.026  -1.895  -1.580  0.00  0.00    +0.047 C 
BRANCH   6  13
ATOM     13  O   UNL     1       4.241  -1.882   0.184  0.00  0.00    -0.381 OA
ATOM     14  H   UNL     1       4.576  -2.244   1.016  0.00  0.00    +0.211 HD
ENDBRANCH   6  13
BRANCH   5  15
ATOM     15  O   UNL     1       3.303  -0.102  -1.534  0.00  0.00    -0.383 OA
ATOM     16  H   UNL     1       4.243  -0.329  -1.499  0.00  0.00    +0.210 HD
ENDBRANCH   5  15
BRANCH   4  17
ATOM     17  O   UNL     1       0.881   0.165  -2.451  0.00  0.00    -0.383 OA
ATOM     18  H   UNL     1      -0.012   0.498  -2.612  0.00  0.00    +0.210 HD
ENDBRANCH   4  17
BRANCH   3  19
ATOM     19  C   UNL     1      -1.016   0.036  -0.062  0.00  0.00    +0.193 C 
BRANCH  19  20
ATOM     20  O   UNL     1      -1.484   0.891   0.983  0.00  0.00    -0.392 OA
ATOM     21  H   UNL     1      -2.447   0.931   1.057  0.00  0.00    +0.210 HD
ENDBRANCH  19  20
ENDBRANCH   3  19
ENDBRANCH   1   7
BRANCH   1  22
ATOM     22  C   UNL     1       2.967   1.163   2.436  0.00  0.00    +0.202 C 
ATOM     23  C   UNL     1       3.631   2.498   2.128  0.00  0.00    +0.147 C 
ATOM     24  C   UNL     1       3.100   3.643   2.979  0.00  0.00    +0.128 C 
ATOM     25  C   UNL     1       1.578   3.681   2.977  0.00  0.00    +0.125 C 
ATOM     26  C   UNL     1       0.942   2.329   3.273  0.00  0.00    +0.124 C 
ATOM     27  O   UNL     1       1.582   1.250   2.643  0.00  0.00    -0.335 OA
ATOM     28  C   UNL     1      -0.512   2.386   2.736  0.00  0.00    +0.047 C 
ATOM     29  C   UNL     1       1.106   4.692   4.036  0.00  0.00    +0.047 C 
ATOM     30  C   UNL     1       3.671   3.616   4.394  0.00  0.00    +0.047 C 
ATOM     31  C   UNL     1       5.145   2.364   2.365  0.00  0.00    +0.050 C 
ATOM     32  C   UNL     1       3.663   0.470   3.613  0.00  0.00    +0.077 C 
BRANCH  25  33
ATOM     33  O   UNL     1       1.121   4.140   1.695  0.00  0.00    -0.383 OA
ATOM     34  H   UNL     1       0.158   4.191   1.616  0.00  0.00    +0.210 HD
ENDBRANCH  25  33
BRANCH  24  35
ATOM     35  O   UNL     1       3.557   4.875   2.366  0.00  0.00    -0.383 OA
ATOM     36  H   UNL     1       4.519   4.954   2.311  0.00  0.00    +0.210 HD
ENDBRANCH  24  35
BRANCH  23  37
ATOM     37  O   UNL     1       3.428   2.810   0.740  0.00  0.00    -0.381 OA
ATOM     38  H   UNL     1       3.796   2.155   0.132  0.00  0.00    +0.211 HD
ENDBRANCH  23  37
BRANCH  26  39
ATOM     39  C   UNL     1       0.838   2.103   4.786  0.00  0.00    +0.193 C 
BRANCH  39  40
ATOM     40  O   UNL     1       0.238   0.830   5.037  0.00  0.00    -0.392 OA
ATOM     41  H   UNL     1       0.141   0.620   5.976  0.00  0.00    +0.210 HD
ENDBRANCH  39  40
ENDBRANCH  26  39
ENDBRANCH   1  22
TORSDOF 12
