REMARK  Name = ZINC32594608
REMARK  3 active torsions:
REMARK  status: ('A' for Active; 'I' for Inactive)
REMARK    1  A    between atoms: C_1  and  C_2
REMARK    2  A    between atoms: C_2  and  C_27
REMARK    3  A    between atoms: N_17  and  C_20
REMARK                            x       y       z     vdW  Elec       q    Type
REMARK                         _______ _______ _______ _____ _____    ______ ____
ROOT
ATOM      1  C   UNL     1      -0.019   1.526   0.010  0.00  0.00    +0.017 C 
ATOM      2  C   UNL     1       0.002  -0.004   0.002  0.00  0.00    +0.012 C 
ATOM      3  C   UNL     1      -1.389  -0.482  -0.150  0.00  0.00    +0.031 A 
ATOM      4  C   UNL     1      -2.009  -1.520   0.443  0.00  0.00    +0.088 A 
ATOM      5  N   UNL     1      -3.307  -1.734   0.049  0.00  0.00    -0.311 N 
ATOM      6  H   UNL     1      -3.809  -2.480   0.413  0.00  0.00    +0.170 HD
ATOM      7  C   UNL     1      -3.883  -0.905  -0.842  0.00  0.00    +0.289 A 
ATOM      8  O   UNL     1      -5.016  -0.944  -1.288  0.00  0.00    -0.260 OA
ATOM      9  S   UNL     1      -2.661   0.196  -1.191  0.00  0.00    -0.030 S 
ATOM     10  S   UNL     1      -1.163  -2.485   1.669  0.00  0.00    -0.093 S 
ATOM     11  C   UNL     1       0.543  -1.970   1.537  0.00  0.00    +0.152 C 
ATOM     12  C   UNL     1       0.746  -0.476   1.249  0.00  0.00    +0.109 C 
ATOM     13  C   UNL     1       2.215  -0.558   0.775  0.00  0.00    +0.232 C 
ATOM     14  O   UNL     1       3.063   0.300   0.894  0.00  0.00    -0.274 OA
ATOM     15  N   UNL     1       2.370  -1.771   0.205  0.00  0.00    -0.209 N 
ATOM     16  C   UNL     1       1.353  -2.622   0.458  0.00  0.00    +0.240 C 
ATOM     17  O   UNL     1       1.146  -3.693  -0.072  0.00  0.00    -0.274 OA
ATOM     18  C   UNL     1       0.794  -0.459  -1.225  0.00  0.00    +0.017 C 
ENDROOT
BRANCH  15  19
ATOM     19  C   UNL     1       3.478  -2.109  -0.587  0.00  0.00    +0.044 A 
ATOM     20  C   UNL     1       4.483  -1.178  -0.809  0.00  0.00    +0.027 A 
ATOM     21  C   UNL     1       5.573  -1.513  -1.589  0.00  0.00    +0.040 A 
ATOM     22  C   UNL     1       5.663  -2.776  -2.148  0.00  0.00    +0.124 A 
ATOM     23  C   UNL     1       4.661  -3.706  -1.927  0.00  0.00    +0.040 A 
ATOM     24  C   UNL     1       3.573  -3.377  -1.144  0.00  0.00    +0.027 A 
ATOM     25  F   UNL     1       6.730  -3.102  -2.911  0.00  0.00    -0.205 F 
ENDBRANCH  15  19
TORSDOF 1
