REMARK  Name = ZINC24717811
REMARK  5 active torsions:
REMARK  status: ('A' for Active; 'I' for Inactive)
REMARK    1  A    between atoms: C_1  and  N_2
REMARK    2  A    between atoms: C_7  and  O_28
REMARK    3  A    between atoms: C_19  and  O_20
REMARK    4  A    between atoms: O_20  and  C_21
REMARK    5  A    between atoms: O_28  and  C_29
REMARK                            x       y       z     vdW  Elec       q    Type
REMARK                         _______ _______ _______ _____ _____    ______ ____
ROOT
ATOM      1  C   UNL     1      -2.407   0.027  -0.242  0.00  0.00    +0.108 C 
ATOM      2  N   UNL     1      -1.272  -0.549   0.491  0.00  0.00    -0.267 NA
ATOM      3  C   UNL     1      -1.271  -2.011   0.392  0.00  0.00    +0.092 C 
ATOM      4  C   UNL     1      -0.238  -2.642   1.310  0.00  0.00    +0.051 C 
ATOM      5  C   UNL     1       1.010  -1.817   1.430  0.00  0.00    -0.034 A 
ATOM      6  C   UNL     1       2.098  -2.320   2.135  0.00  0.00    +0.053 A 
ATOM      7  C   UNL     1       3.259  -1.606   2.286  0.00  0.00    +0.162 A 
ATOM      8  C   UNL     1       3.367  -0.341   1.719  0.00  0.00    +0.173 A 
ATOM      9  C   UNL     1       2.246   0.181   1.079  0.00  0.00    +0.040 A 
ATOM     10  C   UNL     1       1.103  -0.575   0.853  0.00  0.00    +0.023 A 
ATOM     11  C   UNL     1       0.002  -0.004   0.002  0.00  0.00    +0.278 C 
ATOM     12  O   UNL     1      -0.017   1.415   0.010  0.00  0.00    -0.465 OA
ATOM     13  C   UNL     1       1.136   2.125   0.003  0.00  0.00    +0.173 A 
ATOM     14  C   UNL     1       2.276   1.579   0.600  0.00  0.00    +0.040 A 
ATOM     15  C   UNL     1       3.416   2.339   0.829  0.00  0.00    +0.022 A 
ATOM     16  C   UNL     1       3.514   3.594   0.236  0.00  0.00    -0.034 A 
ATOM     17  C   UNL     1       2.425   4.099  -0.464  0.00  0.00    +0.053 A 
ATOM     18  C   UNL     1       1.238   3.388  -0.569  0.00  0.00    +0.162 A 
ATOM     19  C   UNL     1       4.760   4.420   0.368  0.00  0.00    +0.051 C 
ATOM     20  C   UNL     1       5.758   3.811   1.381  0.00  0.00    +0.089 C 
ATOM     21  N   UNL     1       5.773   2.348   1.313  0.00  0.00    -0.278 NA
ATOM     22  C   UNL     1       4.480   1.799   1.747  0.00  0.00    +0.275 C 
ATOM     23  O   UNL     1       4.514   0.379   1.758  0.00  0.00    -0.465 OA
ATOM     24  H   UNL     1       5.965   2.031   0.277  0.00  0.00    +0.126 HD
ENDROOT
BRANCH  18  25
ATOM     25  O   UNL     1       0.178   3.925  -1.230  0.00  0.00    -0.491 OA
ATOM     26  C   UNL     1       0.355   5.227  -1.792  0.00  0.00    +0.277 C 
ENDBRANCH  18  25
BRANCH   7  27
ATOM     27  O   UNL     1       4.308  -2.141   2.966  0.00  0.00    -0.491 OA
ATOM     28  C   UNL     1       4.124  -3.445   3.521  0.00  0.00    +0.277 C 
ENDBRANCH   7  27
TORSDOF 2
