REMARK  Name = ZINC66065084
REMARK  12 active torsions:
REMARK  status: ('A' for Active; 'I' for Inactive)
REMARK    1  A    between atoms: C_1  and  C_2
REMARK    2  A    between atoms: C_2  and  C_3
REMARK    3  A    between atoms: C_3  and  C_5
REMARK    4  A    between atoms: C_3  and  N_6
REMARK    5  A    between atoms: C_7  and  C_9
REMARK    6  A    between atoms: C_12  and  N_15
REMARK    7  A    between atoms: C_16  and  C_18
REMARK    8  A    between atoms: C_18  and  N_19
REMARK    9  A    between atoms: N_19  and  C_20
REMARK   10  A    between atoms: C_25  and  O_26
REMARK   11  A    between atoms: O_26  and  C_27
REMARK   12  A    between atoms: C_27  and  C_28
REMARK                            x       y       z     vdW  Elec       q    Type
REMARK                         _______ _______ _______ _____ _____    ______ ____
ROOT
ATOM      1  N   UNL     1      -2.416   1.505  -8.189  0.00  0.00    -0.284 N 
ATOM      2  C   UNL     1      -1.787   1.740  -9.358  0.00  0.00    +0.234 C 
ATOM      3  O   UNL     1      -0.594   1.546  -9.454  0.00  0.00    -0.274 OA
ATOM      4  H   UNL     1      -3.381   1.586  -8.133  0.00  0.00    +0.155 HD
ENDROOT
BRANCH   1   8
ATOM      5  C   UNL     1      -0.216   0.434  -4.818  0.00  0.00    +0.037 A 
ATOM      6  C   UNL     1       0.328   1.311  -5.760  0.00  0.00    +0.015 A 
ATOM      7  C   UNL     1      -0.402   1.663  -6.873  0.00  0.00    +0.024 A 
ATOM      8  C   UNL     1      -1.680   1.146  -7.061  0.00  0.00    +0.033 A 
ATOM      9  C   UNL     1      -2.225   0.272  -6.126  0.00  0.00    +0.024 A 
ATOM     10  C   UNL     1      -1.498  -0.088  -5.013  0.00  0.00    +0.015 A 
BRANCH   5  12
ATOM     11  N   UNL     1       1.799   0.558  -3.437  0.00  0.00    -0.309 N 
ATOM     12  C   UNL     1       0.563   0.054  -3.624  0.00  0.00    +0.244 C 
ATOM     13  O   UNL     1       0.090  -0.714  -2.808  0.00  0.00    -0.270 OA
ATOM     14  H   UNL     1       2.176   1.170  -4.088  0.00  0.00    +0.149 HD
BRANCH  11  15
ATOM     15  C   UNL     1       2.573   0.181  -2.252  0.00  0.00    +0.070 C 
ATOM     16  C   UNL     1       2.186   1.087  -1.081  0.00  0.00    +0.028 C 
BRANCH  15  18
ATOM     17  C   UNL     1       4.479  -0.658  -3.632  0.00  0.00    +0.005 C 
ATOM     18  C   UNL     1       4.066   0.338  -2.546  0.00  0.00    +0.018 C 
ENDBRANCH  15  18
ENDBRANCH  11  15
ENDBRANCH   5  12
ENDBRANCH   1   8
BRANCH   2  19
ATOM     19  C   UNL     1      -2.567   2.243 -10.546  0.00  0.00    +0.198 C 
BRANCH  19  20
ATOM     20  N   UNL     1      -1.663   2.417 -11.685  0.00  0.00    -0.333 N 
ATOM     21  H   UNL     1      -0.719   2.213 -11.591  0.00  0.00    +0.147 HD
BRANCH  20  22
ATOM     22  C   UNL     1      -2.161   2.878 -12.909  0.00  0.00    +0.070 A 
ATOM     23  C   UNL     1      -3.509   3.176 -13.044  0.00  0.00    +0.026 A 
ATOM     24  C   UNL     1      -3.998   3.632 -14.254  0.00  0.00    +0.002 A 
ATOM     25  C   UNL     1      -3.147   3.792 -15.331  0.00  0.00    +0.004 A 
ATOM     26  C   UNL     1      -1.802   3.497 -15.204  0.00  0.00    +0.047 A 
ATOM     27  C   UNL     1      -1.303   3.045 -13.994  0.00  0.00    +0.142 A 
BRANCH  27  28
ATOM     28  O   UNL     1       0.021   2.759 -13.866  0.00  0.00    -0.486 OA
BRANCH  28  29
ATOM     29  C   UNL     1       0.841   2.954 -15.020  0.00  0.00    +0.264 C 
BRANCH  29  30
ATOM     30  C   UNL     1       2.266   2.589 -14.692  0.00  0.00    -0.010 A 
ATOM     31  C   UNL     1       3.128   3.549 -14.196  0.00  0.00    +0.007 A 
ATOM     32  C   UNL     1       4.435   3.214 -13.894  0.00  0.00    +0.000 A 
ATOM     33  C   UNL     1       4.879   1.919 -14.088  0.00  0.00    +0.000 A 
ATOM     34  C   UNL     1       4.016   0.959 -14.583  0.00  0.00    +0.000 A 
ATOM     35  C   UNL     1       2.708   1.293 -14.881  0.00  0.00    +0.007 A 
ENDBRANCH  29  30
ENDBRANCH  28  29
ENDBRANCH  27  28
ENDBRANCH  20  22
ENDBRANCH  19  20
ENDBRANCH   2  19
TORSDOF 10
