REMARK  Name = ZINC39353706
REMARK  7 active torsions:
REMARK  status: ('A' for Active; 'I' for Inactive)
REMARK    1  A    between atoms: C_1  and  O_2
REMARK    2  A    between atoms: O_2  and  C_3
REMARK    3  A    between atoms: C_8  and  N_9
REMARK    4  A    between atoms: C_10  and  C_12
REMARK    5  A    between atoms: N_18  and  C_21
REMARK    6  A    between atoms: C_21  and  C_22
REMARK    7  A    between atoms: C_27  and  C_28
REMARK                            x       y       z     vdW  Elec       q    Type
REMARK                         _______ _______ _______ _____ _____    ______ ____
ROOT
ATOM      1  C   UNL     1       1.572  -4.891  -0.398  0.00  0.00    +0.082 C 
ATOM      2  C   UNL     1       1.708  -5.696   0.896  0.00  0.00    +0.020 C 
ATOM      3  C   UNL     1       1.156  -6.360  -0.364  0.00  0.00    -0.021 C 
ATOM      4  C   UNL     1      -0.341  -6.681  -0.409  0.00  0.00    -0.011 C 
ATOM      5  C   UNL     1      -0.740  -6.948  -1.865  0.00  0.00    -0.078 C 
ATOM      6  N   UNL     1       0.091  -8.028  -2.410  0.00  0.00    +0.380 N 
ATOM      7  C   UNL     1       1.491  -7.594  -2.499  0.00  0.00    -0.078 C 
ATOM      8  C   UNL     1       2.049  -7.373  -1.089  0.00  0.00    -0.011 C 
ATOM      9  H   UNL     1       0.029  -8.835  -1.808  0.00  0.00    -0.082 HD
ENDROOT
BRANCH   1  11
ATOM     10  N   UNL     1      -0.049  -3.509  -1.655  0.00  0.00    -0.282 N 
ATOM     11  C   UNL     1       0.476  -3.859  -0.465  0.00  0.00    +0.221 C 
ATOM     12  O   UNL     1       0.067  -3.343   0.554  0.00  0.00    -0.275 OA
ATOM     13  H   UNL     1       0.321  -3.873  -2.475  0.00  0.00    +0.155 HD
BRANCH  10  19
ATOM     14  C   UNL     1      -2.100  -2.759  -2.701  0.00  0.00    +0.141 A 
ATOM     15  C   UNL     1      -3.170  -1.880  -2.747  0.00  0.00    +0.047 A 
ATOM     16  C   UNL     1      -3.270  -0.863  -1.815  0.00  0.00    +0.004 A 
ATOM     17  C   UNL     1      -2.305  -0.721  -0.835  0.00  0.00    +0.002 A 
ATOM     18  C   UNL     1      -1.236  -1.594  -0.782  0.00  0.00    +0.027 A 
ATOM     19  C   UNL     1      -1.131  -2.619  -1.710  0.00  0.00    +0.076 A 
BRANCH  14  21
ATOM     20  C   UNL     1      -2.969  -3.776  -4.667  0.00  0.00    +0.277 C 
ATOM     21  O   UNL     1      -2.000  -3.759  -3.616  0.00  0.00    -0.493 OA
ENDBRANCH  14  21
ENDBRANCH  10  19
ENDBRANCH   1  11
BRANCH   6  22
ATOM     22  C   UNL     1      -0.393  -8.386  -3.750  0.00  0.00    -0.063 C 
BRANCH  22  23
ATOM     23  C   UNL     1      -1.793  -8.994  -3.640  0.00  0.00    +0.066 C 
ATOM     24  C   UNL     1      -1.746 -10.309  -2.889  0.00  0.00    +0.115 C 
ATOM     25  N   UNL     1      -2.164 -11.210  -3.718  0.00  0.00    -0.161 NA
ATOM     26  N   UNL     1      -2.498 -10.679  -4.959  0.00  0.00    -0.153 NA
ATOM     27  C   UNL     1      -2.315  -9.384  -5.009  0.00  0.00    +0.077 C 
BRANCH  27  28
ATOM     28  C   UNL     1      -2.562  -8.492  -6.153  0.00  0.00    -0.001 A 
ATOM     29  C   UNL     1      -2.242  -7.133  -6.066  0.00  0.00    +0.010 A 
ATOM     30  C   UNL     1      -2.477  -6.304  -7.142  0.00  0.00    +0.001 A 
ATOM     31  C   UNL     1      -3.029  -6.812  -8.305  0.00  0.00    +0.000 A 
ATOM     32  C   UNL     1      -3.349  -8.155  -8.398  0.00  0.00    +0.001 A 
ATOM     33  C   UNL     1      -3.114  -8.999  -7.333  0.00  0.00    +0.010 A 
ENDBRANCH  27  28
ENDBRANCH  22  23
ENDBRANCH   6  22
TORSDOF 6
