REMARK  Name = ZINC66214755
REMARK  7 active torsions:
REMARK  status: ('A' for Active; 'I' for Inactive)
REMARK    1  A    between atoms: C_2  and  C_3
REMARK    2  A    between atoms: C_3  and  O_4
REMARK    3  A    between atoms: O_4  and  C_5
REMARK    4  A    between atoms: C_8  and  N_11
REMARK    5  A    between atoms: C_12  and  C_14
REMARK    6  A    between atoms: C_14  and  N_15
REMARK    7  A    between atoms: N_15  and  C_16
REMARK                            x       y       z     vdW  Elec       q    Type
REMARK                         _______ _______ _______ _____ _____    ______ ____
ROOT
ATOM      1  N   UNL     1      -5.676  -5.075  -1.436  0.00  0.00    -0.284 N 
ATOM      2  C   UNL     1      -5.713  -6.030  -2.386  0.00  0.00    +0.234 C 
ATOM      3  O   UNL     1      -4.737  -6.238  -3.076  0.00  0.00    -0.274 OA
ATOM      4  H   UNL     1      -6.428  -4.960  -0.834  0.00  0.00    +0.155 HD
ENDROOT
BRANCH   1   8
ATOM      5  C   UNL     1      -2.326  -2.617  -1.080  0.00  0.00    +0.121 A 
ATOM      6  C   UNL     1      -2.720  -3.076  -2.329  0.00  0.00    +0.047 A 
ATOM      7  C   UNL     1      -3.829  -3.890  -2.447  0.00  0.00    +0.027 A 
ATOM      8  C   UNL     1      -4.550  -4.250  -1.316  0.00  0.00    +0.034 A 
ATOM      9  C   UNL     1      -4.155  -3.790  -0.067  0.00  0.00    +0.027 A 
ATOM     10  C   UNL     1      -3.043  -2.981   0.051  0.00  0.00    +0.047 A 
BRANCH   5  11
ATOM     11  O   UNL     1      -1.234  -1.815  -0.965  0.00  0.00    -0.488 OA
BRANCH  11  12
ATOM     12  C   UNL     1      -0.544  -1.481  -2.170  0.00  0.00    +0.256 C 
BRANCH  12  14
ATOM     13  C   UNL     1       1.796  -0.822  -2.399  0.00  0.00    +0.007 C 
ATOM     14  C   UNL     1       0.630  -0.593  -1.848  0.00  0.00    +0.006 C 
ENDBRANCH  12  14
ENDBRANCH  11  12
ENDBRANCH   5  11
ENDBRANCH   1   8
BRANCH   2  15
ATOM     15  C   UNL     1      -6.968  -6.838  -2.593  0.00  0.00    +0.198 C 
BRANCH  15  16
ATOM     16  N   UNL     1      -6.755  -7.802  -3.676  0.00  0.00    -0.334 N 
ATOM     17  H   UNL     1      -5.900  -7.838  -4.131  0.00  0.00    +0.147 HD
BRANCH  16  18
ATOM     18  C   UNL     1      -7.786  -8.669  -4.052  0.00  0.00    +0.048 A 
ATOM     19  C   UNL     1      -9.013  -8.614  -3.404  0.00  0.00    +0.045 A 
ATOM     20  C   UNL     1     -10.029  -9.473  -3.779  0.00  0.00    +0.061 A 
ATOM     21  C   UNL     1      -9.825 -10.388  -4.798  0.00  0.00    +0.061 A 
ATOM     22  C   UNL     1      -8.603 -10.445  -5.445  0.00  0.00    +0.043 A 
ATOM     23  C   UNL     1      -7.585  -9.584  -5.079  0.00  0.00    +0.063 A 
ATOM     24 CL   UNL     1      -6.055  -9.651  -5.896  0.00  0.00    -0.082 Cl
ATOM     25 CL   UNL     1     -11.103 -11.465  -5.265  0.00  0.00    -0.082 Cl
ATOM     26 CL   UNL     1     -11.564  -9.405  -2.969  0.00  0.00    -0.082 Cl
ENDBRANCH  16  18
ENDBRANCH  15  16
ENDBRANCH   2  15
TORSDOF 7
