REMARK  Name = ZINC40259413
REMARK  3 active torsions:
REMARK  status: ('A' for Active; 'I' for Inactive)
REMARK    1  A    between atoms: C_4  and  C_8
REMARK    2  A    between atoms: C_8  and  C_10
REMARK    3  A    between atoms: C_8  and  O_21
REMARK                            x       y       z     vdW  Elec       q    Type
REMARK                         _______ _______ _______ _____ _____    ______ ____
ROOT
ATOM      1  C   UNL     1       3.715  -0.707  -0.038  0.00  0.00    +0.181 C 
ENDROOT
BRANCH   1   2
ATOM      2  C   UNL     1       3.988  -1.281   1.328  0.00  0.00    +0.003 A 
ATOM      3  C   UNL     1       3.643  -2.589   1.609  0.00  0.00    +0.057 A 
ATOM      4  C   UNL     1       3.894  -3.120   2.865  0.00  0.00    +0.162 A 
ATOM      5  C   UNL     1       4.496  -2.333   3.841  0.00  0.00    +0.163 A 
ATOM      6  C   UNL     1       4.838  -1.021   3.554  0.00  0.00    +0.065 A 
ATOM      7  C   UNL     1       4.589  -0.498   2.297  0.00  0.00    +0.028 A 
ATOM      8 BR   UNL     1       5.065   1.290   1.907  0.00  0.00    -0.050 Br
ATOM      9  O   UNL     1       4.758  -2.837   5.078  0.00  0.00    -0.485 OA
ATOM     10  C   UNL     1       4.065  -4.035   5.445  0.00  0.00    +0.270 C 
ATOM     11  C   UNL     1       4.152  -5.020   4.272  0.00  0.00    +0.270 C 
ATOM     12  O   UNL     1       3.545  -4.409   3.128  0.00  0.00    -0.485 OA
ENDBRANCH   1   2
BRANCH   1  16
ATOM     13  C   UNL     1      -0.017   1.378   0.010  0.00  0.00    +0.006 A 
ATOM     14  C   UNL     1       1.170   2.086   0.002  0.00  0.00    +0.039 A 
ATOM     15  C   UNL     1       2.379   1.412  -0.013  0.00  0.00    +0.132 A 
ATOM     16  C   UNL     1       2.399   0.028  -0.021  0.00  0.00    +0.056 A 
ATOM     17  C   UNL     1       1.210  -0.681  -0.013  0.00  0.00    +0.132 A 
ATOM     18  C   UNL     1       0.002  -0.004   0.002  0.00  0.00    +0.039 A 
ATOM     19  F   UNL     1       1.228  -2.031  -0.020  0.00  0.00    -0.205 F 
ATOM     20  F   UNL     1       3.539   2.104  -0.022  0.00  0.00    -0.205 F 
ENDBRANCH   1  16
BRANCH   1  21
ATOM     21  O   UNL     1       3.656  -1.766  -0.996  0.00  0.00    -0.382 OA
ATOM     22  H   UNL     1       2.966  -2.420  -0.818  0.00  0.00    +0.211 HD
ENDBRANCH   1  21
TORSDOF 3
