REMARK  Name = ZINC13164215
REMARK  5 active torsions:
REMARK  status: ('A' for Active; 'I' for Inactive)
REMARK    1  A    between atoms: C_1  and  C_2
REMARK    2  A    between atoms: C_2  and  C_24
REMARK    3  A    between atoms: N_5  and  C_9
REMARK    4  A    between atoms: C_9  and  C_10
REMARK    5  A    between atoms: N_12  and  C_13
REMARK                            x       y       z     vdW  Elec       q    Type
REMARK                         _______ _______ _______ _____ _____    ______ ____
ROOT
ATOM      1  C   UNL     1       2.896   4.240  -1.437  0.00  0.00    +0.047 C 
ATOM      2  C   UNL     1       2.457   3.935  -0.004  0.00  0.00    +0.135 C 
ATOM      3  C   UNL     1       2.324   5.213   0.800  0.00  0.00    +0.251 C 
ATOM      4  O   UNL     1       1.574   6.140   0.582  0.00  0.00    -0.272 OA
ATOM      5  N   UNL     1       3.212   5.104   1.807  0.00  0.00    -0.215 N 
ATOM      6  C   UNL     1       3.882   3.947   1.752  0.00  0.00    +0.310 C 
ATOM      7  O   UNL     1       4.736   3.622   2.553  0.00  0.00    -0.252 OA
ATOM      8  N   UNL     1       3.503   3.184   0.711  0.00  0.00    -0.281 N 
ATOM      9  H   UNL     1       3.852   2.310   0.476  0.00  0.00    +0.152 HD
ENDROOT
BRANCH   2  10
ATOM     10  C   UNL     1       1.159   3.169  -0.000  0.00  0.00    -0.014 A 
ATOM     11  C   UNL     1       1.172   1.786  -0.003  0.00  0.00    +0.006 A 
ATOM     12  C   UNL     1      -0.018   1.083  -0.000  0.00  0.00    +0.001 A 
ATOM     13  C   UNL     1      -1.222   1.762  -0.000  0.00  0.00    +0.015 A 
ATOM     14  C   UNL     1      -1.236   3.145   0.007  0.00  0.00    +0.018 A 
ATOM     15  C   UNL     1      -0.044   3.848   0.004  0.00  0.00    +0.021 A 
ATOM     16 BR   UNL     1      -2.883   4.074   0.014  0.00  0.00    -0.050 Br
ENDBRANCH   2  10
BRANCH   5  17
ATOM     17  C   UNL     1       3.421   6.128   2.835  0.00  0.00    +0.214 C 
BRANCH  17  18
ATOM     18  C   UNL     1       4.485   7.091   2.377  0.00  0.00    +0.235 C 
ATOM     19  O   UNL     1       5.017   6.938   1.298  0.00  0.00    -0.274 OA
ATOM     20  N   UNL     1       4.846   8.122   3.166  0.00  0.00    -0.284 N 
ATOM     21  H   UNL     1       4.374   8.284   3.998  0.00  0.00    +0.155 HD
BRANCH  20  22
ATOM     22  C   UNL     1       5.901   8.961   2.784  0.00  0.00    +0.037 A 
ATOM     23  C   UNL     1       6.742   9.500   3.747  0.00  0.00    +0.027 A 
ATOM     24  C   UNL     1       7.786  10.324   3.372  0.00  0.00    +0.051 A 
ATOM     25  C   UNL     1       7.991  10.622   2.034  0.00  0.00    +0.173 A 
ATOM     26  C   UNL     1       7.145  10.086   1.066  0.00  0.00    +0.174 A 
ATOM     27  C   UNL     1       6.102   9.257   1.443  0.00  0.00    +0.073 A 
ATOM     28  O   UNL     1       7.552  10.526  -0.161  0.00  0.00    -0.395 OA
ATOM     29  C   UNL     1       8.401  11.659   0.100  0.00  0.00    +0.589 C 
ATOM     30  O   UNL     1       8.928  11.397   1.414  0.00  0.00    -0.395 OA
ATOM     31  F   UNL     1       7.656  12.843   0.096  0.00  0.00    -0.125 F 
ATOM     32  F   UNL     1       9.435  11.729  -0.840  0.00  0.00    -0.125 F 
ENDBRANCH  20  22
ENDBRANCH  17  18
ENDBRANCH   5  17
TORSDOF 4
