REMARK  Name = ZINC16001416
REMARK  5 active torsions:
REMARK  status: ('A' for Active; 'I' for Inactive)
REMARK    1  A    between atoms: C_1  and  O_2
REMARK    2  A    between atoms: O_2  and  C_3
REMARK    3  A    between atoms: C_6  and  N_9
REMARK    4  A    between atoms: C_10  and  C_12
REMARK    5  A    between atoms: N_31  and  C_34
REMARK                            x       y       z     vdW  Elec       q    Type
REMARK                         _______ _______ _______ _____ _____    ______ ____
ROOT
ATOM      1  C   UNL     1       3.093  -4.542   5.531  0.00  0.00    +0.172 C 
ATOM      2  C   UNL     1       4.626  -4.636   5.389  0.00  0.00    +0.119 C 
ATOM      3  C   UNL     1       4.846  -6.005   4.683  0.00  0.00    +0.115 C 
ATOM      4  C   UNL     1       3.586  -6.819   4.986  0.00  0.00    +0.117 C 
ATOM      5  N   UNL     1       2.613  -5.917   5.638  0.00  0.00    -0.316 N 
ATOM      6  C   UNL     1       1.481  -6.382   6.290  0.00  0.00    +0.072 C 
ATOM      7  C   UNL     1       1.588  -7.579   6.900  0.00  0.00    +0.023 C 
ATOM      8  C   UNL     1       2.876  -8.300   6.861  0.00  0.00    -0.019 A 
ATOM      9  C   UNL     1       3.887  -7.961   5.921  0.00  0.00    -0.019 A 
ATOM     10  C   UNL     1       5.084  -8.635   5.855  0.00  0.00    +0.006 A 
ATOM     11  C   UNL     1       5.341  -9.679   6.729  0.00  0.00    +0.000 A 
ATOM     12  C   UNL     1       4.397 -10.047   7.671  0.00  0.00    +0.001 A 
ATOM     13  C   UNL     1       3.125  -9.342   7.756  0.00  0.00    +0.008 A 
ATOM     14  C   UNL     1       4.882  -5.608   3.221  0.00  0.00    +0.232 C 
ATOM     15  O   UNL     1       4.736  -6.358   2.280  0.00  0.00    -0.274 OA
ATOM     16  N   UNL     1       5.102  -4.287   3.143  0.00  0.00    -0.210 N 
ATOM     17  C   UNL     1       5.082  -3.638   4.341  0.00  0.00    +0.232 C 
ATOM     18  O   UNL     1       5.376  -2.480   4.548  0.00  0.00    -0.274 OA
ENDROOT
BRANCH  16  19
ATOM     19  C   UNL     1       5.336  -3.624   1.929  0.00  0.00    +0.045 A 
ATOM     20  C   UNL     1       5.682  -2.279   1.926  0.00  0.00    +0.027 A 
ATOM     21  C   UNL     1       5.912  -1.628   0.731  0.00  0.00    +0.041 A 
ATOM     22  C   UNL     1       5.798  -2.314  -0.466  0.00  0.00    +0.142 A 
ATOM     23  C   UNL     1       5.453  -3.656  -0.467  0.00  0.00    +0.078 A 
ATOM     24  C   UNL     1       5.226  -4.312   0.729  0.00  0.00    +0.046 A 
ATOM     25 CL   UNL     1       5.309  -4.515  -1.969  0.00  0.00    -0.081 Cl
ATOM     26  F   UNL     1       6.024  -1.675  -1.635  0.00  0.00    -0.204 F 
ENDBRANCH  16  19
BRANCH   1  28
ATOM     27  N   UNL     1       2.510  -2.534   4.208  0.00  0.00    -0.284 N 
ATOM     28  C   UNL     1       2.499  -3.878   4.316  0.00  0.00    +0.238 C 
ATOM     29  O   UNL     1       2.010  -4.552   3.434  0.00  0.00    -0.273 OA
ATOM     30  H   UNL     1       2.967  -1.998   4.875  0.00  0.00    +0.155 HD
BRANCH  27  34
ATOM     31  C   UNL     1       0.579  -0.682   1.010  0.00  0.00    +0.120 A 
ATOM     32  C   UNL     1       1.731  -0.122   1.543  0.00  0.00    +0.047 A 
ATOM     33  C   UNL     1       2.371  -0.735   2.602  0.00  0.00    +0.027 A 
ATOM     34  C   UNL     1       1.861  -1.912   3.134  0.00  0.00    +0.034 A 
ATOM     35  C   UNL     1       0.708  -2.471   2.600  0.00  0.00    +0.027 A 
ATOM     36  C   UNL     1       0.066  -1.855   1.545  0.00  0.00    +0.047 A 
BRANCH  31  38
ATOM     37  C   UNL     1       0.533   1.127  -0.533  0.00  0.00    +0.277 C 
ATOM     38  O   UNL     1      -0.051  -0.078  -0.032  0.00  0.00    -0.495 OA
ENDBRANCH  31  38
ENDBRANCH  27  34
ENDBRANCH   1  28
TORSDOF 4
