REMARK  Name = ZINC09111058
REMARK  7 active torsions:
REMARK  status: ('A' for Active; 'I' for Inactive)
REMARK    1  A    between atoms: C_1  and  O_2
REMARK    2  A    between atoms: O_2  and  C_3
REMARK    3  A    between atoms: C_6  and  C_10
REMARK    4  A    between atoms: C_10  and  C_12
REMARK    5  A    between atoms: C_14  and  C_32
REMARK    6  A    between atoms: C_16  and  C_28
REMARK    7  A    between atoms: C_16  and  C_30
REMARK                            x       y       z     vdW  Elec       q    Type
REMARK                         _______ _______ _______ _____ _____    ______ ____
ROOT
ATOM      1  C   UNL     1       2.527  -0.217   0.391  0.00  0.00    +0.155 C 
ATOM      2  C   UNL     1       4.047  -0.395   0.657  0.00  0.00    +0.083 C 
ATOM      3  C   UNL     1       4.565   1.029   0.986  0.00  0.00    +0.173 C 
ATOM      4  C   UNL     1       3.305   1.899   0.955  0.00  0.00    +0.132 C 
ATOM      5  N   UNL     1       2.414   1.192  -0.003  0.00  0.00    -0.309 N 
ATOM      6  C   UNL     1       1.173   1.784   0.000  0.00  0.00    +0.038 A 
ATOM      7  C   UNL     1      -0.013   1.076   0.008  0.00  0.00    +0.024 A 
ATOM      8  C   UNL     1      -1.219   1.752   0.017  0.00  0.00    +0.002 A 
ATOM      9  C   UNL     1      -1.249   3.136   0.030  0.00  0.00    +0.001 A 
ATOM     10  C   UNL     1      -0.073   3.861   0.020  0.00  0.00    +0.010 A 
ATOM     11  C   UNL     1       1.145   3.196   0.003  0.00  0.00    -0.004 A 
ATOM     12  C   UNL     1       2.432   3.931  -0.020  0.00  0.00    +0.007 C 
ATOM     13  C   UNL     1       3.520   3.295   0.454  0.00  0.00    -0.002 C 
ENDROOT
BRANCH   2  14
ATOM     14  C   UNL     1       4.271  -1.317   1.828  0.00  0.00    -0.040 A 
ATOM     15  C   UNL     1       3.717  -1.019   3.059  0.00  0.00    +0.004 A 
ATOM     16  C   UNL     1       3.919  -1.867   4.132  0.00  0.00    +0.000 A 
ATOM     17  C   UNL     1       4.683  -3.009   3.976  0.00  0.00    +0.000 A 
ATOM     18  C   UNL     1       5.241  -3.304   2.746  0.00  0.00    +0.000 A 
ATOM     19  C   UNL     1       5.035  -2.459   1.673  0.00  0.00    +0.004 A 
ENDBRANCH   2  14
BRANCH   1  20
ATOM     20  C   UNL     1       2.074  -1.121  -0.726  0.00  0.00    +0.184 C 
ATOM     21  O   UNL     1       1.929  -0.677  -1.845  0.00  0.00    -0.290 OA
BRANCH  20  25
ATOM     22  C   UNL     1       1.304  -5.220   0.047  0.00  0.00    +0.134 A 
ATOM     23  C   UNL     1       1.723  -4.386   1.078  0.00  0.00    +0.047 A 
ATOM     24  C   UNL     1       1.978  -3.057   0.832  0.00  0.00    +0.015 A 
ATOM     25  C   UNL     1       1.807  -2.541  -0.459  0.00  0.00    +0.021 A 
ATOM     26  C   UNL     1       1.386  -3.383  -1.494  0.00  0.00    +0.030 A 
ATOM     27  C   UNL     1       1.137  -4.713  -1.238  0.00  0.00    +0.060 A 
ATOM     28 BR   UNL     1       0.568  -5.853  -2.636  0.00  0.00    -0.046 Br
BRANCH  22  30
ATOM     29  C   UNL     1       1.249  -6.985   1.635  0.00  0.00    +0.277 C 
ATOM     30  O   UNL     1       1.058  -6.531   0.294  0.00  0.00    -0.494 OA
ENDBRANCH  22  30
ENDBRANCH  20  25
ENDBRANCH   1  20
BRANCH   3  31
ATOM     31  C   UNL     1       5.526   1.477  -0.035  0.00  0.00    +0.087 C 
ATOM     32  N   UNL     1       6.268   1.822  -0.823  0.00  0.00    -0.195 NA
ENDBRANCH   3  31
BRANCH   3  33
ATOM     33  C   UNL     1       5.181   1.062   2.322  0.00  0.00    +0.087 C 
ATOM     34  N   UNL     1       5.657   1.087   3.353  0.00  0.00    -0.195 NA
ENDBRANCH   3  33
TORSDOF 6
