REMARK  Name = ZINC04533779
REMARK  11 active torsions:
REMARK  status: ('A' for Active; 'I' for Inactive)
REMARK    1  A    between atoms: C_1  and  C_2
REMARK    2  A    between atoms: C_2  and  C_4
REMARK    3  A    between atoms: C_2  and  N_46
REMARK    4  A    between atoms: N_6  and  C_7
REMARK    5  A    between atoms: C_7  and  C_9
REMARK    6  A    between atoms: C_7  and  C_10
REMARK    7  A    between atoms: N_12  and  C_13
REMARK    8  A    between atoms: C_13  and  C_15
REMARK    9  A    between atoms: C_13  and  C_16
REMARK   10  A    between atoms: N_18  and  C_19
REMARK   11  A    between atoms: C_22  and  N_25
REMARK                            x       y       z     vdW  Elec       q    Type
REMARK                         _______ _______ _______ _____ _____    ______ ____
ROOT
ATOM      1  C   UNL     1      -3.224   6.378   0.960  0.00  0.00    +0.234 C 
ATOM      2  O   UNL     1      -4.242   5.903   1.418  0.00  0.00    -0.274 OA
ATOM      3  N   UNL     1      -2.321   5.580   0.356  0.00  0.00    -0.303 N 
ATOM      4  H   UNL     1      -1.507   5.960  -0.011  0.00  0.00    +0.149 HD
ENDROOT
BRANCH   1   5
ATOM      5  C   UNL     1      -2.969   7.859   1.067  0.00  0.00    +0.156 C 
ATOM      6  C   UNL     1      -2.830   8.455  -0.335  0.00  0.00    +0.038 C 
BRANCH   5   9
ATOM      7  C   UNL     1      -3.903   9.663   2.414  0.00  0.00    +0.199 C 
ATOM      8  O   UNL     1      -2.806  10.180   2.428  0.00  0.00    -0.278 OA
ATOM      9  N   UNL     1      -4.090   8.499   1.760  0.00  0.00    -0.306 N 
ATOM     10  H   UNL     1      -4.967   8.085   1.749  0.00  0.00    +0.149 HD
BRANCH   7  12
ATOM     11  C   UNL     1      -5.596   9.376   4.202  0.00  0.00    -0.005 C 
ATOM     12  C   UNL     1      -5.056  10.321   3.127  0.00  0.00    +0.010 C 
BRANCH  12  15
ATOM     13  H   UNL     1      -4.175  12.181   3.075  0.00  0.00    -0.089 HD
ATOM     14  H   UNL     1      -5.351  12.027   4.241  0.00  0.00    -0.089 HD
ATOM     15  N   UNL     1      -4.579  11.557   3.772  0.00  0.00    +0.385 N 
ATOM     16  H   UNL     1      -3.860  11.320   4.466  0.00  0.00    -0.089 HD
ENDBRANCH  12  15
ENDBRANCH   7  12
ENDBRANCH   5   9
ENDBRANCH   1   5
BRANCH   3  17
ATOM     17  C   UNL     1      -2.569   4.140   0.252  0.00  0.00    +0.156 C 
ATOM     18  C   UNL     1      -3.427   3.858  -0.983  0.00  0.00    +0.038 C 
BRANCH  17  19
ATOM     19  C   UNL     1      -1.255   3.412   0.128  0.00  0.00    +0.237 C 
ATOM     20  O   UNL     1      -0.215   4.035   0.127  0.00  0.00    -0.273 OA
ATOM     21  N   UNL     1      -1.237   2.069   0.019  0.00  0.00    -0.284 N 
ATOM     22  H   UNL     1      -2.070   1.577  -0.057  0.00  0.00    +0.155 HD
BRANCH  21  23
ATOM     23  C   UNL     1      -0.017   1.384   0.015  0.00  0.00    +0.034 A 
ATOM     24  C   UNL     1       0.126   0.222  -0.732  0.00  0.00    +0.025 A 
ATOM     25  C   UNL     1       1.330  -0.454  -0.730  0.00  0.00    +0.034 A 
ATOM     26  C   UNL     1       2.392   0.023   0.017  0.00  0.00    +0.126 A 
ATOM     27  C   UNL     1       2.252   1.180   0.762  0.00  0.00    +0.034 A 
ATOM     28  C   UNL     1       1.051   1.861   0.763  0.00  0.00    +0.025 A 
BRANCH  26  29
ATOM     29  N   UNL     1       3.681  -0.705   0.018  0.00  0.00    +0.056 N 
ATOM     30  O   UNL     1       4.617  -0.285   0.674  0.00  0.00    -0.126 OA
ATOM     31  O   UNL     1       3.805  -1.724  -0.638  0.00  0.00    -0.126 OA
ENDBRANCH  26  29
ENDBRANCH  21  23
ENDBRANCH  17  19
ENDBRANCH   3  17
TORSDOF 8
