REMARK  Name = ZINC67602094
REMARK  5 active torsions:
REMARK  status: ('A' for Active; 'I' for Inactive)
REMARK    1  A    between atoms: C_1  and  C_2
REMARK    2  A    between atoms: C_5  and  N_9
REMARK    3  A    between atoms: C_20  and  N_25
REMARK    4  A    between atoms: C_22  and  C_24
REMARK    5  A    between atoms: N_28  and  C_31
REMARK                            x       y       z     vdW  Elec       q    Type
REMARK                         _______ _______ _______ _____ _____    ______ ____
ROOT
ATOM      1  N   UNL     1       0.059  -4.155   0.004  0.00  0.00    -0.269 N 
ATOM      2  C   UNL     1       0.247  -4.831   1.155  0.00  0.00    +0.307 C 
ATOM      3  O   UNL     1       0.324  -4.228   2.208  0.00  0.00    -0.252 OA
ATOM      4  N   UNL     1       0.351  -6.174   1.139  0.00  0.00    -0.282 N 
ATOM      5  C   UNL     1       0.446  -6.902  -0.134  0.00  0.00    +0.128 C 
ATOM      6  C   UNL     1       1.710  -7.770  -0.109  0.00  0.00    +0.125 C 
ATOM      7  N   UNL     1       1.730  -8.534   1.146  0.00  0.00    -0.312 N 
ATOM      8  C   UNL     1       1.635  -7.807   2.420  0.00  0.00    +0.125 C 
ATOM      9  C   UNL     1       0.376  -6.938   2.395  0.00  0.00    +0.128 C 
ATOM     10  C   UNL     1       1.836  -9.916   1.129  0.00  0.00    +0.127 A 
ATOM     11  C   UNL     1       1.950 -10.601  -0.077  0.00  0.00    +0.087 A 
ATOM     12  C   UNL     1       2.054 -11.988  -0.040  0.00  0.00    +0.126 A 
ATOM     13  N   UNL     1       2.042 -12.606   1.140  0.00  0.00    -0.218 NA
ATOM     14  C   UNL     1       1.932 -11.922   2.260  0.00  0.00    +0.130 A 
ATOM     15  N   UNL     1       1.836 -10.608   2.268  0.00  0.00    -0.218 NA
ATOM     16  C   UNL     1       1.922 -12.663   3.572  0.00  0.00    +0.088 C 
ATOM     17  H   UNL     1      -0.130  -4.638  -0.816  0.00  0.00    +0.156 HD
ENDROOT
BRANCH   1  22
ATOM     18  C   UNL     1       0.372   1.510  -0.048  0.00  0.00    +0.045 C 
ATOM     19  C   UNL     1       0.289   0.005  -0.034  0.00  0.00    -0.032 A 
ATOM     20  C   UNL     1       0.509  -0.709  -1.197  0.00  0.00    +0.006 A 
ATOM     21  C   UNL     1       0.433  -2.088  -1.188  0.00  0.00    +0.024 A 
ATOM     22  C   UNL     1       0.137  -2.758  -0.008  0.00  0.00    +0.036 A 
ATOM     23  C   UNL     1      -0.083  -2.039   1.159  0.00  0.00    +0.043 A 
ATOM     24  C   UNL     1      -0.001  -0.659   1.145  0.00  0.00    +0.046 A 
ATOM     25 CL   UNL     1      -0.269   0.241   2.605  0.00  0.00    -0.083 Cl
ENDBRANCH   1  22
BRANCH  12  26
ATOM     26  N   UNL     1       2.170 -12.716  -1.214  0.00  0.00    -0.319 N 
ATOM     27  C   UNL     1       2.073 -14.184  -1.206  0.00  0.00    +0.088 C 
ATOM     28  C   UNL     1       1.059 -14.610  -2.274  0.00  0.00    -0.060 C 
ATOM     29  N   UNL     1       1.444 -14.035  -3.569  0.00  0.00    +0.380 N 
ATOM     30  C   UNL     1       1.363 -12.570  -3.509  0.00  0.00    -0.060 C 
ATOM     31  C   UNL     1       2.386 -12.043  -2.503  0.00  0.00    +0.088 C 
ATOM     32  C   UNL     1       0.537 -14.531  -4.612  0.00  0.00    -0.096 C 
ATOM     33  H   UNL     1       2.389 -14.309  -3.790  0.00  0.00    -0.082 HD
ENDBRANCH  12  26
TORSDOF 2
