REMARK  Name = ZINC40149857
REMARK  4 active torsions:
REMARK  status: ('A' for Active; 'I' for Inactive)
REMARK    1  A    between atoms: C_3  and  N_8
REMARK    2  A    between atoms: C_9  and  C_11
REMARK    3  A    between atoms: N_14  and  S_17
REMARK    4  A    between atoms: S_17  and  C_20
REMARK                            x       y       z     vdW  Elec       q    Type
REMARK                         _______ _______ _______ _____ _____    ______ ____
ROOT
ATOM      1  C   UNL     1       5.037   3.873  -0.369  0.00  0.00    +0.078 C 
ATOM      2  C   UNL     1       5.826   3.462  -1.614  0.00  0.00    +0.030 C 
ATOM      3  C   UNL     1       7.141   4.246  -1.661  0.00  0.00    +0.110 C 
ATOM      4  N   UNL     1       6.839   5.682  -1.584  0.00  0.00    -0.176 NA
ATOM      5  C   UNL     1       6.009   6.171  -0.474  0.00  0.00    +0.110 C 
ATOM      6  C   UNL     1       4.707   5.365  -0.440  0.00  0.00    +0.030 C 
ENDROOT
BRANCH   1   8
ATOM      7  N   UNL     1       3.802   1.734  -0.231  0.00  0.00    -0.270 N 
ATOM      8  C   UNL     1       3.757   3.079  -0.301  0.00  0.00    +0.221 C 
ATOM      9  O   UNL     1       2.688   3.650  -0.309  0.00  0.00    -0.275 OA
ATOM     10  H   UNL     1       4.656   1.280  -0.151  0.00  0.00    +0.156 HD
BRANCH   7  13
ATOM     11  C   UNL     1       1.500  -1.118  -0.351  0.00  0.00    +0.025 A 
ATOM     12  C   UNL     1       2.679  -0.395  -0.310  0.00  0.00    +0.045 A 
ATOM     13  C   UNL     1       2.621   0.993  -0.273  0.00  0.00    +0.125 A 
ATOM     14  N   UNL     1       1.455   1.620  -0.278  0.00  0.00    -0.239 NA
ATOM     15  C   UNL     1       0.314   0.959  -0.317  0.00  0.00    +0.132 A 
ATOM     16  C   UNL     1       0.297  -0.423  -0.355  0.00  0.00    +0.059 A 
ATOM     17 CL   UNL     1      -1.211  -1.281  -0.406  0.00  0.00    -0.082 Cl
ENDBRANCH   7  13
ENDBRANCH   1   8
BRANCH   4  18
ATOM     18  S   UNL     1       7.423   6.730  -2.726  0.00  0.00    +0.062 S 
ATOM     19  O   UNL     1       7.623   7.974  -2.071  0.00  0.00    -0.153 OA
ATOM     20  O   UNL     1       8.469   6.049  -3.405  0.00  0.00    -0.153 OA
BRANCH  18  21
ATOM     21  C   UNL     1       6.139   6.982  -3.906  0.00  0.00    +0.125 A 
ATOM     22  C   UNL     1       5.534   8.220  -4.013  0.00  0.00    +0.053 A 
ATOM     23  C   UNL     1       4.523   8.418  -4.944  0.00  0.00    +0.039 A 
ATOM     24  C   UNL     1       4.122   7.371  -5.763  0.00  0.00    -0.024 A 
ATOM     25  C   UNL     1       4.729   6.136  -5.652  0.00  0.00    +0.027 A 
ATOM     26  C   UNL     1       5.741   5.943  -4.728  0.00  0.00    +0.068 A 
ATOM     27 CL   UNL     1       6.508   4.391  -4.595  0.00  0.00    -0.082 Cl
ATOM     28  C   UNL     1       3.025   7.588  -6.773  0.00  0.00    +0.046 C 
ATOM     29  C   UNL     1       2.004   8.579  -6.213  0.00  0.00    +0.101 C 
ATOM     30  C   UNL     1       2.712   9.788  -5.663  0.00  0.00    +0.218 C 
ATOM     31  O   UNL     1       2.198  10.882  -5.767  0.00  0.00    -0.275 OA
ATOM     32  N   UNL     1       3.907   9.669  -5.057  0.00  0.00    -0.285 N 
ATOM     33  H   UNL     1       4.345  10.456  -4.697  0.00  0.00    +0.155 HD
ENDBRANCH  18  21
ENDBRANCH   4  18
TORSDOF 4
