REMARK  Name = ZINC20385055
REMARK  4 active torsions:
REMARK  status: ('A' for Active; 'I' for Inactive)
REMARK    1  A    between atoms: C_1  and  C_2
REMARK    2  A    between atoms: C_9  and  C_16
REMARK    3  A    between atoms: C_12  and  S_14
REMARK    4  A    between atoms: S_14  and  C_15
REMARK                            x       y       z     vdW  Elec       q    Type
REMARK                         _______ _______ _______ _____ _____    ______ ____
ROOT
ATOM      1  C   UNL     1      -6.232  -4.314   0.805  0.00  0.00    +0.007 C 
ATOM      2  C   UNL     1      -4.969  -3.467   0.970  0.00  0.00    -0.011 C 
ATOM      3  C   UNL     1      -4.799  -2.558  -0.251  0.00  0.00    +0.022 C 
ATOM      4  C   UNL     1      -3.502  -1.758  -0.110  0.00  0.00    +0.107 C 
ATOM      5  N   UNL     1      -2.365  -2.681  -0.002  0.00  0.00    -0.315 N 
ATOM      6  C   UNL     1      -2.482  -3.531   1.190  0.00  0.00    +0.107 C 
ATOM      7  C   UNL     1      -3.749  -4.385   1.086  0.00  0.00    +0.022 C 
ATOM      8  C   UNL     1      -1.171  -1.995  -0.003  0.00  0.00    +0.136 A 
ATOM      9  C   UNL     1      -0.032  -2.531  -0.651  0.00  0.00    +0.072 A 
ATOM     10  C   UNL     1       1.158  -1.788  -0.620  0.00  0.00    +0.128 A 
ATOM     11  N   UNL     1       1.171  -0.628   0.006  0.00  0.00    -0.230 NA
ATOM     12  C   UNL     1       0.082  -0.156   0.604  0.00  0.00    +0.190 A 
ATOM     13  N   UNL     1      -1.064  -0.822   0.607  0.00  0.00    -0.206 NA
ENDROOT
BRANCH  12  14
ATOM     14  S   UNL     1       0.167   1.401   1.424  0.00  0.00    -0.089 S 
ATOM     15  C   UNL     1       1.898   1.827   1.114  0.00  0.00    +0.093 C 
ENDBRANCH  12  14
BRANCH   9  16
ATOM     16  C   UNL     1      -0.094  -3.824  -1.335  0.00  0.00    +0.263 C 
ATOM     17  O   UNL     1       0.864  -4.224  -1.963  0.00  0.00    -0.296 OA
ENDBRANCH   9  16
TORSDOF 2
