REMARK  Name = ZINC04752633
REMARK  2 active torsions:
REMARK  status: ('A' for Active; 'I' for Inactive)
REMARK    1  A    between atoms: C_3  and  C_6
REMARK    2  A    between atoms: N_20  and  C_21
REMARK                            x       y       z     vdW  Elec       q    Type
REMARK                         _______ _______ _______ _____ _____    ______ ____
ROOT
ATOM      1  C   UNL     1      -0.432   1.326  -0.131  0.00  0.00    +0.283 C 
ATOM      2  O   UNL     1      -0.346   0.122   0.025  0.00  0.00    -0.267 OA
ATOM      3  N   UNL     1      -1.583   1.963   0.164  0.00  0.00    -0.279 N 
ATOM      4  C   UNL     1      -1.677   3.422   0.190  0.00  0.00    +0.120 C 
ATOM      5  C   UNL     1      -3.106   3.890  -0.229  0.00  0.00    +0.090 C 
ATOM      6  S   UNL     1      -4.081   2.564   0.615  0.00  0.00    -0.133 S 
ATOM      7  C   UNL     1      -2.817   1.236   0.484  0.00  0.00    +0.087 C 
ATOM      8  C   UNL     1      -2.698   0.511   1.817  0.00  0.00    +0.056 C 
ATOM      9  C   UNL     1      -1.629  -0.583   1.710  0.00  0.00    +0.112 C 
ATOM     10  N   UNL     1      -1.945  -1.439   0.559  0.00  0.00    -0.285 N 
ATOM     11  C   UNL     1      -2.131  -0.816  -0.758  0.00  0.00    +0.112 C 
ATOM     12  C   UNL     1      -3.197   0.279  -0.638  0.00  0.00    +0.056 C 
ATOM     13  C   UNL     1      -2.062  -2.774   0.709  0.00  0.00    +0.307 C 
ATOM     14  O   UNL     1      -2.226  -3.483  -0.265  0.00  0.00    -0.252 OA
ATOM     15  N   UNL     1      -1.998  -3.322   1.938  0.00  0.00    -0.267 N 
ATOM     16  H   UNL     1      -1.763  -2.773   2.703  0.00  0.00    +0.156 HD
ENDROOT
BRANCH  15  17
ATOM     17  C   UNL     1      -2.270  -4.686   2.112  0.00  0.00    +0.070 A 
ATOM     18  C   UNL     1      -2.262  -5.542   1.020  0.00  0.00    +0.029 A 
ATOM     19  C   UNL     1      -2.531  -6.886   1.193  0.00  0.00    +0.040 A 
ATOM     20  C   UNL     1      -2.809  -7.380   2.457  0.00  0.00    +0.126 A 
ATOM     21  C   UNL     1      -2.818  -6.530   3.549  0.00  0.00    +0.078 A 
ATOM     22  C   UNL     1      -2.544  -5.185   3.381  0.00  0.00    +0.147 A 
ATOM     23  F   UNL     1      -2.547  -4.356   4.448  0.00  0.00    -0.203 F 
ATOM     24  F   UNL     1      -3.072  -8.695   2.623  0.00  0.00    -0.205 F 
ENDBRANCH  15  17
BRANCH   1  27
ATOM     25  C   UNL     1       2.741   2.653  -1.355  0.00  0.00    +0.042 A 
ATOM     26  C   UNL     1       1.968   1.589  -0.866  0.00  0.00    +0.054 A 
ATOM     27  C   UNL     1       0.714   2.083  -0.645  0.00  0.00    +0.189 A 
ATOM     28  O   UNL     1       0.713   3.388  -0.988  0.00  0.00    -0.458 OA
ATOM     29  C   UNL     1       1.935   3.737  -1.411  0.00  0.00    +0.196 A 
ENDBRANCH   1  27
TORSDOF 2
