REMARK  Name = ZINC40793443
REMARK  6 active torsions:
REMARK  status: ('A' for Active; 'I' for Inactive)
REMARK    1  A    between atoms: C_4  and  C_27
REMARK    2  A    between atoms: C_6  and  N_7
REMARK    3  A    between atoms: C_9  and  N_26
REMARK    4  A    between atoms: C_10  and  N_14
REMARK    5  A    between atoms: N_14  and  N_15
REMARK    6  A    between atoms: C_16  and  C_18
REMARK                            x       y       z     vdW  Elec       q    Type
REMARK                         _______ _______ _______ _____ _____    ______ ____
ROOT
ATOM      1  N   UNL     1      -1.198  -0.721   0.010  0.00  0.00    -0.298 N 
ATOM      2  C   UNL     1      -2.409  -0.048   0.131  0.00  0.00    +0.149 A 
ATOM      3  C   UNL     1      -3.606  -0.757   0.250  0.00  0.00    +0.107 A 
ATOM      4  C   UNL     1      -4.793  -0.032   0.369  0.00  0.00    +0.161 A 
ATOM      5  N   UNL     1      -4.739   1.298   0.364  0.00  0.00    -0.217 NA
ATOM      6  C   UNL     1      -3.588   1.929   0.249  0.00  0.00    +0.225 A 
ATOM      7  N   UNL     1      -2.445   1.283   0.139  0.00  0.00    -0.219 NA
ATOM      8  H   UNL     1      -1.187  -1.687  -0.073  0.00  0.00    +0.154 HD
ENDROOT
BRANCH   1  14
ATOM      9  C   UNL     1       0.119   1.160   0.756  0.00  0.00    +0.025 A 
ATOM     10  C   UNL     1       1.306   1.866   0.752  0.00  0.00    +0.022 A 
ATOM     11  C   UNL     1       2.380   1.413   0.006  0.00  0.00    +0.053 A 
ATOM     12  C   UNL     1       2.266   0.252  -0.740  0.00  0.00    +0.075 A 
ATOM     13  C   UNL     1       1.081  -0.457  -0.741  0.00  0.00    +0.037 A 
ATOM     14  C   UNL     1       0.002  -0.005   0.008  0.00  0.00    +0.033 A 
ATOM     15 CL   UNL     1       3.870   2.302   0.004  0.00  0.00    -0.083 Cl
BRANCH  12  16
ATOM     16  C   UNL     1       3.437  -0.237  -1.553  0.00  0.00    +0.419 C 
ATOM     17  F   UNL     1       3.084  -1.418  -2.215  0.00  0.00    -0.166 F 
ATOM     18  F   UNL     1       3.792   0.736  -2.493  0.00  0.00    -0.166 F 
ATOM     19  F   UNL     1       4.522  -0.484  -0.706  0.00  0.00    -0.166 F 
ENDBRANCH  12  16
ENDBRANCH   1  14
BRANCH   3  20
ATOM     20  N   UNL     1      -3.615  -2.161   0.251  0.00  0.00    -0.353 N 
ATOM     21  H   UNL     1      -2.782  -2.652   0.167  0.00  0.00    +0.143 HD
ATOM     22  H   UNL     1      -4.454  -2.641   0.335  0.00  0.00    +0.143 HD
ENDBRANCH   3  20
BRANCH   4  23
ATOM     23  N   UNL     1      -6.011  -0.689   0.490  0.00  0.00    -0.247 N 
ATOM     24  H   UNL     1      -6.042  -1.659   0.493  0.00  0.00    +0.172 HD
BRANCH  23  25
ATOM     25  N   UNL     1      -7.196   0.049   0.609  0.00  0.00    -0.231 N 
ATOM     26  C   UNL     1      -8.378  -0.588   0.727  0.00  0.00    +0.262 C 
ATOM     27  O   UNL     1      -8.416  -1.803   0.730  0.00  0.00    -0.269 OA
ATOM     28  H   UNL     1      -7.166   1.019   0.606  0.00  0.00    +0.173 HD
BRANCH  26  29
ATOM     29  C   UNL     1      -9.627   0.191   0.852  0.00  0.00    +0.057 A 
ATOM     30  C   UNL     1      -9.588   1.587   0.842  0.00  0.00    +0.016 A 
ATOM     31  C   UNL     1     -10.756   2.308   0.959  0.00  0.00    +0.021 A 
ATOM     32  C   UNL     1     -11.970   1.651   1.085  0.00  0.00    +0.042 A 
ATOM     33  C   UNL     1     -12.018   0.268   1.095  0.00  0.00    +0.040 A 
ATOM     34  C   UNL     1     -10.854  -0.466   0.974  0.00  0.00    +0.054 A 
ATOM     35 CL   UNL     1     -10.915  -2.201   0.980  0.00  0.00    -0.083 Cl
ATOM     36 CL   UNL     1     -13.437   2.567   1.231  0.00  0.00    -0.083 Cl
ENDBRANCH  26  29
ENDBRANCH  23  25
ENDBRANCH   4  23
TORSDOF 6
