REMARK  Name = ZINC02107548
REMARK  14 active torsions:
REMARK  status: ('A' for Active; 'I' for Inactive)
REMARK    1  A    between atoms: C_1  and  C_2
REMARK    2  A    between atoms: C_3  and  C_35
REMARK    3  A    between atoms: C_9  and  C_34
REMARK    4  A    between atoms: C_10  and  C_17
REMARK    5  A    between atoms: C_15  and  C_16
REMARK    6  A    between atoms: C_17  and  C_18
REMARK    7  A    between atoms: C_18  and  C_19
REMARK    8  A    between atoms: N_21  and  C_22
REMARK    9  A    between atoms: C_22  and  C_23
REMARK   10  A    between atoms: N_25  and  CA_26
REMARK   11  A    between atoms: CA_26  and  CB_28
REMARK   12  A    between atoms: CA_26  and  C_32
REMARK   13  A    between atoms: CB_28  and  CG1_30
REMARK   14  A    between atoms: CB_28  and  CG2_31
REMARK                            x       y       z     vdW  Elec       q    Type
REMARK                         _______ _______ _______ _____ _____    ______ ____
ROOT
ATOM      1  C   UNK A   0      13.027  -6.180  -2.348  0.00  0.00    +0.048 C 
ATOM      2  C   UNK A   0      12.803  -5.457  -3.651  0.00  0.00    -0.002 A 
ATOM      3  C   UNK A   0      13.318  -5.774  -4.845  0.00  0.00    +0.106 A 
ATOM      4  O   UNK A   0      12.899  -4.903  -5.780  0.00  0.00    -0.459 OA
ATOM      5  C   UNK A   0      12.086  -3.971  -5.241  0.00  0.00    +0.142 A 
ATOM      6  C   UNK A   0      11.975  -4.262  -3.866  0.00  0.00    +0.024 A 
ATOM      7  C   UNK A   0      11.194  -3.467  -3.039  0.00  0.00    +0.023 A 
ATOM      8  C   UNK A   0      10.520  -2.373  -3.582  0.00  0.00    +0.022 A 
ATOM      9  C   UNK A   0       9.692  -1.508  -2.736  0.00  0.00    -0.030 A 
ATOM     10  C   UNK A   0       9.054  -0.461  -3.320  0.00  0.00    +0.041 A 
ATOM     11  C   UNK A   0       9.209  -0.228  -4.703  0.00  0.00    +0.341 A 
ATOM     12  O   UNK A   0       8.634   0.718  -5.212  0.00  0.00    -0.245 OA
ATOM     13  O   UNK A   0       9.972  -1.019  -5.472  0.00  0.00    -0.422 OA
ATOM     14  C   UNK A   0      10.631  -2.082  -4.957  0.00  0.00    +0.146 A 
ATOM     15  C   UNK A   0      11.412  -2.882  -5.773  0.00  0.00    +0.035 A 
ATOM     16  C   UNK A   0      11.530  -2.570  -7.243  0.00  0.00    +0.051 C 
ATOM     17  C   UNK A   0       9.549  -1.776  -1.260  0.00  0.00    +0.045 C 
ATOM     18  C   UNK A   0      14.237  -6.940  -5.104  0.00  0.00    +0.086 C 
ENDROOT
BRANCH  10  19
ATOM     19  C   UNK A   0       8.188   0.452  -2.492  0.00  0.00    +0.052 C 
BRANCH  19  20
ATOM     20  C   UNK A   0       6.752  -0.077  -2.481  0.00  0.00    +0.100 C 
BRANCH  20  21
ATOM     21  C   UNK A   0       5.886   0.836  -1.653  0.00  0.00    +0.214 C 
ATOM     22  O   UNK A   0       6.369   1.815  -1.123  0.00  0.00    -0.276 OA
ATOM     23  N   UNK A   0       4.574   0.566  -1.500  0.00  0.00    -0.307 N 
ATOM     24  H   UNK A   0       4.188  -0.216  -1.924  0.00  0.00    +0.149 HD
BRANCH  23  25
ATOM     25  C   UNK A   0       3.732   1.454  -0.695  0.00  0.00    +0.200 C 
BRANCH  25  26
ATOM     26  C   UNK A   0       2.318   0.933  -0.685  0.00  0.00    +0.231 C 
ATOM     27  O   UNK A   0       2.042  -0.081  -1.290  0.00  0.00    -0.274 OA
ATOM     28  N   VAL A   1       1.362   1.593  -0.002  0.00  0.00    -0.301 N 
ATOM     29  H   VAL A   1       1.583   2.404   0.482  0.00  0.00    +0.150 HD
BRANCH  28  30
ATOM     30  CA  VAL A   1      -0.013   1.086   0.008  0.00  0.00    +0.189 C 
BRANCH  30  31
ATOM     31  CB  VAL A   1      -0.729   1.579   1.267  0.00  0.00    +0.014 C 
ATOM     32  CG1 VAL A   1      -2.164   1.050   1.278  0.00  0.00    +0.009 C 
ATOM     33  CG2 VAL A   1       0.011   1.072   2.506  0.00  0.00    +0.009 C 
ENDBRANCH  30  31
BRANCH  30  34
ATOM     34  C   VAL A   1      -0.742   1.585  -1.213  0.00  0.00    +0.376 C 
ATOM     35  O   VAL A   1      -0.172   2.292  -2.010  0.00  0.00    -0.244 OA
ATOM     36  OXT VAL A   1      -2.024   1.244  -1.415  0.00  0.00    -0.244 OA
ENDBRANCH  30  34
ENDBRANCH  28  30
ENDBRANCH  25  26
ENDBRANCH  23  25
ENDBRANCH  20  21
ENDBRANCH  19  20
ENDBRANCH  10  19
TORSDOF 8
