REMARK  Name = ZINC45626234
REMARK  5 active torsions:
REMARK  status: ('A' for Active; 'I' for Inactive)
REMARK    1  A    between atoms: C_4  and  N_7
REMARK    2  A    between atoms: C_8  and  C_9
REMARK    3  A    between atoms: N_19  and  N_20
REMARK    4  A    between atoms: C_21  and  C_22
REMARK    5  A    between atoms: C_27  and  O_28
REMARK                            x       y       z     vdW  Elec       q    Type
REMARK                         _______ _______ _______ _____ _____    ______ ____
ROOT
ATOM      1  N   UNL     1       3.834  -0.649   0.001  0.00  0.00    -0.297 N 
ATOM      2  C   UNL     1       3.633  -2.006   0.173  0.00  0.00    +0.160 C 
ATOM      3  N   UNL     1       2.601  -2.595  -0.391  0.00  0.00    -0.261 N 
ATOM      4  H   UNL     1       1.923  -2.064  -0.837  0.00  0.00    +0.190 HD
ATOM      5  H   UNL     1       4.638  -0.230   0.345  0.00  0.00    +0.154 HD
ENDROOT
BRANCH   2   6
ATOM      6  C   UNL     1       4.575  -2.791   0.987  0.00  0.00    +0.172 A 
ATOM      7  N   UNL     1       4.348  -4.062   1.452  0.00  0.00    -0.336 N 
ATOM      8  H   UNL     1       3.552  -4.596   1.307  0.00  0.00    +0.167 HD
ATOM      9  C   UNL     1       5.467  -4.436   2.166  0.00  0.00    +0.067 A 
ATOM     10  C   UNL     1       5.827  -5.583   2.861  0.00  0.00    +0.028 A 
ATOM     11  C   UNL     1       7.054  -5.647   3.487  0.00  0.00    +0.002 A 
ATOM     12  C   UNL     1       7.932  -4.572   3.426  0.00  0.00    +0.002 A 
ATOM     13  C   UNL     1       7.597  -3.436   2.749  0.00  0.00    +0.030 A 
ATOM     14  C   UNL     1       6.357  -3.347   2.105  0.00  0.00    +0.090 A 
ATOM     15  N   UNL     1       5.762  -2.385   1.373  0.00  0.00    -0.225 NA
ENDBRANCH   2   6
BRANCH   1  19
ATOM     16  C   UNL     1       0.985   1.640  -1.995  0.00  0.00    +0.000 A 
ATOM     17  C   UNL     1       0.585   0.704  -1.059  0.00  0.00    +0.002 A 
ATOM     18  C   UNL     1       1.527  -0.057  -0.395  0.00  0.00    +0.023 A 
ATOM     19  C   UNL     1       2.878   0.119  -0.669  0.00  0.00    +0.032 A 
ATOM     20  C   UNL     1       3.276   1.060  -1.611  0.00  0.00    +0.023 A 
ATOM     21  C   UNL     1       2.329   1.817  -2.271  0.00  0.00    +0.002 A 
ENDBRANCH   1  19
BRANCH   3  22
ATOM     22  N   UNL     1       2.490  -3.880  -0.352  0.00  0.00    -0.180 NA
ATOM     23  C   UNL     1       1.414  -4.459  -0.820  0.00  0.00    +0.144 C 
BRANCH  23  24
ATOM     24  C   UNL     1       1.353  -5.923  -0.920  0.00  0.00    +0.037 A 
ATOM     25  C   UNL     1       0.196  -6.548  -1.400  0.00  0.00    +0.028 A 
ATOM     26  C   UNL     1       0.146  -7.923  -1.492  0.00  0.00    +0.019 A 
ATOM     27  C   UNL     1       1.237  -8.689  -1.112  0.00  0.00    +0.019 A 
ATOM     28  C   UNL     1       2.385  -8.084  -0.636  0.00  0.00    +0.047 A 
ATOM     29  C   UNL     1       2.456  -6.704  -0.541  0.00  0.00    +0.126 A 
ATOM     30 BR   UNL     1      -1.417  -8.767  -2.140  0.00  0.00    -0.050 Br
BRANCH  29  31
ATOM     31  O   UNL     1       3.586  -6.110  -0.079  0.00  0.00    -0.506 OA
ATOM     32  H   UNL     1       3.649  -6.082   0.885  0.00  0.00    +0.292 HD
ENDBRANCH  29  31
ENDBRANCH  23  24
ENDBRANCH   3  22
TORSDOF 5
