REMARK  Name = ZINC36582192
REMARK  17 active torsions:
REMARK  status: ('A' for Active; 'I' for Inactive)
REMARK    1  A    between atoms: C_1  and  C_2
REMARK    2  A    between atoms: C_2  and  C_3
REMARK    3  A    between atoms: C_3  and  C_4
REMARK    4  A    between atoms: C_4  and  C_5
REMARK    5  A    between atoms: C_5  and  C_6
REMARK    6  A    between atoms: C_7  and  C_8
REMARK    7  A    between atoms: N_10  and  C_11
REMARK    8  A    between atoms: N_10  and  C_28
REMARK    9  A    between atoms: C_11  and  C_13
REMARK   10  A    between atoms: C_11  and  C_21
REMARK   11  A    between atoms: N_23  and  C_24
REMARK   12  A    between atoms: C_24  and  C_25
REMARK   13  A    between atoms: C_25  and  C_26
REMARK   14  A    between atoms: C_26  and  C_27
REMARK   15  A    between atoms: C_28  and  C_29
REMARK   16  A    between atoms: C_28  and  C_30
REMARK   17  A    between atoms: C_28  and  C_31
REMARK                            x       y       z     vdW  Elec       q    Type
REMARK                         _______ _______ _______ _____ _____    ______ ____
ROOT
ATOM      1  C   UNL     1      -5.682  -3.892   4.305  0.00  0.00    +0.196 C 
ENDROOT
BRANCH   1   2
ATOM      2  C   UNL     1      -6.159  -2.662   3.577  0.00  0.00    +0.018 A 
ATOM      3  C   UNL     1      -5.432  -2.164   2.510  0.00  0.00    +0.048 A 
ATOM      4  C   UNL     1      -5.871  -1.034   1.842  0.00  0.00    +0.020 A 
ATOM      5  C   UNL     1      -7.034  -0.403   2.241  0.00  0.00    +0.003 A 
ATOM      6  C   UNL     1      -7.760  -0.900   3.307  0.00  0.00    +0.020 A 
ATOM      7  C   UNL     1      -7.326  -2.033   3.972  0.00  0.00    +0.048 A 
ATOM      8 CL   UNL     1      -8.242  -2.662   5.306  0.00  0.00    -0.083 Cl
ATOM      9 CL   UNL     1      -3.971  -2.956   2.010  0.00  0.00    -0.083 Cl
ENDBRANCH   1   2
BRANCH   1  10
ATOM     10  C   UNL     1      -4.293  -3.654   4.838  0.00  0.00    +0.238 C 
ATOM     11  O   UNL     1      -3.334  -4.132   4.269  0.00  0.00    -0.273 OA
ATOM     12  N   UNL     1      -4.115  -2.909   5.947  0.00  0.00    -0.313 N 
ATOM     13  H   UNL     1      -4.882  -2.526   6.402  0.00  0.00    +0.149 HD
BRANCH  12  14
ATOM     14  C   UNL     1      -2.765  -2.677   6.466  0.00  0.00    +0.104 C 
BRANCH  14  15
ATOM     15  C   UNL     1      -2.843  -1.807   7.722  0.00  0.00    +0.018 C 
BRANCH  15  16
ATOM     16  C   UNL     1      -1.433  -1.565   8.264  0.00  0.00    -0.002 C 
ATOM     17  C   UNL     1      -1.512  -0.695   9.520  0.00  0.00    +0.004 C 
ENDBRANCH  15  16
ENDBRANCH  14  15
ENDBRANCH  12  14
ENDBRANCH   1  10
BRANCH   1  20
ATOM     18  C   UNL     1      -6.035  -4.861   2.097  0.00  0.00    +0.240 C 
ATOM     19  O   UNL     1      -6.493  -3.795   1.732  0.00  0.00    -0.271 OA
ATOM     20  N   UNL     1      -5.662  -5.029   3.381  0.00  0.00    -0.277 N 
BRANCH  20  21
ATOM     21  C   UNL     1      -5.235  -6.349   3.853  0.00  0.00    +0.030 C 
ATOM     22  C   UNL     1      -3.974  -6.777   3.100  0.00  0.00    +0.031 C 
ATOM     23  C   UNL     1      -4.938  -6.283   5.352  0.00  0.00    +0.031 C 
ATOM     24  C   UNL     1      -6.350  -7.366   3.598  0.00  0.00    +0.031 C 
ENDBRANCH  20  21
BRANCH  18  26
ATOM     25  C   UNL     1      -6.125  -5.760  -0.155  0.00  0.00    -0.022 C 
ATOM     26  C   UNL     1      -5.888  -5.966   1.137  0.00  0.00    +0.063 C 
BRANCH  25  27
ATOM     27  C   UNL     1      -6.225  -4.354  -0.689  0.00  0.00    +0.027 C 
BRANCH  27  28
ATOM     28  C   UNL     1      -5.341  -4.215  -1.929  0.00  0.00    +0.004 C 
BRANCH  28  29
ATOM     29  C   UNL     1      -5.442  -2.788  -2.471  0.00  0.00    +0.000 C 
BRANCH  29  31
ATOM     30  C   UNL     1      -4.660  -1.221  -4.253  0.00  0.00    +0.004 C 
ATOM     31  C   UNL     1      -4.558  -2.649  -3.711  0.00  0.00    -0.003 C 
ENDBRANCH  29  31
ENDBRANCH  28  29
ENDBRANCH  27  28
ENDBRANCH  25  27
ENDBRANCH  18  26
ENDBRANCH   1  20
TORSDOF 12
