REMARK  Name = ZINC08579683
REMARK  25 active torsions:
REMARK  status: ('A' for Active; 'I' for Inactive)
REMARK    1  A    between atoms: C_1  and  C_2
REMARK    2  A    between atoms: C_2  and  C_3
REMARK    3  A    between atoms: C_2  and  C_4
REMARK    4  A    between atoms: C_4  and  C_5
REMARK    5  A    between atoms: C_5  and  C_7
REMARK    6  A    between atoms: C_5  and  O_8
REMARK    7  A    between atoms: O_8  and  C_9
REMARK    8  A    between atoms: C_9  and  C_11
REMARK    9  A    between atoms: C_11  and  C_12
REMARK   10  A    between atoms: C_12  and  C_24
REMARK   11  A    between atoms: C_13  and  C_14
REMARK   12  A    between atoms: C_14  and  O_16
REMARK   13  A    between atoms: O_16  and  C_17
REMARK   14  A    between atoms: C_17  and  C_19
REMARK   15  A    between atoms: C_17  and  C_20
REMARK   16  A    between atoms: C_20  and  C_21
REMARK   17  A    between atoms: C_21  and  C_22
REMARK   18  A    between atoms: C_21  and  C_23
REMARK   19  A    between atoms: C_24  and  O_26
REMARK   20  A    between atoms: O_26  and  C_27
REMARK   21  A    between atoms: C_27  and  C_29
REMARK   22  A    between atoms: C_27  and  C_30
REMARK   23  A    between atoms: C_30  and  C_31
REMARK   24  A    between atoms: C_31  and  C_32
REMARK   25  A    between atoms: C_31  and  C_33
REMARK                            x       y       z     vdW  Elec       q    Type
REMARK                         _______ _______ _______ _____ _____    ______ ____
ROOT
ATOM      1  C   UNL     1      -3.122  -1.639  -0.503  0.00  0.00    +0.054 C 
ATOM      2  C   UNL     1      -3.109  -0.372  -0.058  0.00  0.00    +0.102 C 
ENDROOT
BRANCH   2   3
ATOM      3  C   UNL     1      -1.824   0.316   0.175  0.00  0.00    +0.333 C 
ATOM      4  O   UNL     1      -0.780  -0.290   0.047  0.00  0.00    -0.246 OA
BRANCH   3   5
ATOM      5  O   UNL     1      -1.810   1.615   0.530  0.00  0.00    -0.459 OA
BRANCH   5   6
ATOM      6  C   UNL     1      -0.511   2.227   0.743  0.00  0.00    +0.174 C 
ATOM      7  C   UNL     1      -0.103   2.062   2.208  0.00  0.00    +0.052 C 
BRANCH   6   8
ATOM      8  C   UNL     1      -0.585   3.716   0.398  0.00  0.00    +0.047 C 
BRANCH   8   9
ATOM      9  C   UNL     1      -0.862   3.880  -1.098  0.00  0.00    -0.014 C 
ATOM     10  C   UNL     1      -1.058   5.362  -1.420  0.00  0.00    +0.007 C 
ATOM     11  C   UNL     1       0.322   3.336  -1.899  0.00  0.00    +0.007 C 
ENDBRANCH   8   9
ENDBRANCH   6   8
ENDBRANCH   5   6
ENDBRANCH   3   5
ENDBRANCH   2   3
BRANCH   1  12
ATOM     12  C   UNL     1      -1.851  -2.339  -0.773  0.00  0.00    +0.336 C 
ATOM     13  O   UNL     1      -1.404  -3.122   0.040  0.00  0.00    -0.245 OA
BRANCH  12  14
ATOM     14  O   UNL     1      -1.186  -2.109  -1.922  0.00  0.00    -0.458 OA
BRANCH  14  15
ATOM     15  C   UNL     1       0.057  -2.832  -2.121  0.00  0.00    +0.174 C 
ATOM     16  C   UNL     1       1.220  -2.013  -1.556  0.00  0.00    +0.052 C 
BRANCH  15  17
ATOM     17  C   UNL     1       0.278  -3.066  -3.617  0.00  0.00    +0.047 C 
BRANCH  17  18
ATOM     18  C   UNL     1      -0.854  -3.935  -4.169  0.00  0.00    -0.014 C 
ATOM     19  C   UNL     1      -0.709  -4.057  -5.688  0.00  0.00    +0.007 C 
ATOM     20  C   UNL     1      -0.785  -5.326  -3.537  0.00  0.00    +0.007 C 
ENDBRANCH  17  18
ENDBRANCH  15  17
ENDBRANCH  14  15
ENDBRANCH  12  14
ENDBRANCH   1  12
BRANCH   1  21
ATOM     21  C   UNL     1      -4.434  -2.346  -0.727  0.00  0.00    +0.163 C 
BRANCH  21  22
ATOM     22  C   UNL     1      -4.835  -2.214  -2.173  0.00  0.00    +0.312 C 
ATOM     23  O   UNL     1      -4.129  -1.608  -2.943  0.00  0.00    -0.250 OA
BRANCH  22  24
ATOM     24  O   UNL     1      -5.978  -2.770  -2.606  0.00  0.00    -0.461 OA
BRANCH  24  25
ATOM     25  C   UNL     1      -6.302  -2.603  -4.011  0.00  0.00    +0.174 C 
ATOM     26  C   UNL     1      -7.124  -1.326  -4.197  0.00  0.00    +0.052 C 
BRANCH  25  27
ATOM     27  C   UNL     1      -7.112  -3.807  -4.495  0.00  0.00    +0.047 C 
BRANCH  27  29
ATOM     28  C   UNL     1      -7.092  -6.287  -4.790  0.00  0.00    +0.007 C 
ATOM     29  C   UNL     1      -6.246  -5.066  -4.426  0.00  0.00    -0.014 C 
ATOM     30  C   UNL     1      -5.083  -4.939  -5.412  0.00  0.00    +0.007 C 
ENDBRANCH  27  29
ENDBRANCH  25  27
ENDBRANCH  24  25
ENDBRANCH  22  24
ENDBRANCH  21  22
ENDBRANCH   1  21
TORSDOF 16
