REMARK  Name = ZINC14703543
REMARK  7 active torsions:
REMARK  status: ('A' for Active; 'I' for Inactive)
REMARK    1  A    between atoms: N_9  and  C_26
REMARK    2  A    between atoms: C_10  and  S_12
REMARK    3  A    between atoms: S_12  and  C_13
REMARK    4  A    between atoms: C_13  and  C_14
REMARK    5  A    between atoms: N_16  and  C_17
REMARK    6  A    between atoms: C_20  and  C_24
REMARK    7  A    between atoms: C_29  and  C_32
REMARK                            x       y       z     vdW  Elec       q    Type
REMARK                         _______ _______ _______ _____ _____    ______ ____
ROOT
ATOM      1  C   UNL     1       1.032   1.936   1.397  0.00  0.00    +0.001 A 
ATOM      2  C   UNL     1       0.003   2.213   0.506  0.00  0.00    +0.002 A 
ATOM      3  C   UNL     1      -0.668   1.206  -0.128  0.00  0.00    +0.028 A 
ATOM      4  C   UNL     1      -0.315  -0.124   0.119  0.00  0.00    +0.079 A 
ATOM      5  C   UNL     1       0.734  -0.402   1.025  0.00  0.00    +0.065 A 
ATOM      6  C   UNL     1       1.401   0.646   1.659  0.00  0.00    +0.015 A 
ATOM      7  C   UNL     1       1.086  -1.807   1.269  0.00  0.00    +0.267 A 
ATOM      8  O   UNL     1       1.980  -2.109   2.039  0.00  0.00    -0.267 OA
ATOM      9  N   UNL     1       0.381  -2.753   0.607  0.00  0.00    -0.255 N 
ATOM     10  C   UNL     1      -0.621  -2.397  -0.254  0.00  0.00    +0.177 A 
ATOM     11  N   UNL     1      -0.953  -1.152  -0.487  0.00  0.00    -0.223 NA
ENDROOT
BRANCH   9  12
ATOM     12  C   UNL     1       0.678  -4.104   0.805  0.00  0.00    +0.052 A 
ATOM     13  C   UNL     1       1.588  -4.744  -0.030  0.00  0.00    +0.027 A 
ATOM     14  C   UNL     1       1.887  -6.074   0.164  0.00  0.00    +0.021 A 
ATOM     15  C   UNL     1       1.267  -6.784   1.196  0.00  0.00    +0.052 A 
ATOM     16  C   UNL     1       0.350  -6.139   2.030  0.00  0.00    +0.021 A 
ATOM     17  C   UNL     1       0.059  -4.808   1.832  0.00  0.00    +0.027 A 
BRANCH  15  18
ATOM     18  C   UNL     1       1.571  -8.169   1.398  0.00  0.00    +0.099 C 
ATOM     19  N   UNL     1       1.812  -9.267   1.558  0.00  0.00    -0.191 NA
ENDBRANCH  15  18
ENDBRANCH   9  12
BRANCH  10  20
ATOM     20  S   UNL     1      -1.504  -3.673  -1.088  0.00  0.00    -0.078 S 
BRANCH  20  21
ATOM     21  C   UNL     1      -2.662  -2.673  -2.056  0.00  0.00    +0.173 C 
BRANCH  21  22
ATOM     22  C   UNL     1      -3.546  -3.579  -2.874  0.00  0.00    +0.227 C 
ATOM     23  O   UNL     1      -3.408  -4.782  -2.809  0.00  0.00    -0.275 OA
ATOM     24  N   UNL     1      -4.491  -3.052  -3.678  0.00  0.00    -0.285 N 
ATOM     25  H   UNL     1      -4.651  -2.095  -3.675  0.00  0.00    +0.155 HD
BRANCH  24  26
ATOM     26  C   UNL     1      -5.238  -3.882  -4.514  0.00  0.00    +0.035 A 
ATOM     27  C   UNL     1      -4.650  -5.011  -5.077  0.00  0.00    +0.024 A 
ATOM     28  C   UNL     1      -5.384  -5.836  -5.898  0.00  0.00    +0.022 A 
ATOM     29  C   UNL     1      -6.720  -5.533  -6.176  0.00  0.00    +0.070 A 
ATOM     30  C   UNL     1      -7.307  -4.394  -5.614  0.00  0.00    +0.060 A 
ATOM     31  C   UNL     1      -6.566  -3.576  -4.788  0.00  0.00    +0.044 A 
ATOM     32 CL   UNL     1      -8.966  -4.012  -5.956  0.00  0.00    -0.082 Cl
BRANCH  29  33
ATOM     33  C   UNL     1      -7.486  -6.385  -7.035  0.00  0.00    +0.101 C 
ATOM     34  N   UNL     1      -8.093  -7.061  -7.717  0.00  0.00    -0.191 NA
ENDBRANCH  29  33
ENDBRANCH  24  26
ENDBRANCH  21  22
ENDBRANCH  20  21
ENDBRANCH  10  20
TORSDOF 7
