REMARK  Name = ZINC09884608
REMARK  6 active torsions:
REMARK  status: ('A' for Active; 'I' for Inactive)
REMARK    1  A    between atoms: C_1  and  C_2
REMARK    2  A    between atoms: C_3  and  C_29
REMARK    3  A    between atoms: C_9  and  C_12
REMARK    4  A    between atoms: N_14  and  C_15
REMARK    5  A    between atoms: C_19  and  S_21
REMARK    6  A    between atoms: S_21  and  N_24
REMARK                            x       y       z     vdW  Elec       q    Type
REMARK                         _______ _______ _______ _____ _____    ______ ____
ROOT
ATOM      1  C   UNL     1       3.709   0.551  -2.853  0.00  0.00    +0.036 A 
ATOM      2  C   UNL     1       3.467   1.364  -3.953  0.00  0.00    +0.023 A 
ATOM      3  C   UNL     1       2.600   2.432  -3.844  0.00  0.00    +0.004 A 
ATOM      4  C   UNL     1       1.972   2.695  -2.640  0.00  0.00    +0.029 A 
ATOM      5  C   UNL     1       2.210   1.888  -1.542  0.00  0.00    +0.110 A 
ATOM      6  C   UNL     1       3.081   0.821  -1.644  0.00  0.00    +0.052 A 
ENDROOT
BRANCH   1   9
ATOM      7  C   UNL     1       4.655  -1.232  -4.109  0.00  0.00    +0.248 C 
ATOM      8  O   UNL     1       4.016  -0.873  -5.080  0.00  0.00    -0.270 OA
ATOM      9  N   UNL     1       4.587  -0.532  -2.960  0.00  0.00    -0.281 N 
ATOM     10  H   UNL     1       5.147  -0.778  -2.208  0.00  0.00    +0.155 HD
BRANCH   7  19
ATOM     11  C   UNL     1       6.145  -5.270  -7.898  0.00  0.00    +0.046 C 
ATOM     12  C   UNL     1       6.688  -5.267  -6.492  0.00  0.00    -0.022 A 
ATOM     13  C   UNL     1       7.543  -6.156  -5.964  0.00  0.00    +0.017 A 
ATOM     14  N   UNL     1       7.810  -5.831  -4.662  0.00  0.00    -0.358 N 
ATOM     15  H   UNL     1       8.402  -6.328  -4.074  0.00  0.00    +0.166 HD
ATOM     16  C   UNL     1       7.117  -4.699  -4.309  0.00  0.00    +0.047 A 
ATOM     17  C   UNL     1       6.382  -4.293  -5.441  0.00  0.00    +0.004 A 
ATOM     18  C   UNL     1       5.576  -3.160  -5.378  0.00  0.00    +0.023 A 
ATOM     19  C   UNL     1       5.506  -2.436  -4.190  0.00  0.00    +0.038 A 
ATOM     20  C   UNL     1       6.246  -2.847  -3.073  0.00  0.00    +0.015 A 
ATOM     21  C   UNL     1       7.033  -3.959  -3.131  0.00  0.00    +0.027 A 
ATOM     22  C   UNL     1       8.125  -7.337  -6.698  0.00  0.00    +0.063 C 
ENDBRANCH   7  19
ENDBRANCH   1   9
BRANCH   5  23
ATOM     23  S   UNL     1       1.408   2.227  -0.010  0.00  0.00    +0.073 S 
ATOM     24  O   UNL     1       1.068   3.606  -0.026  0.00  0.00    -0.150 OA
ATOM     25  O   UNL     1       2.217   1.654   1.007  0.00  0.00    -0.150 OA
BRANCH  23  26
ATOM     26  N   UNL     1      -0.019   1.387  -0.009  0.00  0.00    -0.205 N 
ATOM     27  C   UNL     1      -0.009   0.017  -0.018  0.00  0.00    +0.088 C 
ATOM     28  C   UNL     1       0.760  -2.140  -0.034  0.00  0.00    +0.114 C 
ATOM     29  C   UNL     1      -0.727  -2.243  -0.446  0.00  0.00    +0.028 C 
ATOM     30  C   UNL     1      -1.248  -0.849  -0.012  0.00  0.00    +0.072 C 
ATOM     31  H   UNL     1      -0.863   1.866  -0.006  0.00  0.00    +0.175 HD
ATOM     32  N   UNL     1       1.075  -0.695  -0.028  0.00  0.00    -0.375 N 
ATOM     33  H   UNL     1       2.026  -0.308  -0.031  0.00  0.00    +0.161 HD
ENDBRANCH  23  26
ENDBRANCH   5  23
TORSDOF 4
