REMARK  Name = ZINC23554727
REMARK  9 active torsions:
REMARK  status: ('A' for Active; 'I' for Inactive)
REMARK    1  A    between atoms: C_1  and  N_2
REMARK    2  A    between atoms: N_2  and  C_3
REMARK    3  A    between atoms: N_2  and  S_9
REMARK    4  A    between atoms: S_9  and  C_12
REMARK    5  A    between atoms: C_16  and  C_18
REMARK    6  A    between atoms: N_20  and  C_21
REMARK    7  A    between atoms: C_21  and  C_22
REMARK    8  A    between atoms: C_22  and  C_24
REMARK    9  A    between atoms: C_22  and  N_29
REMARK                            x       y       z     vdW  Elec       q    Type
REMARK                         _______ _______ _______ _____ _____    ______ ____
ROOT
ATOM      1  C   UNL     1      16.889  -4.439  -1.897  0.00  0.00    +0.109 A 
ATOM      2  C   UNL     1      18.023  -3.799  -1.429  0.00  0.00    +0.029 A 
ATOM      3  C   UNL     1      18.287  -2.491  -1.793  0.00  0.00    +0.003 A 
ATOM      4  C   UNL     1      17.419  -1.815  -2.626  0.00  0.00    +0.013 A 
ATOM      5  C   UNL     1      16.273  -2.454  -3.101  0.00  0.00    +0.039 A 
ATOM      6  C   UNL     1      16.010  -3.772  -2.725  0.00  0.00    +0.041 A 
ENDROOT
BRANCH   5   7
ATOM      7  C   UNL     1      15.338  -1.735  -3.992  0.00  0.00    +0.244 C 
ATOM      8  O   UNL     1      14.340  -2.294  -4.405  0.00  0.00    -0.270 OA
ATOM      9  N   UNL     1      15.591  -0.460  -4.348  0.00  0.00    -0.313 N 
ATOM     10  H   UNL     1      16.494   0.046  -3.975  0.00  0.00    +0.149 HD
BRANCH   9  11
ATOM     11  C   UNL     1      14.665   0.252  -5.232  0.00  0.00    +0.094 C 
BRANCH  11  12
ATOM     12  C   UNL     1      15.247   1.622  -5.583  0.00  0.00    -0.013 C 
BRANCH  12  13
ATOM     13  N   UNL     1      14.262   2.389  -6.359  0.00  0.00    +0.386 N 
ATOM     14  C   UNL     1      13.013   2.590  -5.581  0.00  0.00    -0.078 C 
ATOM     15  C   UNL     1      12.348   3.800  -6.285  0.00  0.00    -0.020 C 
ATOM     16  C   UNL     1      13.556   4.693  -6.650  0.00  0.00    -0.020 C 
ATOM     17  C   UNL     1      14.768   3.744  -6.667  0.00  0.00    -0.078 C 
ATOM     18  H   UNL     1      14.084   1.807  -7.275  0.00  0.00    -0.081 HD
ENDBRANCH  12  13
BRANCH  12  19
ATOM     19  C   UNL     1      16.500   1.441  -6.402  0.00  0.00    -0.022 A 
ATOM     20  C   UNL     1      17.794   1.503  -6.006  0.00  0.00    +0.009 A 
ATOM     21  C   UNL     1      18.792   1.302  -6.941  0.00  0.00    +0.008 A 
ATOM     22  C   UNL     1      18.446   1.048  -8.227  0.00  0.00    +0.045 A 
ATOM     23  S   UNL     1      16.663   1.089  -8.144  0.00  0.00    -0.103 S 
ENDBRANCH  12  19
ENDBRANCH  11  12
ENDBRANCH   9  11
ENDBRANCH   5   7
BRANCH   1  24
ATOM     24  S   UNL     1      16.562  -6.105  -1.427  0.00  0.00    +0.074 S 
ATOM     25  O   UNL     1      15.690  -6.641  -2.412  0.00  0.00    -0.150 OA
ATOM     26  O   UNL     1      17.818  -6.694  -1.120  0.00  0.00    -0.150 OA
BRANCH  24  28
ATOM     27  C   UNL     1      16.409  -5.973   1.270  0.00  0.00    +0.157 C 
ATOM     28  N   UNL     1      15.704  -6.055  -0.011  0.00  0.00    -0.206 N 
BRANCH  28  29
ATOM     29  C   UNL     1      14.308  -6.092  -0.039  0.00  0.00    +0.051 A 
ATOM     30  C   UNL     1      13.597  -5.070  -0.655  0.00  0.00    +0.025 A 
ATOM     31  C   UNL     1      12.217  -5.112  -0.685  0.00  0.00    +0.002 A 
ATOM     32  C   UNL     1      11.542  -6.164  -0.094  0.00  0.00    +0.000 A 
ATOM     33  C   UNL     1      12.247  -7.181   0.524  0.00  0.00    +0.002 A 
ATOM     34  C   UNL     1      13.627  -7.148   0.553  0.00  0.00    +0.025 A 
ENDBRANCH  28  29
ENDBRANCH  24  28
ENDBRANCH   1  24
TORSDOF 8
