REMARK  Name = ZINC64774465
REMARK  9 active torsions:
REMARK  status: ('A' for Active; 'I' for Inactive)
REMARK    1  A    between atoms: C_1  and  C_2
REMARK    2  A    between atoms: C_4  and  C_31
REMARK    3  A    between atoms: C_5  and  N_27
REMARK    4  A    between atoms: C_6  and  C_8
REMARK    5  A    between atoms: C_12  and  S_15
REMARK    6  A    between atoms: S_15  and  C_16
REMARK    7  A    between atoms: C_16  and  C_17
REMARK    8  A    between atoms: N_19  and  C_20
REMARK    9  A    between atoms: C_28  and  C_30
REMARK                            x       y       z     vdW  Elec       q    Type
REMARK                         _______ _______ _______ _____ _____    ______ ____
ROOT
ATOM      1  C   UNL     1       0.428  -3.362   1.897  0.00  0.00    +0.161 A 
ATOM      2  C   UNL     1       0.692  -3.054   3.245  0.00  0.00    +0.300 A 
ATOM      3  O   UNL     1       0.676  -1.770   3.677  0.00  0.00    -0.263 OA
ATOM      4  N   UNL     1       0.956  -4.048   4.083  0.00  0.00    -0.180 NA
ATOM      5  C   UNL     1       0.965  -5.298   3.633  0.00  0.00    +0.213 A 
ATOM      6  N   UNL     1       0.713  -5.566   2.358  0.00  0.00    -0.122 NA
ATOM      7  N   UNL     1       0.448  -4.633   1.512  0.00  0.00    -0.141 NA
ENDROOT
BRANCH   1  13
ATOM      8  C   UNL     1       1.465   1.118  -0.041  0.00  0.00    +0.044 C 
ATOM      9  C   UNL     1       0.622  -0.131  -0.012  0.00  0.00    -0.049 A 
ATOM     10  C   UNL     1      -0.434  -0.271  -0.896  0.00  0.00    +0.008 A 
ATOM     11  C   UNL     1      -1.213  -1.411  -0.877  0.00  0.00    -0.028 A 
ATOM     12  C   UNL     1      -0.940  -2.425   0.029  0.00  0.00    +0.046 A 
ATOM     13  C   UNL     1       0.128  -2.286   0.924  0.00  0.00    +0.029 A 
ATOM     14  C   UNL     1       0.910  -1.133   0.892  0.00  0.00    +0.015 A 
ATOM     15  C   UNL     1      -2.361  -1.554  -1.843  0.00  0.00    +0.046 C 
BRANCH  12  16
ATOM     16  N   UNL     1      -1.727  -3.579   0.050  0.00  0.00    -0.285 N 
ATOM     17  C   UNL     1      -2.127  -4.101   1.226  0.00  0.00    +0.214 C 
ATOM     18  O   UNL     1      -1.852  -3.537   2.265  0.00  0.00    -0.276 OA
ATOM     19  C   UNL     1      -2.917  -5.384   1.252  0.00  0.00    +0.109 C 
ATOM     20  H   UNL     1      -1.985  -4.005  -0.782  0.00  0.00    +0.155 HD
ENDBRANCH  12  16
ENDBRANCH   1  13
BRANCH   5  21
ATOM     21  S   UNL     1       1.315  -6.618   4.745  0.00  0.00    -0.075 S 
BRANCH  21  22
ATOM     22  C   UNL     1       1.218  -8.103   3.708  0.00  0.00    +0.173 C 
BRANCH  22  23
ATOM     23  C   UNL     1       1.501  -9.322   4.548  0.00  0.00    +0.228 C 
ATOM     24  O   UNL     1       1.746  -9.201   5.730  0.00  0.00    -0.275 OA
ATOM     25  N   UNL     1       1.484 -10.547   3.986  0.00  0.00    -0.283 N 
ATOM     26  H   UNL     1       1.221 -10.651   3.058  0.00  0.00    +0.155 HD
BRANCH  25  27
ATOM     27  C   UNL     1       1.845 -11.669   4.741  0.00  0.00    +0.069 A 
ATOM     28  C   UNL     1       1.567 -11.712   6.101  0.00  0.00    +0.026 A 
ATOM     29  C   UNL     1       1.924 -12.820   6.843  0.00  0.00    +0.002 A 
ATOM     30  C   UNL     1       2.558 -13.888   6.235  0.00  0.00    +0.003 A 
ATOM     31  C   UNL     1       2.838 -13.850   4.881  0.00  0.00    +0.040 A 
ATOM     32  C   UNL     1       2.478 -12.746   4.130  0.00  0.00    +0.144 A 
ATOM     33  F   UNL     1       2.746 -12.711   2.807  0.00  0.00    -0.204 F 
ENDBRANCH  25  27
ENDBRANCH  22  23
ENDBRANCH  21  22
ENDBRANCH   5  21
TORSDOF 6
