REMARK  Name = ZINC13645719
REMARK  4 active torsions:
REMARK  status: ('A' for Active; 'I' for Inactive)
REMARK    1  A    between atoms: C_1  and  C_2
REMARK    2  A    between atoms: C_5  and  N_24
REMARK    3  A    between atoms: C_9  and  C_18
REMARK    4  A    between atoms: C_19  and  C_23
REMARK                            x       y       z     vdW  Elec       q    Type
REMARK                         _______ _______ _______ _____ _____    ______ ____
ROOT
ATOM      1  C   UNL     1      -1.630   5.706   1.490  0.00  0.00    +0.045 C 
ATOM      2  C   UNL     1      -1.595   5.003   0.158  0.00  0.00    -0.029 A 
ATOM      3  C   UNL     1      -2.283   5.530  -0.915  0.00  0.00    +0.007 A 
ATOM      4  C   UNL     1      -2.249   4.884  -2.137  0.00  0.00    +0.033 A 
ATOM      5  C   UNL     1      -1.529   3.716  -2.281  0.00  0.00    +0.132 A 
ATOM      6  C   UNL     1      -0.832   3.178  -1.207  0.00  0.00    +0.011 A 
ATOM      7  C   UNL     1      -0.866   3.823   0.015  0.00  0.00    +0.037 A 
ATOM      8  N   UNL     1      -0.189   3.333   1.131  0.00  0.00    -0.336 N 
ATOM      9  C   UNL     1      -0.035   1.862   1.090  0.00  0.00    +0.112 C 
ATOM     10  C   UNL     1       0.710   1.475  -0.178  0.00  0.00    +0.029 C 
ATOM     11  C   UNL     1      -0.070   1.900  -1.439  0.00  0.00    +0.051 C 
ATOM     12  C   UNL     1       1.030   2.184  -2.448  0.00  0.00    -0.023 C 
ATOM     13  C   UNL     1       2.164   2.423  -1.839  0.00  0.00    -0.030 C 
ATOM     14  C   UNL     1       1.988   2.334  -0.335  0.00  0.00    +0.033 C 
ATOM     15  H   UNL     1       0.710   3.780   1.234  0.00  0.00    +0.147 HD
ENDROOT
BRANCH   9  16
ATOM     16  C   UNL     1      -1.402   1.228   1.081  0.00  0.00    +0.013 A 
ATOM     17  C   UNL     1      -1.855   0.164   1.788  0.00  0.00    -0.038 A 
ATOM     18  C   UNL     1      -3.163  -0.247   1.617  0.00  0.00    +0.011 A 
ATOM     19  C   UNL     1      -3.956   0.426   0.748  0.00  0.00    +0.046 A 
ATOM     20  S   UNL     1      -2.849   1.689   0.141  0.00  0.00    -0.099 S 
ATOM     21  C   UNL     1      -0.945  -0.560   2.747  0.00  0.00    +0.044 C 
ENDBRANCH   9  16
BRANCH   5  22
ATOM     22  N   UNL     1      -1.498   3.030  -3.593  0.00  0.00    +0.057 N 
ATOM     23  O   UNL     1      -1.450   3.683  -4.620  0.00  0.00    -0.126 OA
ATOM     24  O   UNL     1      -1.520   1.814  -3.645  0.00  0.00    -0.126 OA
ENDBRANCH   5  22
TORSDOF 2
