REMARK  Name = ZINC13251377
REMARK  7 active torsions:
REMARK  status: ('A' for Active; 'I' for Inactive)
REMARK    1  A    between atoms: C_3  and  S_12
REMARK    2  A    between atoms: C_6  and  C_7
REMARK    3  A    between atoms: C_8  and  C_9
REMARK    4  A    between atoms: S_12  and  N_15
REMARK    5  A    between atoms: N_15  and  C_16
REMARK    6  A    between atoms: C_18  and  S_23
REMARK    7  A    between atoms: S_23  and  N_26
REMARK                            x       y       z     vdW  Elec       q    Type
REMARK                         _______ _______ _______ _____ _____    ______ ____
ROOT
ATOM      1  N   UNL     1       4.324   2.571   1.556  0.00  0.00    -0.212 N 
ATOM      2  H   UNL     1       4.353   3.471   1.915  0.00  0.00    +0.174 HD
ENDROOT
BRANCH   1   3
ATOM      3  C   UNL     1       4.553   1.475   2.396  0.00  0.00    +0.096 A 
ATOM      4  C   UNL     1       5.223   0.359   1.916  0.00  0.00    +0.057 A 
ATOM      5  C   UNL     1       5.449  -0.722   2.747  0.00  0.00    +0.107 A 
ATOM      6  C   UNL     1       5.007  -0.695   4.057  0.00  0.00    +0.032 A 
ATOM      7  C   UNL     1       4.338   0.414   4.542  0.00  0.00    +0.055 A 
ATOM      8  C   UNL     1       4.113   1.504   3.717  0.00  0.00    +0.201 A 
ATOM      9  O   UNL     1       3.460   2.597   4.195  0.00  0.00    -0.286 OA
BRANCH   5  10
ATOM     10  S   UNL     1       6.300  -2.138   2.135  0.00  0.00    +0.061 S 
ATOM     11  O   UNL     1       5.904  -3.233   2.950  0.00  0.00    -0.153 OA
ATOM     12  O   UNL     1       6.128  -2.138   0.725  0.00  0.00    -0.153 OA
BRANCH  10  13
ATOM     13  N   UNL     1       7.914  -1.898   2.416  0.00  0.00    -0.177 NA
ATOM     14  C   UNL     1       8.757  -1.228   1.416  0.00  0.00    +0.109 C 
ATOM     15  C   UNL     1       9.483  -0.059   2.087  0.00  0.00    +0.017 C 
ATOM     16  C   UNL     1      10.247  -0.572   3.309  0.00  0.00    +0.003 C 
ATOM     17  C   UNL     1       9.261  -1.169   4.316  0.00  0.00    +0.017 C 
ATOM     18  C   UNL     1       8.530  -2.346   3.673  0.00  0.00    +0.109 C 
ENDBRANCH  10  13
ENDBRANCH   5  10
ENDBRANCH   1   3
BRANCH   1  19
ATOM     19  S   UNL     1       4.004   2.330  -0.051  0.00  0.00    +0.072 S 
ATOM     20  O   UNL     1       5.056   1.522  -0.558  0.00  0.00    -0.150 OA
ATOM     21  O   UNL     1       3.690   3.604  -0.598  0.00  0.00    -0.150 OA
BRANCH  19  24
ATOM     22  C   UNL     1       0.146   1.242  -0.286  0.00  0.00    +0.010 A 
ATOM     23  C   UNL     1       1.301   1.991  -0.208  0.00  0.00    +0.029 A 
ATOM     24  C   UNL     1       2.534   1.364  -0.150  0.00  0.00    +0.109 A 
ATOM     25  C   UNL     1       2.618  -0.017  -0.171  0.00  0.00    +0.029 A 
ATOM     26  C   UNL     1       1.472  -0.780  -0.249  0.00  0.00    +0.010 A 
ATOM     27  C   UNL     1       0.223  -0.155  -0.307  0.00  0.00    -0.025 A 
BRANCH  27  28
ATOM     28  C   UNL     1      -1.005  -0.962  -0.390  0.00  0.00    +0.015 C 
ATOM     29  C   UNL     1      -0.927  -2.310  -0.410  0.00  0.00    +0.096 C 
BRANCH  29  30
ATOM     30  C   UNL     1      -2.108  -3.087  -0.490  0.00  0.00    +0.380 C 
ATOM     31  O   UNL     1      -3.201  -2.536  -0.541  0.00  0.00    -0.241 OA
ATOM     32  O   UNL     1      -2.037  -4.310  -0.508  0.00  0.00    -0.241 OA
ENDBRANCH  29  30
ENDBRANCH  27  28
ENDBRANCH  19  24
ENDBRANCH   1  19
TORSDOF 7
