REMARK  Name = ZINC39350934
REMARK  11 active torsions:
REMARK  status: ('A' for Active; 'I' for Inactive)
REMARK    1  A    between atoms: C_1  and  C_2
REMARK    2  A    between atoms: C_2  and  O_3
REMARK    3  A    between atoms: O_3  and  C_4
REMARK    4  A    between atoms: C_5  and  O_28
REMARK    5  A    between atoms: C_7  and  C_11
REMARK    6  A    between atoms: C_11  and  C_13
REMARK    7  A    between atoms: C_11  and  C_20
REMARK    8  A    between atoms: C_14  and  C_19
REMARK    9  A    between atoms: C_21  and  C_27
REMARK   10  A    between atoms: C_24  and  O_26
REMARK   11  A    between atoms: O_28  and  C_29
REMARK                            x       y       z     vdW  Elec       q    Type
REMARK                         _______ _______ _______ _____ _____    ______ ____
ROOT
ATOM      1  C   UNL     1       1.115  -6.178  -2.039  0.00  0.00    +0.088 C 
ENDROOT
BRANCH   1   2
ATOM      2  C   UNL     1       1.293  -6.565  -3.485  0.00  0.00    +0.052 A 
ATOM      3  C   UNL     1       1.817  -5.754  -4.496  0.00  0.00    +0.068 A 
ATOM      4  N   UNL     1       1.813  -6.436  -5.612  0.00  0.00    -0.176 NA
ATOM      5  N   UNL     1       1.286  -7.707  -5.350  0.00  0.00    -0.243 N 
ATOM      6  C   UNL     1       0.977  -7.767  -4.036  0.00  0.00    +0.271 A 
ATOM      7  O   UNL     1       0.446  -8.833  -3.385  0.00  0.00    -0.266 OA
ATOM      8  C   UNL     1       2.302  -4.337  -4.329  0.00  0.00    +0.068 C 
ATOM      9  H   UNL     1       1.166  -8.420  -5.997  0.00  0.00    +0.192 HD
ENDBRANCH   1   2
BRANCH   1  13
ATOM     10  C   UNL     1      -0.055  -2.071  -1.800  0.00  0.00    +0.175 A 
ATOM     11  C   UNL     1       1.101  -2.504  -1.158  0.00  0.00    +0.163 A 
ATOM     12  C   UNL     1       1.477  -3.835  -1.237  0.00  0.00    +0.054 A 
ATOM     13  C   UNL     1       0.704  -4.731  -1.954  0.00  0.00    -0.031 A 
ATOM     14  C   UNL     1      -0.444  -4.301  -2.592  0.00  0.00    +0.022 A 
ATOM     15  C   UNL     1      -0.828  -2.974  -2.512  0.00  0.00    +0.059 A 
ATOM     16  I   UNL     1      -2.574  -2.329  -3.474  0.00  0.00    -0.040 I 
BRANCH  11  17
ATOM     17  O   UNL     1       1.861  -1.622  -0.454  0.00  0.00    -0.491 OA
ATOM     18  C   UNL     1       3.033  -2.138   0.179  0.00  0.00    +0.277 C 
ENDBRANCH  11  17
BRANCH  10  19
ATOM     19  O   UNL     1      -0.428  -0.765  -1.725  0.00  0.00    -0.488 OA
BRANCH  19  21
ATOM     20  C   UNL     1      -1.589   1.100  -0.719  0.00  0.00    +0.048 C 
ATOM     21  C   UNL     1      -1.279  -0.396  -0.638  0.00  0.00    +0.226 C 
ENDBRANCH  19  21
ENDBRANCH  10  19
ENDBRANCH   1  13
BRANCH   1  22
ATOM     22  C   UNL     1       0.049  -7.041  -1.415  0.00  0.00    +0.017 C 
ATOM     23  C   UNL     1       0.192  -7.968  -0.466  0.00  0.00    +0.065 C 
ATOM     24  N   UNL     1      -0.998  -8.533  -0.163  0.00  0.00    -0.156 NA
ATOM     25  N   UNL     1      -1.953  -8.092  -0.807  0.00  0.00    -0.151 NA
ATOM     26  C   UNL     1      -1.440  -7.053  -1.716  0.00  0.00    +0.284 C 
ATOM     27  C   UNL     1       1.502  -8.334   0.182  0.00  0.00    +0.067 C 
BRANCH  26  28
ATOM     28  O   UNL     1      -1.677  -7.415  -3.079  0.00  0.00    -0.366 OA
ATOM     29  H   UNL     1      -2.612  -7.437  -3.322  0.00  0.00    +0.212 HD
ENDBRANCH  26  28
ENDBRANCH   1  22
TORSDOF 7
