REMARK  Name = ZINC13169427
REMARK  7 active torsions:
REMARK  status: ('A' for Active; 'I' for Inactive)
REMARK    1  A    between atoms: C_1  and  C_2
REMARK    2  A    between atoms: C_7  and  O_8
REMARK    3  A    between atoms: O_8  and  C_9
REMARK    4  A    between atoms: C_9  and  C_10
REMARK    5  A    between atoms: N_12  and  C_13
REMARK    6  A    between atoms: C_15  and  C_21
REMARK    7  A    between atoms: C_17  and  C_19
REMARK                            x       y       z     vdW  Elec       q    Type
REMARK                         _______ _______ _______ _____ _____    ______ ____
ROOT
ATOM      1  C   UNL     1      -4.159   0.233   1.102  0.00  0.00    +0.255 C 
ATOM      2  O   UNL     1      -4.495  -0.139  -0.003  0.00  0.00    -0.272 OA
ATOM      3  N   UNL     1      -4.935  -0.040   2.170  0.00  0.00    -0.283 N 
ATOM      4  H   UNL     1      -4.631   0.190   3.062  0.00  0.00    +0.155 HD
ENDROOT
BRANCH   3   5
ATOM      5  C   UNL     1      -6.180  -0.655   1.992  0.00  0.00    +0.035 A 
ATOM      6  C   UNL     1      -6.931  -0.381   0.858  0.00  0.00    +0.038 A 
ATOM      7  C   UNL     1      -8.171  -0.997   0.674  0.00  0.00    +0.066 A 
ATOM      8  C   UNL     1      -8.658  -1.880   1.637  0.00  0.00    +0.030 A 
ATOM      9  C   UNL     1      -7.903  -2.148   2.777  0.00  0.00    +0.066 A 
ATOM     10  C   UNL     1      -6.662  -1.532   2.952  0.00  0.00    +0.038 A 
BRANCH   9  11
ATOM     11  C   UNL     1      -8.415  -3.083   3.800  0.00  0.00    +0.387 C 
ATOM     12  O   UNL     1      -7.756  -3.317   4.793  0.00  0.00    -0.241 OA
ATOM     13  O   UNL     1      -9.612  -3.677   3.631  0.00  0.00    -0.241 OA
ENDBRANCH   9  11
BRANCH   7  14
ATOM     14  C   UNL     1      -8.967  -0.709  -0.536  0.00  0.00    +0.387 C 
ATOM     15  O   UNL     1      -8.542   0.060  -1.374  0.00  0.00    -0.241 OA
ATOM     16  O   UNL     1     -10.166  -1.300  -0.710  0.00  0.00    -0.241 OA
ENDBRANCH   7  14
ENDBRANCH   3   5
BRANCH   1  17
ATOM     17  C   UNL     1      -2.875   1.001   1.280  0.00  0.00    +0.325 C 
BRANCH  17  18
ATOM     18  O   UNL     1      -2.236   1.163   0.012  0.00  0.00    -0.481 OA
BRANCH  18  25
ATOM     19  C   UNL     1       0.130  -0.341   0.346  0.00  0.00    +0.047 C 
ATOM     20  C   UNL     1       0.138   1.154   0.155  0.00  0.00    -0.006 A 
ATOM     21  C   UNL     1       1.336   1.842   0.133  0.00  0.00    +0.022 A 
ATOM     22  C   UNL     1       1.344   3.214  -0.041  0.00  0.00    +0.020 A 
ATOM     23  C   UNL     1       0.153   3.901  -0.195  0.00  0.00    +0.039 A 
ATOM     24  C   UNL     1      -1.048   3.217  -0.173  0.00  0.00    +0.084 A 
ATOM     25  C   UNL     1      -1.057   1.839  -0.004  0.00  0.00    +0.142 A 
ATOM     26 CL   UNL     1      -2.542   4.079  -0.365  0.00  0.00    -0.080 Cl
ATOM     27 BR   UNL     1       2.986   4.152  -0.071  0.00  0.00    -0.050 Br
ENDBRANCH  18  25
ENDBRANCH  17  18
ENDBRANCH   1  17
TORSDOF 6
