REMARK  Name = ZINC59914385
REMARK  14 active torsions:
REMARK  status: ('A' for Active; 'I' for Inactive)
REMARK    1  A    between atoms: C_1  and  C_2
REMARK    2  A    between atoms: C_3  and  C_11
REMARK    3  A    between atoms: C_4  and  C_10
REMARK    4  A    between atoms: N_5  and  C_7
REMARK    5  A    between atoms: C_7  and  C_8
REMARK    6  A    between atoms: C_8  and  O_9
REMARK    7  A    between atoms: N_12  and  N_13
REMARK    8  A    between atoms: C_17  and  S_20
REMARK    9  A    between atoms: N_18  and  N_19
REMARK   10  A    between atoms: S_20  and  C_21
REMARK   11  A    between atoms: C_21  and  C_22
REMARK   12  A    between atoms: N_24  and  C_25
REMARK   13  A    between atoms: C_29  and  N_31
REMARK   14  A    between atoms: C_32  and  C_34
REMARK                            x       y       z     vdW  Elec       q    Type
REMARK                         _______ _______ _______ _____ _____    ______ ____
ROOT
ATOM      1  N   UNL     1      -0.009   1.356  -4.125  0.00  0.00    -0.204 N 
ATOM      2  C   UNL     1      -0.034   2.712  -4.416  0.00  0.00    +0.254 A 
ATOM      3  N   UNL     1      -0.052   3.688  -3.540  0.00  0.00    -0.109 NA
ATOM      4  N   UNL     1      -0.075   4.899  -4.243  0.00  0.00    -0.119 NA
ATOM      5  C   UNL     1      -0.070   4.624  -5.526  0.00  0.00    +0.210 A 
ATOM      6  N   UNL     1      -0.039   3.266  -5.666  0.00  0.00    -0.211 N 
ATOM      7  H   UNL     1       0.007   0.706  -4.844  0.00  0.00    +0.177 HD
ENDROOT
BRANCH   6   8
ATOM      8  N   UNL     1      -0.020   2.581  -6.848  0.00  0.00    -0.294 N 
ATOM      9  H   UNL     1      -0.956   2.381  -7.165  0.00  0.00    +0.163 HD
ATOM     10  H   UNL     1       0.500   3.086  -7.550  0.00  0.00    +0.163 HD
ENDBRANCH   6   8
BRANCH   1  12
ATOM     11  C   UNL     1       0.016  -0.343  -2.519  0.00  0.00    +0.141 C 
ATOM     12  N   UNL     1      -0.007   0.925  -2.792  0.00  0.00    -0.187 NA
BRANCH  11  15
ATOM     13  C   UNL     1      -0.034   1.534   0.036  0.00  0.00    +0.068 C 
ATOM     14  C   UNL     1      -0.004   0.028   0.031  0.00  0.00    +0.069 A 
ATOM     15  C   UNL     1       0.018  -0.797  -1.115  0.00  0.00    +0.038 A 
ATOM     16  C   UNL     1       0.042  -2.103  -0.678  0.00  0.00    +0.045 A 
ATOM     17  N   UNL     1       0.035  -2.078   0.670  0.00  0.00    -0.266 N 
ATOM     18  N   UNL     1       0.011  -0.742   1.086  0.00  0.00    -0.176 NA
ATOM     19  C   UNL     1       0.071  -3.334  -1.548  0.00  0.00    +0.066 C 
BRANCH  17  20
ATOM     20  C   UNL     1       0.054  -3.250   1.550  0.00  0.00    +0.171 C 
BRANCH  20  21
ATOM     21  C   UNL     1       1.503  -3.628   1.863  0.00  0.00    +0.179 C 
BRANCH  21  22
ATOM     22  O   UNL     1       1.521  -4.771   2.721  0.00  0.00    -0.393 OA
ATOM     23  H   UNL     1       2.410  -5.068   2.962  0.00  0.00    +0.209 HD
ENDBRANCH  21  22
ENDBRANCH  20  21
ENDBRANCH  17  20
ENDBRANCH  11  15
ENDBRANCH   1  12
BRANCH   5  24
ATOM     24  S   UNL     1      -0.093   5.801  -6.837  0.00  0.00    -0.075 S 
BRANCH  24  25
ATOM     25  C   UNL     1      -0.122   7.404  -5.989  0.00  0.00    +0.173 C 
BRANCH  25  26
ATOM     26  C   UNL     1      -0.144   8.512  -7.009  0.00  0.00    +0.227 C 
ATOM     27  O   UNL     1      -0.140   8.247  -8.193  0.00  0.00    -0.275 OA
ATOM     28  N   UNL     1      -0.168   9.798  -6.607  0.00  0.00    -0.285 N 
ATOM     29  H   UNL     1      -0.238  10.010  -5.663  0.00  0.00    +0.155 HD
BRANCH  28  30
ATOM     30  C   UNL     1      -0.090  10.828  -7.551  0.00  0.00    +0.035 A 
ATOM     31  C   UNL     1       0.592  12.000  -7.247  0.00  0.00    +0.023 A 
ATOM     32  C   UNL     1       0.669  13.017  -8.179  0.00  0.00    +0.004 A 
ATOM     33  C   UNL     1       0.070  12.873  -9.415  0.00  0.00    +0.023 A 
ATOM     34  C   UNL     1      -0.613  11.704  -9.725  0.00  0.00    +0.035 A 
ATOM     35  C   UNL     1      -0.688  10.678  -8.793  0.00  0.00    +0.046 A 
BRANCH  34  36
ATOM     36  N   UNL     1      -1.220  11.558 -10.977  0.00  0.00    -0.286 N 
ATOM     37  C   UNL     1      -0.644  12.093 -12.072  0.00  0.00    +0.214 C 
ATOM     38  O   UNL     1       0.356  12.771 -11.961  0.00  0.00    -0.276 OA
ATOM     39  C   UNL     1      -1.241  11.849 -13.434  0.00  0.00    +0.109 C 
ATOM     40  H   UNL     1      -2.056  11.072 -11.058  0.00  0.00    +0.155 HD
ENDBRANCH  34  36
ENDBRANCH  28  30
ENDBRANCH  25  26
ENDBRANCH  24  25
ENDBRANCH   5  24
TORSDOF 11
