REMARK  Name = ZINC12499161
REMARK  8 active torsions:
REMARK  status: ('A' for Active; 'I' for Inactive)
REMARK    1  A    between atoms: C_1  and  C_2
REMARK    2  A    between atoms: C_5  and  C_9
REMARK    3  A    between atoms: N_11  and  C_12
REMARK    4  A    between atoms: C_12  and  N_14
REMARK    5  A    between atoms: N_14  and  C_15
REMARK    6  A    between atoms: C_18  and  S_21
REMARK    7  A    between atoms: S_21  and  N_24
REMARK    8  A    between atoms: C_27  and  C_30
REMARK                            x       y       z     vdW  Elec       q    Type
REMARK                         _______ _______ _______ _____ _____    ______ ____
ROOT
ATOM      1  C   UNL     1      -7.186   3.926   0.044  0.00  0.00    +0.033 A 
ATOM      2  C   UNL     1      -7.110   5.311  -0.019  0.00  0.00    +0.025 A 
ATOM      3  C   UNL     1      -8.267   6.064  -0.057  0.00  0.00    +0.030 A 
ATOM      4  C   UNL     1      -9.501   5.441  -0.024  0.00  0.00    +0.109 A 
ATOM      5  C   UNL     1      -9.581   4.062   0.044  0.00  0.00    +0.030 A 
ATOM      6  C   UNL     1      -8.427   3.303   0.078  0.00  0.00    +0.025 A 
ENDROOT
BRANCH   4   7
ATOM      7  S   UNL     1     -10.974   6.406  -0.067  0.00  0.00    +0.074 S 
ATOM      8  O   UNL     1     -10.633   7.641  -0.680  0.00  0.00    -0.150 OA
ATOM      9  O   UNL     1     -11.998   5.561  -0.574  0.00  0.00    -0.150 OA
BRANCH   7  10
ATOM     10  N   UNL     1     -11.379   6.751   1.502  0.00  0.00    -0.197 N 
ATOM     11  C   UNL     1     -10.544   7.549   2.276  0.00  0.00    +0.181 A 
ATOM     12  C   UNL     1     -10.746   7.936   3.628  0.00  0.00    +0.092 A 
ATOM     13  C   UNL     1      -9.666   8.698   3.914  0.00  0.00    +0.136 A 
ATOM     14  O   UNL     1      -8.916   8.733   2.803  0.00  0.00    -0.358 OA
ATOM     15  N   UNL     1      -9.411   8.090   1.907  0.00  0.00    -0.062 NA
ATOM     16  C   UNL     1      -9.364   9.375   5.226  0.00  0.00    +0.089 C 
ATOM     17  H   UNL     1     -12.199   6.397   1.880  0.00  0.00    +0.175 HD
ENDBRANCH   7  10
ENDBRANCH   4   7
BRANCH   1  18
ATOM     18  N   UNL     1      -6.016   3.160   0.079  0.00  0.00    -0.297 N 
ATOM     19  H   UNL     1      -5.286   3.416   0.664  0.00  0.00    +0.154 HD
BRANCH  18  20
ATOM     20  C   UNL     1      -5.904   2.066  -0.701  0.00  0.00    +0.141 C 
ATOM     21  S   UNL     1      -7.231   1.552  -1.652  0.00  0.00    -0.018 S 
BRANCH  20  24
ATOM     22  C   UNL     1      -4.633   0.283  -1.511  0.00  0.00    +0.250 C 
ATOM     23  O   UNL     1      -5.576  -0.082  -2.186  0.00  0.00    -0.270 OA
ATOM     24  N   UNL     1      -4.746   1.377  -0.731  0.00  0.00    -0.264 N 
ATOM     25  H   UNL     1      -3.994   1.668  -0.193  0.00  0.00    +0.157 HD
BRANCH  22  30
ATOM     26  C   UNL     1       0.312  -2.657  -1.642  0.00  0.00    +0.045 C 
ATOM     27  C   UNL     1      -0.983  -1.888  -1.608  0.00  0.00    -0.036 A 
ATOM     28  C   UNL     1      -1.096  -0.765  -0.807  0.00  0.00    +0.005 A 
ATOM     29  C   UNL     1      -2.281  -0.059  -0.766  0.00  0.00    +0.013 A 
ATOM     30  C   UNL     1      -3.364  -0.473  -1.544  0.00  0.00    +0.038 A 
ATOM     31  C   UNL     1      -3.244  -1.606  -2.351  0.00  0.00    +0.028 A 
ATOM     32  C   UNL     1      -2.055  -2.307  -2.378  0.00  0.00    +0.021 A 
ATOM     33 BR   UNL     1      -1.889  -3.842  -3.469  0.00  0.00    -0.050 Br
ENDBRANCH  22  30
ENDBRANCH  20  24
ENDBRANCH  18  20
ENDBRANCH   1  18
TORSDOF 6
