REMARK  Name = ZINC25391288
REMARK  8 active torsions:
REMARK  status: ('A' for Active; 'I' for Inactive)
REMARK    1  A    between atoms: C_1  and  O_2
REMARK    2  A    between atoms: O_2  and  C_3
REMARK    3  A    between atoms: C_8  and  O_9
REMARK    4  A    between atoms: O_9  and  C_10
REMARK    5  A    between atoms: C_11  and  C_30
REMARK    6  A    between atoms: N_13  and  C_16
REMARK    7  A    between atoms: C_16  and  C_17
REMARK    8  A    between atoms: N_19  and  C_20
REMARK                            x       y       z     vdW  Elec       q    Type
REMARK                         _______ _______ _______ _____ _____    ______ ____
ROOT
ATOM      1  C   UNL     1      -0.148   1.182   2.380  0.00  0.00    +0.162 A 
ATOM      2  C   UNL     1       0.988   0.394   2.424  0.00  0.00    +0.053 A 
ATOM      3  C   UNL     1       1.538   0.022   3.642  0.00  0.00    -0.043 A 
ATOM      4  C   UNL     1       0.947   0.432   4.818  0.00  0.00    -0.049 A 
ATOM      5  C   UNL     1      -0.196   1.218   4.779  0.00  0.00    +0.052 A 
ATOM      6  C   UNL     1      -0.747   1.594   3.567  0.00  0.00    +0.162 A 
ATOM      7  C   UNL     1       1.509   0.054   6.164  0.00  0.00    +0.001 C 
ATOM      8  N   UNL     1       2.430  -1.079   6.035  0.00  0.00    +0.393 N 
ATOM      9  C   UNL     1       3.447  -0.795   5.010  0.00  0.00    -0.072 C 
ATOM     10  C   UNL     1       2.776  -0.837   3.637  0.00  0.00    +0.017 C 
ATOM     11  H   UNL     1       1.852  -1.960   5.721  0.00  0.00    -0.080 HD
ENDROOT
BRANCH   7  12
ATOM     12  C   UNL     1       0.379  -0.326   7.086  0.00  0.00    -0.019 A 
ATOM     13  C   UNL     1      -0.220   0.413   8.052  0.00  0.00    +0.010 A 
ATOM     14  C   UNL     1      -1.250  -0.148   8.783  0.00  0.00    +0.008 A 
ATOM     15  C   UNL     1      -1.632  -1.420   8.512  0.00  0.00    +0.045 A 
ATOM     16  S   UNL     1      -0.524  -1.863   7.184  0.00  0.00    -0.103 S 
ENDBRANCH   7  12
BRANCH   1  18
ATOM     17  C   UNL     1      -0.013   1.086   0.008  0.00  0.00    +0.277 C 
ATOM     18  O   UNL     1      -0.682   1.547   1.184  0.00  0.00    -0.491 OA
ENDBRANCH   1  18
BRANCH   6  19
ATOM     19  O   UNL     1      -1.868   2.364   3.536  0.00  0.00    -0.491 OA
ATOM     20  C   UNL     1      -2.426   2.749   4.793  0.00  0.00    +0.277 C 
ENDBRANCH   6  19
BRANCH   8  21
ATOM     21  C   UNL     1       3.058  -1.396   7.325  0.00  0.00    +0.020 C 
BRANCH  21  22
ATOM     22  C   UNL     1       3.800  -2.703   7.215  0.00  0.00    +0.197 C 
ATOM     23  O   UNL     1       3.807  -3.310   6.165  0.00  0.00    -0.278 OA
ATOM     24  N   UNL     1       4.458  -3.197   8.282  0.00  0.00    -0.311 N 
ATOM     25  H   UNL     1       4.452  -2.646   9.235  0.00  0.00    +0.149 HD
BRANCH  24  26
ATOM     26  C   UNL     1       5.180  -4.467   8.175  0.00  0.00    +0.035 C 
ATOM     27  C   UNL     1       4.201  -5.580   7.797  0.00  0.00    +0.029 C 
ATOM     28  C   UNL     1       4.955  -6.906   7.685  0.00  0.00    -0.008 C 
ATOM     29  C   UNL     1       5.608  -7.237   9.028  0.00  0.00    +0.007 C 
ATOM     30  C   UNL     1       6.588  -6.124   9.406  0.00  0.00    -0.008 C 
ATOM     31  C   UNL     1       5.833  -4.797   9.518  0.00  0.00    +0.029 C 
ATOM     32  C   UNL     1       7.668  -6.007   8.329  0.00  0.00    +0.007 C 
ATOM     33  C   UNL     1       7.014  -5.676   6.985  0.00  0.00    -0.008 C 
ATOM     34  C   UNL     1       6.035  -6.789   6.607  0.00  0.00    +0.007 C 
ATOM     35  C   UNL     1       6.260  -4.350   7.098  0.00  0.00    +0.029 C 
ENDBRANCH  24  26
ENDBRANCH  21  22
ENDBRANCH   8  21
TORSDOF 6
