REMARK  Name = ZINC34972257
REMARK  8 active torsions:
REMARK  status: ('A' for Active; 'I' for Inactive)
REMARK    1  A    between atoms: C_1  and  C_2
REMARK    2  A    between atoms: C_7  and  N_8
REMARK    3  A    between atoms: N_11  and  C_12
REMARK    4  A    between atoms: C_12  and  C_13
REMARK    5  A    between atoms: C_13  and  C_14
REMARK    6  A    between atoms: C_14  and  N_15
REMARK    7  A    between atoms: N_15  and  C_16
REMARK    8  A    between atoms: N_25  and  C_26
REMARK                            x       y       z     vdW  Elec       q    Type
REMARK                         _______ _______ _______ _____ _____    ______ ____
ROOT
ATOM      1  N   UNL     1      -0.480   0.625   9.454  0.00  0.00    -0.255 N 
ATOM      2  C   UNL     1       0.662   1.020  10.051  0.00  0.00    +0.311 C 
ATOM      3  O   UNL     1       0.665   2.003  10.767  0.00  0.00    -0.252 OA
ATOM      4  N   UNL     1       1.800   0.325   9.856  0.00  0.00    -0.267 N 
ATOM      5  H   UNL     1       1.813  -0.419   9.233  0.00  0.00    +0.156 HD
ENDROOT
BRANCH   1   6
ATOM      6  C   UNL     1      -1.683   1.283   9.739  0.00  0.00    +0.038 A 
ATOM      7  C   UNL     1      -1.859   2.606   9.354  0.00  0.00    +0.026 A 
ATOM      8  C   UNL     1      -3.047   3.253   9.634  0.00  0.00    +0.040 A 
ATOM      9  C   UNL     1      -4.061   2.585  10.299  0.00  0.00    +0.124 A 
ATOM     10  C   UNL     1      -3.887   1.266  10.684  0.00  0.00    +0.040 A 
ATOM     11  C   UNL     1      -2.703   0.613  10.401  0.00  0.00    +0.026 A 
ATOM     12  F   UNL     1      -5.221   3.220  10.573  0.00  0.00    -0.205 F 
ENDBRANCH   1   6
BRANCH   4  13
ATOM     13  C   UNL     1       2.964   0.677  10.551  0.00  0.00    +0.070 A 
ATOM     14  C   UNL     1       2.881   1.463  11.692  0.00  0.00    +0.026 A 
ATOM     15  C   UNL     1       4.031   1.809  12.376  0.00  0.00    +0.002 A 
ATOM     16  C   UNL     1       5.264   1.374  11.925  0.00  0.00    +0.003 A 
ATOM     17  C   UNL     1       5.351   0.591  10.789  0.00  0.00    +0.040 A 
ATOM     18  C   UNL     1       4.204   0.236  10.103  0.00  0.00    +0.145 A 
ATOM     19  F   UNL     1       4.288  -0.534   8.996  0.00  0.00    -0.204 F 
ENDBRANCH   4  13
BRANCH   1  20
ATOM     20  C   UNL     1      -0.463  -0.494   8.508  0.00  0.00    +0.117 C 
BRANCH  20  21
ATOM     21  C   UNL     1      -0.210   0.037   7.096  0.00  0.00    +0.038 C 
BRANCH  21  22
ATOM     22  C   UNL     1      -0.192  -1.131   6.108  0.00  0.00    +0.107 C 
BRANCH  22  26
ATOM     23  N   UNL     1       0.332  -1.010   2.471  0.00  0.00    -0.269 N 
ATOM     24  C   UNL     1       0.109  -1.478   3.715  0.00  0.00    +0.304 C 
ATOM     25  O   UNL     1      -0.041  -2.670   3.899  0.00  0.00    -0.253 OA
ATOM     26  N   UNL     1       0.051  -0.623   4.756  0.00  0.00    -0.299 N 
ATOM     27  H   UNL     1       0.521  -0.069   2.333  0.00  0.00    +0.156 HD
ATOM     28  H   UNL     1       0.170   0.328   4.609  0.00  0.00    +0.150 HD
BRANCH  23  35
ATOM     29  C   UNL     1      -0.641  -0.014  -0.011  0.00  0.00    +0.045 C 
ATOM     30  C   UNL     1      -0.175  -1.438   0.148  0.00  0.00    -0.029 A 
ATOM     31  C   UNL     1      -0.208  -2.301  -0.930  0.00  0.00    +0.005 A 
ATOM     32  C   UNL     1       0.219  -3.608  -0.785  0.00  0.00    +0.000 A 
ATOM     33  C   UNL     1       0.679  -4.056   0.440  0.00  0.00    +0.002 A 
ATOM     34  C   UNL     1       0.715  -3.199   1.522  0.00  0.00    +0.023 A 
ATOM     35  C   UNL     1       0.292  -1.883   1.378  0.00  0.00    +0.038 A 
ENDBRANCH  23  35
ENDBRANCH  22  26
ENDBRANCH  21  22
ENDBRANCH  20  21
ENDBRANCH   1  20
TORSDOF 7
