REMARK  Name = ZINC66345597
REMARK  7 active torsions:
REMARK  status: ('A' for Active; 'I' for Inactive)
REMARK    1  A    between atoms: C_3  and  N_15
REMARK    2  A    between atoms: C_5  and  N_7
REMARK    3  A    between atoms: C_8  and  C_10
REMARK    4  A    between atoms: C_16  and  C_18
REMARK    5  A    between atoms: C_18  and  C_19
REMARK    6  A    between atoms: C_19  and  C_24
REMARK    7  A    between atoms: C_24  and  C_25
REMARK                            x       y       z     vdW  Elec       q    Type
REMARK                         _______ _______ _______ _____ _____    ______ ____
ROOT
ATOM      1  C   UNL     1      -0.764   2.428   1.458  0.00  0.00    +0.004 A 
ATOM      2  C   UNL     1       0.510   2.903   1.214  0.00  0.00    +0.023 A 
ATOM      3  C   UNL     1       1.369   2.197   0.381  0.00  0.00    +0.035 A 
ATOM      4  C   UNL     1       0.945   1.013  -0.207  0.00  0.00    +0.046 A 
ATOM      5  C   UNL     1      -0.335   0.539   0.041  0.00  0.00    +0.035 A 
ATOM      6  C   UNL     1      -1.189   1.250   0.875  0.00  0.00    +0.023 A 
ENDROOT
BRANCH   5   7
ATOM      7  N   UNL     1      -0.766  -0.653  -0.550  0.00  0.00    -0.281 N 
ATOM      8  C   UNL     1       0.112  -1.652  -0.769  0.00  0.00    +0.255 C 
ATOM      9  O   UNL     1       1.255  -1.558  -0.362  0.00  0.00    -0.269 OA
ATOM     10  H   UNL     1      -1.697  -0.761  -0.801  0.00  0.00    +0.155 HD
BRANCH   8  11
ATOM     11  C   UNL     1      -0.310  -2.851  -1.499  0.00  0.00    +0.074 A 
ATOM     12  C   UNL     1       0.425  -3.982  -1.822  0.00  0.00    +0.021 A 
ATOM     13  C   UNL     1      -0.251  -4.954  -2.520  0.00  0.00    +0.008 A 
ATOM     14  C   UNL     1      -1.553  -4.751  -2.839  0.00  0.00    +0.046 A 
ATOM     15  S   UNL     1      -1.905  -3.240  -2.194  0.00  0.00    -0.092 S 
ENDBRANCH   8  11
ENDBRANCH   5   7
BRANCH   3  16
ATOM     16  N   UNL     1       2.659   2.679   0.134  0.00  0.00    -0.285 N 
ATOM     17  C   UNL     1       2.888   4.007   0.105  0.00  0.00    +0.218 C 
ATOM     18  O   UNL     1       1.960   4.784   0.181  0.00  0.00    -0.275 OA
ATOM     19  H   UNL     1       3.388   2.057  -0.017  0.00  0.00    +0.155 HD
BRANCH  17  20
ATOM     20  C   UNL     1       4.297   4.526  -0.021  0.00  0.00    +0.103 C 
BRANCH  20  21
ATOM     21  C   UNL     1       4.278   6.055  -0.042  0.00  0.00    -0.011 C 
ATOM     22  C   UNL     1       5.720   6.602  -0.032  0.00  0.00    +0.008 C 
ATOM     23  C   UNL     1       5.639   7.869   0.856  0.00  0.00    +0.001 C 
ATOM     24  C   UNL     1       4.646   7.445   1.967  0.00  0.00    +0.001 C 
ATOM     25  C   UNL     1       3.595   6.591   1.228  0.00  0.00    +0.008 C 
BRANCH  21  26
ATOM     26  C   UNL     1       3.537   6.553  -1.285  0.00  0.00    +0.132 C 
BRANCH  26  27
ATOM     27  C   UNL     1       4.289   6.131  -2.521  0.00  0.00    +0.357 C 
ATOM     28  O   UNL     1       5.329   5.503  -2.417  0.00  0.00    -0.246 OA
ATOM     29  O   UNL     1       3.858   6.419  -3.625  0.00  0.00    -0.246 OA
ENDBRANCH  26  27
ENDBRANCH  21  26
ENDBRANCH  20  21
ENDBRANCH  17  20
ENDBRANCH   3  16
TORSDOF 7
