REMARK  Name = ZINC11919750
REMARK  8 active torsions:
REMARK  status: ('A' for Active; 'I' for Inactive)
REMARK    1  A    between atoms: C_1  and  N_53
REMARK    2  A    between atoms: C_6  and  O_14
REMARK    3  A    between atoms: O_14  and  C_15
REMARK    4  A    between atoms: C_16  and  C_18
REMARK    5  A    between atoms: C_23  and  O_31
REMARK    6  A    between atoms: C_24  and  O_29
REMARK    7  A    between atoms: O_29  and  C_30
REMARK    8  A    between atoms: O_31  and  C_32
REMARK                            x       y       z     vdW  Elec       q    Type
REMARK                         _______ _______ _______ _____ _____    ______ ____
ROOT
ATOM      1  C   UNL     1      -3.906  -1.696   2.659  0.00  0.00    -0.095 C 
ATOM      2  C   UNL     1      -5.388  -3.138   3.924  0.00  0.00    -0.073 C 
ATOM      3  C   UNL     1      -6.629  -3.086   4.815  0.00  0.00    +0.018 C 
ATOM      4  C   UNL     1      -7.810  -2.582   4.025  0.00  0.00    -0.026 A 
ATOM      5  C   UNL     1      -7.648  -1.925   2.823  0.00  0.00    -0.007 A 
ATOM      6  C   UNL     1      -8.764  -1.473   2.126  0.00  0.00    +0.167 A 
ATOM      7  C   UNL     1     -10.039  -1.677   2.635  0.00  0.00    +0.209 A 
ATOM      8  C   UNL     1     -10.198  -2.341   3.846  0.00  0.00    +0.184 A 
ATOM      9  C   UNL     1      -9.083  -2.790   4.535  0.00  0.00    +0.067 A 
ATOM     10 BR   UNL     1      -9.297  -3.693   6.182  0.00  0.00    -0.046 Br
ATOM     11  O   UNL     1     -11.532  -2.418   4.130  0.00  0.00    -0.451 OA
ATOM     12  C   UNL     1     -12.162  -1.438   3.285  0.00  0.00    +0.467 C 
ATOM     13  O   UNL     1     -11.273  -1.337   2.157  0.00  0.00    -0.449 OA
ATOM     14  C   UNL     1      -6.286  -1.680   2.228  0.00  0.00    +0.012 C 
ATOM     15  N   UNL     1      -5.251  -1.823   3.265  0.00  0.00    +0.385 N 
ATOM     16  H   UNL     1      -5.373  -1.082   3.966  0.00  0.00    -0.081 HD
ENDROOT
BRANCH  14  17
ATOM     17  C   UNL     1      -6.229  -0.259   1.664  0.00  0.00    +0.199 C 
ATOM     18  C   UNL     1      -4.883  -0.005   1.035  0.00  0.00    +0.009 A 
ATOM     19  C   UNL     1      -4.203  -0.590  -0.006  0.00  0.00    +0.012 A 
ATOM     20  C   UNL     1      -2.946  -0.127  -0.365  0.00  0.00    +0.050 A 
ATOM     21  C   UNL     1      -2.367   0.926   0.323  0.00  0.00    +0.162 A 
ATOM     22  C   UNL     1      -3.042   1.524   1.383  0.00  0.00    +0.176 A 
ATOM     23  C   UNL     1      -4.314   1.061   1.742  0.00  0.00    +0.111 A 
ATOM     24  C   UNL     1      -5.264   1.474   2.787  0.00  0.00    +0.344 C 
ATOM     25  O   UNL     1      -5.077   2.376   3.579  0.00  0.00    -0.245 OA
ATOM     26  O   UNL     1      -6.369   0.710   2.739  0.00  0.00    -0.454 OA
BRANCH  22  27
ATOM     27  O   UNL     1      -2.474   2.553   2.060  0.00  0.00    -0.491 OA
ATOM     28  C   UNL     1      -2.736   3.872   1.577  0.00  0.00    +0.277 C 
ENDBRANCH  22  27
BRANCH  21  29
ATOM     29  O   UNL     1      -1.134   1.373  -0.035  0.00  0.00    -0.491 OA
ATOM     30  C   UNL     1      -0.495   0.710  -1.127  0.00  0.00    +0.277 C 
ENDBRANCH  21  29
ENDBRANCH  14  17
BRANCH   6  31
ATOM     31  O   UNL     1      -8.605  -0.824   0.942  0.00  0.00    -0.491 OA
ATOM     32  C   UNL     1      -8.726  -1.606  -0.248  0.00  0.00    +0.277 C 
ENDBRANCH   6  31
TORSDOF 4
