REMARK  Name = ZINC67194172
REMARK  13 active torsions:
REMARK  status: ('A' for Active; 'I' for Inactive)
REMARK    1  A    between atoms: C_1  and  C_2
REMARK    2  A    between atoms: C_2  and  C_3
REMARK    3  A    between atoms: C_2  and  C_4
REMARK    4  A    between atoms: C_4  and  C_6
REMARK    5  A    between atoms: C_4  and  N_23
REMARK    6  A    between atoms: N_8  and  N_9
REMARK    7  A    between atoms: N_9  and  C_10
REMARK    8  A    between atoms: C_10  and  N_12
REMARK    9  A    between atoms: N_12  and  C_13
REMARK   10  A    between atoms: C_16  and  O_19
REMARK   11  A    between atoms: O_19  and  C_20
REMARK   12  A    between atoms: C_20  and  C_21
REMARK   13  A    between atoms: C_20  and  C_22
REMARK                            x       y       z     vdW  Elec       q    Type
REMARK                         _______ _______ _______ _____ _____    ______ ____
ROOT
ATOM      1  N   UNL     1      -0.520  -3.903   1.214  0.00  0.00    -0.246 N 
ATOM      2  H   UNL     1      -0.630  -4.387   0.380  0.00  0.00    +0.172 HD
ENDROOT
BRANCH   1   5
ATOM      3  C   UNL     1      -1.357  -1.917   0.202  0.00  0.00    +0.250 C 
ATOM      4  O   UNL     1      -1.409  -2.496  -0.863  0.00  0.00    -0.272 OA
ATOM      5  N   UNL     1      -0.869  -2.548   1.288  0.00  0.00    -0.234 N 
ATOM      6  H   UNL     1      -0.758  -2.064   2.121  0.00  0.00    +0.173 HD
BRANCH   3   7
ATOM      7  C   UNL     1      -1.837  -0.493   0.310  0.00  0.00    +0.164 C 
BRANCH   7   8
ATOM      8  N   UNL     1      -2.627  -0.152  -0.876  0.00  0.00    -0.288 N 
ATOM      9  C   UNL     1      -3.555   0.822  -0.811  0.00  0.00    +0.298 C 
ATOM     10  O   UNL     1      -3.738   1.419   0.233  0.00  0.00    -0.253 OA
ATOM     11  N   UNL     1      -4.281   1.136  -1.902  0.00  0.00    -0.313 N 
ATOM     12  H   UNL     1      -2.481  -0.628  -1.709  0.00  0.00    +0.151 HD
ATOM     13  H   UNL     1      -4.136   0.660  -2.735  0.00  0.00    +0.146 HD
ATOM     14  H   UNL     1      -4.949   1.837  -1.855  0.00  0.00    +0.146 HD
ENDBRANCH   7   8
BRANCH   7  16
ATOM     15  C   UNL     1       0.262   0.257  -0.818  0.00  0.00    +0.009 C 
ATOM     16  C   UNL     1      -0.633   0.446   0.408  0.00  0.00    +0.012 C 
ATOM     17  C   UNL     1      -1.119   1.895   0.467  0.00  0.00    +0.009 C 
ENDBRANCH   7  16
ENDBRANCH   3   7
ENDBRANCH   1   5
BRANCH   1  18
ATOM     18  C   UNL     1      -0.032  -4.534   2.300  0.00  0.00    +0.151 C 
ATOM     19  S   UNL     1       0.394  -6.190   2.209  0.00  0.00    -0.017 S 
BRANCH  18  20
ATOM     20  N   UNL     1       0.121  -3.862   3.458  0.00  0.00    -0.296 N 
ATOM     21  H   UNL     1      -0.196  -2.948   3.534  0.00  0.00    +0.154 HD
BRANCH  20  22
ATOM     22  C   UNL     1       0.738  -4.482   4.552  0.00  0.00    +0.033 A 
ATOM     23  C   UNL     1       1.855  -5.283   4.357  0.00  0.00    +0.027 A 
ATOM     24  C   UNL     1       2.463  -5.894   5.436  0.00  0.00    +0.047 A 
ATOM     25  C   UNL     1       1.956  -5.709   6.714  0.00  0.00    +0.121 A 
ATOM     26  C   UNL     1       0.840  -4.909   6.910  0.00  0.00    +0.047 A 
ATOM     27  C   UNL     1       0.235  -4.293   5.832  0.00  0.00    +0.027 A 
BRANCH  25  28
ATOM     28  O   UNL     1       2.554  -6.312   7.776  0.00  0.00    -0.489 OA
BRANCH  28  29
ATOM     29  C   UNL     1       3.775  -7.011   7.523  0.00  0.00    +0.167 C 
ATOM     30  C   UNL     1       4.601  -7.078   8.809  0.00  0.00    +0.051 C 
ATOM     31  C   UNL     1       3.460  -8.430   7.045  0.00  0.00    +0.051 C 
ENDBRANCH  28  29
ENDBRANCH  25  28
ENDBRANCH  20  22
ENDBRANCH  18  20
ENDBRANCH   1  18
TORSDOF 9
