REMARK  Name = ZINC17769389
REMARK  8 active torsions:
REMARK  status: ('A' for Active; 'I' for Inactive)
REMARK    1  A    between atoms: C_1  and  C_2
REMARK    2  A    between atoms: C_2  and  N_3
REMARK    3  A    between atoms: C_4  and  C_28
REMARK    4  A    between atoms: C_7  and  S_8
REMARK    5  A    between atoms: S_8  and  C_9
REMARK    6  A    between atoms: C_9  and  C_11
REMARK    7  A    between atoms: C_9  and  C_12
REMARK    8  A    between atoms: C_17  and  C_20
REMARK                            x       y       z     vdW  Elec       q    Type
REMARK                         _______ _______ _______ _____ _____    ______ ____
ROOT
ATOM      1  C   UNL     1       7.186   3.861  -0.523  0.00  0.00    +0.232 C 
ATOM      2  O   UNL     1       7.869   2.894  -0.786  0.00  0.00    -0.274 OA
ATOM      3  N   UNL     1       7.721   5.097  -0.572  0.00  0.00    -0.264 N 
ATOM      4  C   UNL     1       9.055   5.263  -0.924  0.00  0.00    +0.165 A 
ATOM      5  N   UNL     1       9.759   6.375  -1.029  0.00  0.00    -0.225 NA
ATOM      6  C   UNL     1      11.036   6.350  -1.380  0.00  0.00    +0.080 A 
ATOM      7  C   UNL     1      11.637   5.150  -1.638  0.00  0.00    +0.076 A 
ATOM      8  S   UNL     1      10.275   4.028  -1.347  0.00  0.00    -0.060 S 
ATOM      9  H   UNL     1       7.175   5.870  -0.361  0.00  0.00    +0.157 HD
ENDROOT
BRANCH   6  10
ATOM     10  C   UNL     1      11.806   7.612  -1.491  0.00  0.00    +0.004 A 
ATOM     11  C   UNL     1      11.188   8.834  -1.226  0.00  0.00    +0.013 A 
ATOM     12  C   UNL     1      11.908  10.007  -1.331  0.00  0.00    +0.042 A 
ATOM     13  C   UNL     1      13.243   9.973  -1.698  0.00  0.00    +0.158 A 
ATOM     14  C   UNL     1      13.863   8.760  -1.963  0.00  0.00    +0.159 A 
ATOM     15  C   UNL     1      13.151   7.580  -1.856  0.00  0.00    +0.051 A 
ATOM     16  F   UNL     1      15.165   8.732  -2.321  0.00  0.00    -0.202 F 
ATOM     17  F   UNL     1      13.943  11.123  -1.800  0.00  0.00    -0.202 F 
ENDBRANCH   6  10
BRANCH   1  18
ATOM     18  C   UNL     1       5.739   3.680  -0.141  0.00  0.00    +0.137 C 
ATOM     19  C   UNL     1       5.599   3.760   1.380  0.00  0.00    +0.029 C 
BRANCH  18  20
ATOM     20  S   UNL     1       5.160   2.065  -0.717  0.00  0.00    -0.074 S 
BRANCH  20  25
ATOM     21  N   UNL     1       2.500   1.226  -0.491  0.00  0.00    -0.306 N 
ATOM     22  C   UNL     1       1.338   1.754  -0.001  0.00  0.00    +0.137 A 
ATOM     23  N   UNL     1       1.613   2.945   0.451  0.00  0.00    -0.133 NA
ATOM     24  N   UNL     1       2.863   3.200   0.290  0.00  0.00    -0.122 NA
ATOM     25  C   UNL     1       3.455   2.180  -0.287  0.00  0.00    +0.192 A 
BRANCH  22  26
ATOM     26  C   UNL     1      -0.013   1.086   0.008  0.00  0.00    +0.057 C 
ATOM     27  C   UNL     1      -1.136   1.773   0.788  0.00  0.00    +0.012 C 
ATOM     28  C   UNL     1      -1.150   1.781  -0.743  0.00  0.00    +0.012 C 
ENDBRANCH  22  26
BRANCH  21  30
ATOM     29  C   UNL     1       2.458   0.016  -2.616  0.00  0.00    +0.027 C 
ATOM     30  C   UNL     1       2.683  -0.091  -1.107  0.00  0.00    +0.122 C 
ENDBRANCH  21  30
ENDBRANCH  20  25
ENDBRANCH  18  20
ENDBRANCH   1  18
TORSDOF 6
