REMARK  Name = ZINC64965964
REMARK  6 active torsions:
REMARK  status: ('A' for Active; 'I' for Inactive)
REMARK    1  A    between atoms: C_1  and  C_2
REMARK    2  A    between atoms: C_5  and  C_29
REMARK    3  A    between atoms: C_6  and  C_8
REMARK    4  A    between atoms: C_10  and  C_26
REMARK    5  A    between atoms: N_14  and  C_19
REMARK    6  A    between atoms: N_17  and  C_18
REMARK                            x       y       z     vdW  Elec       q    Type
REMARK                         _______ _______ _______ _____ _____    ______ ____
ROOT
ATOM      1  C   UNL     1       0.062  -3.009   2.324  0.00  0.00    +0.163 A 
ATOM      2  N   UNL     1       0.155  -4.322   2.196  0.00  0.00    -0.220 NA
ATOM      3  C   UNL     1      -0.003  -5.126   3.249  0.00  0.00    +0.155 A 
ATOM      4  C   UNL     1      -0.268  -4.552   4.493  0.00  0.00    +0.120 A 
ATOM      5  C   UNL     1      -0.358  -3.151   4.582  0.00  0.00    +0.170 A 
ATOM      6  N   UNL     1      -0.183  -2.426   3.491  0.00  0.00    -0.208 NA
ATOM      7  N   UNL     1      -0.625  -2.856   5.907  0.00  0.00    -0.245 N 
ATOM      8  C   UNL     1      -0.695  -4.011   6.596  0.00  0.00    +0.336 A 
ATOM      9  O   UNL     1      -0.917  -4.102   7.789  0.00  0.00    -0.246 OA
ATOM     10  N   UNL     1      -0.484  -5.050   5.765  0.00  0.00    -0.291 N 
ATOM     11  C   UNL     1      -0.483  -6.465   6.144  0.00  0.00    +0.154 C 
ENDROOT
BRANCH   1  17
ATOM     12  C   UNL     1       2.168   0.938   0.105  0.00  0.00    +0.044 C 
ATOM     13  C   UNL     1       1.256  -0.261   0.053  0.00  0.00    -0.050 A 
ATOM     14  C   UNL     1       0.588  -0.569  -1.119  0.00  0.00    +0.003 A 
ATOM     15  C   UNL     1      -0.250  -1.668  -1.175  0.00  0.00    +0.004 A 
ATOM     16  C   UNL     1      -0.424  -2.463  -0.060  0.00  0.00    -0.040 A 
ATOM     17  C   UNL     1       0.246  -2.158   1.123  0.00  0.00    +0.022 A 
ATOM     18  C   UNL     1       1.094  -1.052   1.171  0.00  0.00    +0.015 A 
ATOM     19  C   UNL     1      -1.338  -3.660  -0.122  0.00  0.00    +0.044 C 
ENDBRANCH   1  17
BRANCH   7  20
ATOM     20  C   UNL     1      -0.793  -1.570   6.443  0.00  0.00    +0.053 A 
ATOM     21  C   UNL     1      -0.701  -0.457   5.619  0.00  0.00    +0.029 A 
ATOM     22  C   UNL     1      -0.867   0.808   6.148  0.00  0.00    +0.040 A 
ATOM     23  C   UNL     1      -1.126   0.966   7.500  0.00  0.00    +0.124 A 
ATOM     24  C   UNL     1      -1.218  -0.144   8.323  0.00  0.00    +0.040 A 
ATOM     25  C   UNL     1      -1.058  -1.411   7.796  0.00  0.00    +0.029 A 
ATOM     26  F   UNL     1      -1.288   2.204   8.015  0.00  0.00    -0.205 F 
ENDBRANCH   7  20
BRANCH   3  27
ATOM     27  C   UNL     1       0.101  -6.596   3.100  0.00  0.00    +0.262 C 
ATOM     28  O   UNL     1       1.098  -7.176   3.482  0.00  0.00    -0.269 OA
ATOM     29  N   UNL     1      -0.910  -7.290   2.542  0.00  0.00    -0.324 N 
ATOM     30  H   UNL     1      -1.706  -6.827   2.237  0.00  0.00    +0.145 HD
ATOM     31  H   UNL     1      -0.842  -8.253   2.444  0.00  0.00    +0.145 HD
ENDBRANCH   3  27
TORSDOF 3
