REMARK  Name = ZINC17162773
REMARK  5 active torsions:
REMARK  status: ('A' for Active; 'I' for Inactive)
REMARK    1  A    between atoms: C_1  and  N_2
REMARK    2  A    between atoms: C_9  and  O_29
REMARK    3  A    between atoms: C_11  and  C_13
REMARK    4  A    between atoms: N_19  and  C_22
REMARK    5  A    between atoms: O_29  and  C_30
REMARK                            x       y       z     vdW  Elec       q    Type
REMARK                         _______ _______ _______ _____ _____    ______ ____
ROOT
ATOM      1  C   UNL     1       0.965   3.494  -2.508  0.00  0.00    -0.095 C 
ATOM      2  N   UNL     1       1.702   3.882  -1.298  0.00  0.00    +0.386 N 
ATOM      3  C   UNL     1       1.743   5.346  -1.153  0.00  0.00    -0.073 C 
ATOM      4  C   UNL     1       2.808   5.701  -0.116  0.00  0.00    +0.017 C 
ATOM      5  C   UNL     1       2.599   4.886   1.136  0.00  0.00    -0.040 A 
ATOM      6  C   UNL     1       3.224   5.300   2.303  0.00  0.00    +0.053 A 
ATOM      7  C   UNL     1       3.069   4.580   3.476  0.00  0.00    +0.170 A 
ATOM      8  C   UNL     1       2.280   3.434   3.482  0.00  0.00    +0.208 A 
ATOM      9  C   UNL     1       1.655   3.024   2.313  0.00  0.00    +0.167 A 
ATOM     10  C   UNL     1       1.814   3.753   1.138  0.00  0.00    -0.008 A 
ATOM     11  C   UNL     1       1.112   3.270  -0.104  0.00  0.00    +0.008 C 
ATOM     12  O   UNL     1       2.286   2.906   4.742  0.00  0.00    -0.449 OA
ATOM     13  C   UNL     1       3.412   3.511   5.406  0.00  0.00    +0.467 C 
ATOM     14  O   UNL     1       3.569   4.773   4.731  0.00  0.00    -0.452 OA
ATOM     15  H   UNL     1       2.732   3.511  -1.403  0.00  0.00    -0.081 HD
ENDROOT
BRANCH  11  16
ATOM     16  C   UNL     1       1.241   1.772  -0.197  0.00  0.00    +0.072 A 
ATOM     17  C   UNL     1       2.508   1.171  -0.309  0.00  0.00    +0.258 A 
ATOM     18  O   UNL     1       3.514   1.859  -0.333  0.00  0.00    -0.267 OA
ATOM     19  N   UNL     1       2.603  -0.171  -0.392  0.00  0.00    -0.302 N 
ATOM     20  C   UNL     1       1.496  -0.937  -0.367  0.00  0.00    +0.168 A 
ATOM     21  S   UNL     1       1.646  -2.639  -0.474  0.00  0.00    -0.012 S 
ATOM     22  N   UNL     1       0.274  -0.384  -0.260  0.00  0.00    -0.256 N 
ATOM     23  C   UNL     1       0.132   0.979  -0.174  0.00  0.00    +0.265 A 
ATOM     24  O   UNL     1      -1.096   1.531  -0.073  0.00  0.00    -0.267 OA
ATOM     25  H   UNL     1       3.594  -0.640  -0.480  0.00  0.00    +0.171 HD
BRANCH  22  26
ATOM     26  C   UNL     1      -0.861  -1.205  -0.237  0.00  0.00    +0.052 A 
ATOM     27  C   UNL     1      -1.730  -1.220  -1.319  0.00  0.00    +0.027 A 
ATOM     28  C   UNL     1      -2.846  -2.033  -1.296  0.00  0.00    +0.017 A 
ATOM     29  C   UNL     1      -3.104  -2.825  -0.191  0.00  0.00    +0.018 A 
ATOM     30  C   UNL     1      -2.242  -2.808   0.892  0.00  0.00    +0.017 A 
ATOM     31  C   UNL     1      -1.122  -2.000   0.871  0.00  0.00    +0.027 A 
ATOM     32 BR   UNL     1      -4.636  -3.932  -0.159  0.00  0.00    -0.050 Br
ENDBRANCH  22  26
ENDBRANCH  11  16
BRANCH   9  33
ATOM     33  O   UNL     1       0.883   1.905   2.316  0.00  0.00    -0.491 OA
ATOM     34  C   UNL     1      -0.466   2.049   2.765  0.00  0.00    +0.277 C 
ENDBRANCH   9  33
TORSDOF 3
