REMARK  Name = ZINC05194051
REMARK  3 active torsions:
REMARK  status: ('A' for Active; 'I' for Inactive)
REMARK    1  A    between atoms: C_1  and  C_2
REMARK    2  A    between atoms: N_14  and  C_15
REMARK    3  A    between atoms: N_20  and  C_22
REMARK                            x       y       z     vdW  Elec       q    Type
REMARK                         _______ _______ _______ _____ _____    ______ ____
ROOT
ATOM      1  C   UNL     1      -1.260  -0.826   0.020  0.00  0.00    +0.044 C 
ATOM      2  C   UNL     1       0.027  -0.042   0.010  0.00  0.00    -0.049 A 
ATOM      3  C   UNL     1       0.003   1.345   0.032  0.00  0.00    +0.005 A 
ATOM      4  C   UNL     1       1.159   2.081   0.023  0.00  0.00    +0.029 A 
ATOM      5  C   UNL     1       2.421   1.444  -0.008  0.00  0.00    +0.080 A 
ATOM      6  C   UNL     1       2.407   0.031  -0.029  0.00  0.00    +0.041 A 
ATOM      7  C   UNL     1       1.244  -0.698  -0.020  0.00  0.00    +0.020 A 
ATOM      8  S   UNL     1       4.139  -0.365  -0.064  0.00  0.00    -0.052 S 
ATOM      9  C   UNL     1       4.753   1.314  -0.049  0.00  0.00    +0.167 A 
ATOM     10  N   UNL     1       3.644   2.017  -0.019  0.00  0.00    -0.225 NA
ATOM     11  N   UNL     1       6.064   1.759  -0.064  0.00  0.00    -0.248 N 
ATOM     12  C   UNL     1       6.327   3.081  -0.048  0.00  0.00    +0.306 C 
ATOM     13  O   UNL     1       5.413   3.882  -0.021  0.00  0.00    -0.252 OA
ATOM     14  N   UNL     1       7.603   3.515  -0.062  0.00  0.00    -0.294 N 
ATOM     15  H   UNL     1       6.793   1.120  -0.085  0.00  0.00    +0.158 HD
ATOM     16  H   UNL     1       8.332   2.875  -0.084  0.00  0.00    +0.151 HD
ENDROOT
BRANCH  14  17
ATOM     17  C   UNL     1       7.889   4.951  -0.045  0.00  0.00    +0.101 C 
ATOM     18  C   UNL     1       8.038   5.503  -1.482  0.00  0.00    +0.120 C 
ATOM     19  C   UNL     1       9.142   6.532  -1.371  0.00  0.00    +0.222 C 
ATOM     20  O   UNL     1       9.379   7.388  -2.197  0.00  0.00    -0.275 OA
ATOM     21  N   UNL     1       9.822   6.359  -0.225  0.00  0.00    -0.269 N 
ATOM     22  C   UNL     1       9.289   5.230   0.546  0.00  0.00    +0.136 C 
BRANCH  21  23
ATOM     23  C   UNL     1      10.900   7.153   0.181  0.00  0.00    +0.039 A 
ATOM     24  C   UNL     1      11.412   8.120  -0.674  0.00  0.00    +0.024 A 
ATOM     25  C   UNL     1      12.472   8.908  -0.270  0.00  0.00    +0.005 A 
ATOM     26  C   UNL     1      13.033   8.726   0.981  0.00  0.00    +0.038 A 
ATOM     27  C   UNL     1      12.530   7.758   1.835  0.00  0.00    +0.125 A 
ATOM     28  C   UNL     1      11.463   6.971   1.437  0.00  0.00    +0.061 A 
ATOM     29  F   UNL     1      13.079   7.583   3.056  0.00  0.00    -0.205 F 
ENDBRANCH  21  23
ENDBRANCH  14  17
TORSDOF 2
