REMARK  Name = ZINC08153069
REMARK  11 active torsions:
REMARK  status: ('A' for Active; 'I' for Inactive)
REMARK    1  A    between atoms: C_1  and  C_2
REMARK    2  A    between atoms: C_6  and  N_9
REMARK    3  A    between atoms: C_7  and  C_8
REMARK    4  A    between atoms: C_10  and  C_12
REMARK    5  A    between atoms: C_12  and  N_54
REMARK    6  A    between atoms: C_13  and  N_54
REMARK    7  A    between atoms: C_14  and  C_15
REMARK    8  A    between atoms: C_14  and  N_54
REMARK    9  A    between atoms: N_17  and  C_18
REMARK   10  A    between atoms: C_21  and  N_24
REMARK   11  A    between atoms: C_25  and  C_27
REMARK                            x       y       z     vdW  Elec       q    Type
REMARK                         _______ _______ _______ _____ _____    ______ ____
ROOT
ATOM      1  C   UNL     1      -0.169   9.927   0.389  0.00  0.00    +0.019 C 
ENDROOT
BRANCH   1   2
ATOM      2  C   UNL     1      -0.142   8.420   0.366  0.00  0.00    +0.201 C 
ATOM      3  O   UNL     1       0.913   7.834   0.245  0.00  0.00    -0.278 OA
ATOM      4  N   UNL     1      -1.290   7.723   0.481  0.00  0.00    -0.287 N 
ATOM      5  H   UNL     1      -2.125   8.188   0.645  0.00  0.00    +0.155 HD
BRANCH   4   6
ATOM      6  C   UNL     1      -1.277   6.328   0.362  0.00  0.00    +0.033 A 
ATOM      7  C   UNL     1      -2.346   5.671  -0.233  0.00  0.00    +0.025 A 
ATOM      8  C   UNL     1      -2.333   4.296  -0.350  0.00  0.00    +0.025 A 
ATOM      9  C   UNL     1      -1.251   3.569   0.127  0.00  0.00    +0.033 A 
ATOM     10  C   UNL     1      -0.184   4.224   0.728  0.00  0.00    +0.025 A 
ATOM     11  C   UNL     1      -0.195   5.600   0.840  0.00  0.00    +0.025 A 
BRANCH   9  12
ATOM     12  N   UNL     1      -1.238   2.173   0.008  0.00  0.00    -0.286 N 
ATOM     13  C   UNL     1      -0.065   1.512  -0.036  0.00  0.00    +0.214 C 
ATOM     14  O   UNL     1       0.978   2.129  -0.083  0.00  0.00    -0.276 OA
ATOM     15  C   UNL     1      -0.049   0.005  -0.035  0.00  0.00    +0.109 C 
ATOM     16  H   UNL     1      -2.073   1.683  -0.042  0.00  0.00    +0.155 HD
ENDBRANCH   9  12
ENDBRANCH   4   6
ENDBRANCH   1   2
BRANCH   1  18
ATOM     17  C   UNL     1       2.017  10.091   1.416  0.00  0.00    -0.095 C 
ATOM     18  N   UNL     1       1.210  10.431   0.225  0.00  0.00    +0.389 N 
ATOM     19  H   UNL     1       1.631   9.989  -0.600  0.00  0.00    -0.081 HD
BRANCH  18  20
ATOM     20  C   UNL     1       1.192  11.896   0.029  0.00  0.00    +0.019 C 
BRANCH  20  22
ATOM     21  N   UNL     1       2.812  13.655  -0.605  0.00  0.00    -0.287 N 
ATOM     22  C   UNL     1       2.577  12.352  -0.353  0.00  0.00    +0.201 C 
ATOM     23  O   UNL     1       3.480  11.546  -0.435  0.00  0.00    -0.278 OA
ATOM     24  H   UNL     1       2.105  14.308  -0.481  0.00  0.00    +0.155 HD
BRANCH  21  30
ATOM     25  C   UNL     1       5.601  16.897  -3.030  0.00  0.00    +0.044 C 
ATOM     26  C   UNL     1       5.456  15.634  -2.221  0.00  0.00    -0.046 A 
ATOM     27  C   UNL     1       6.573  14.879  -1.912  0.00  0.00    +0.004 A 
ATOM     28  C   UNL     1       6.445  13.719  -1.171  0.00  0.00    +0.002 A 
ATOM     29  C   UNL     1       5.199  13.311  -0.736  0.00  0.00    +0.023 A 
ATOM     30  C   UNL     1       4.075  14.066  -1.044  0.00  0.00    +0.036 A 
ATOM     31  C   UNL     1       4.207  15.228  -1.794  0.00  0.00    -0.026 A 
ATOM     32  C   UNL     1       2.990  16.047  -2.136  0.00  0.00    +0.046 C 
ENDBRANCH  21  30
ENDBRANCH  20  22
ENDBRANCH  18  20
ENDBRANCH   1  18
TORSDOF 7
