REMARK  Name = ZINC39662399
REMARK  6 active torsions:
REMARK  status: ('A' for Active; 'I' for Inactive)
REMARK    1  A    between atoms: C_1  and  C_2
REMARK    2  A    between atoms: C_4  and  C_9
REMARK    3  A    between atoms: C_13  and  C_22
REMARK    4  A    between atoms: N_24  and  C_25
REMARK    5  A    between atoms: C_25  and  C_27
REMARK    6  A    between atoms: C_25  and  C_29
REMARK                            x       y       z     vdW  Elec       q    Type
REMARK                         _______ _______ _______ _____ _____    ______ ____
ROOT
ATOM      1  C   UNL     1      -0.063  -2.867  -2.753  0.00  0.00    +0.247 C 
ATOM      2  O   UNL     1      -0.209  -2.349  -3.842  0.00  0.00    -0.270 OA
ATOM      3  N   UNL     1       0.090  -4.203  -2.657  0.00  0.00    -0.296 N 
ATOM      4  C   UNL     1       0.149  -5.024  -1.425  0.00  0.00    +0.121 C 
ATOM      5  C   UNL     1      -0.645  -6.304  -1.770  0.00  0.00    +0.100 C 
ATOM      6  C   UNL     1      -0.582  -6.403  -3.304  0.00  0.00    -0.004 C 
ATOM      7  C   UNL     1       0.231  -5.183  -3.760  0.00  0.00    +0.115 C 
ATOM      8  C   UNL     1       0.118  -7.692  -3.721  0.00  0.00    -0.010 C 
ATOM      9  C   UNL     1       0.117  -7.796  -5.249  0.00  0.00    -0.082 C 
ATOM     10  N   UNL     1      -1.266  -7.785  -5.741  0.00  0.00    +0.379 N 
ATOM     11  C   UNL     1      -1.903  -6.503  -5.416  0.00  0.00    -0.082 C 
ATOM     12  C   UNL     1      -1.987  -6.345  -3.895  0.00  0.00    -0.010 C 
ATOM     13  H   UNL     1      -1.266  -7.915  -6.742  0.00  0.00    -0.086 HD
ATOM     14  H   UNL     1      -1.782  -8.536  -5.307  0.00  0.00    -0.086 HD
ENDROOT
BRANCH   1  18
ATOM     15  C   UNL     1      -1.256   1.377  -0.417  0.00  0.00    +0.045 C 
ATOM     16  C   UNL     1      -0.625   0.009  -0.404  0.00  0.00    -0.036 A 
ATOM     17  C   UNL     1      -0.637  -0.765  -1.546  0.00  0.00    +0.017 A 
ATOM     18  C   UNL     1      -0.053  -2.033  -1.533  0.00  0.00    +0.037 A 
ATOM     19  C   UNL     1       0.541  -2.510  -0.362  0.00  0.00    +0.014 A 
ATOM     20  C   UNL     1       0.547  -1.726   0.773  0.00  0.00    +0.016 A 
ATOM     21  C   UNL     1      -0.030  -0.467   0.752  0.00  0.00    +0.021 A 
ATOM     22 BR   UNL     1      -0.011   0.603   2.310  0.00  0.00    -0.050 Br
ENDBRANCH   1  18
BRANCH   5  23
ATOM     23  C   UNL     1      -2.074  -6.175  -1.309  0.00  0.00    +0.219 C 
ATOM     24  O   UNL     1      -2.604  -5.084  -1.274  0.00  0.00    -0.275 OA
ATOM     25  N   UNL     1      -2.763  -7.271  -0.935  0.00  0.00    -0.296 N 
ATOM     26  H   UNL     1      -2.339  -8.143  -0.962  0.00  0.00    +0.150 HD
BRANCH  25  27
ATOM     27  C   UNL     1      -4.152  -7.146  -0.486  0.00  0.00    +0.207 C 
BRANCH  27  28
ATOM     28  C   UNL     1      -4.494  -8.302   0.418  0.00  0.00    -0.013 A 
ATOM     29  C   UNL     1      -4.031  -9.571   0.123  0.00  0.00    +0.006 A 
ATOM     30  C   UNL     1      -4.345 -10.631   0.952  0.00  0.00    +0.000 A 
ATOM     31  C   UNL     1      -5.121 -10.423   2.077  0.00  0.00    +0.000 A 
ATOM     32  C   UNL     1      -5.583  -9.154   2.373  0.00  0.00    +0.000 A 
ATOM     33  C   UNL     1      -5.266  -8.093   1.546  0.00  0.00    +0.006 A 
ENDBRANCH  27  28
BRANCH  27  34
ATOM     34  C   UNL     1      -5.047  -7.155  -1.654  0.00  0.00    +0.090 C 
ATOM     35  N   UNL     1      -5.738  -7.161  -2.556  0.00  0.00    -0.194 NA
ENDBRANCH  27  34
ENDBRANCH  25  27
ENDBRANCH   5  23
TORSDOF 5
