REMARK  Name = ZINC40119662
REMARK  8 active torsions:
REMARK  status: ('A' for Active; 'I' for Inactive)
REMARK    1  A    between atoms: C_1  and  O_2
REMARK    2  A    between atoms: O_2  and  C_3
REMARK    3  A    between atoms: C_6  and  N_9
REMARK    4  A    between atoms: N_12  and  C_13
REMARK    5  A    between atoms: C_13  and  C_15
REMARK    6  A    between atoms: C_13  and  C_24
REMARK    7  A    between atoms: C_15  and  O_16
REMARK    8  A    between atoms: O_16  and  C_17
REMARK                            x       y       z     vdW  Elec       q    Type
REMARK                         _______ _______ _______ _____ _____    ______ ____
ROOT
ATOM      1  C   UNL     1       3.013  -5.911   5.531  0.00  0.00    +0.142 C 
ENDROOT
BRANCH   1   5
ATOM      2  N   UNL     1       2.540  -2.504   4.232  0.00  0.00    -0.269 N 
ATOM      3  C   UNL     1       2.512  -3.847   4.336  0.00  0.00    +0.304 C 
ATOM      4  O   UNL     1       2.007  -4.515   3.454  0.00  0.00    -0.252 OA
ATOM      5  N   UNL     1       3.043  -4.451   5.418  0.00  0.00    -0.289 N 
ATOM      6  H   UNL     1       3.010  -1.976   4.896  0.00  0.00    +0.156 HD
ATOM      7  H   UNL     1       3.446  -3.918   6.121  0.00  0.00    +0.151 HD
BRANCH   2  11
ATOM      8  C   UNL     1       0.608  -0.617   1.054  0.00  0.00    +0.120 A 
ATOM      9  C   UNL     1       0.085  -1.785   1.588  0.00  0.00    +0.047 A 
ATOM     10  C   UNL     1       0.724  -2.411   2.641  0.00  0.00    +0.027 A 
ATOM     11  C   UNL     1       1.891  -1.870   3.164  0.00  0.00    +0.035 A 
ATOM     12  C   UNL     1       2.414  -0.700   2.628  0.00  0.00    +0.027 A 
ATOM     13  C   UNL     1       1.776  -0.079   1.573  0.00  0.00    +0.047 A 
BRANCH   8  15
ATOM     14  C   UNL     1      -1.221  -0.611  -0.466  0.00  0.00    +0.277 C 
ATOM     15  O   UNL     1      -0.023  -0.002   0.018  0.00  0.00    -0.495 OA
ENDBRANCH   8  15
ENDBRANCH   2  11
ENDBRANCH   1   5
BRANCH   1  16
ATOM     16  C   UNL     1       1.693  -6.342   6.117  0.00  0.00    -0.024 A 
ATOM     17  C   UNL     1       1.120  -5.611   7.141  0.00  0.00    +0.005 A 
ATOM     18  C   UNL     1      -0.090  -6.006   7.680  0.00  0.00    +0.000 A 
ATOM     19  C   UNL     1      -0.728  -7.132   7.194  0.00  0.00    +0.000 A 
ATOM     20  C   UNL     1      -0.156  -7.862   6.169  0.00  0.00    +0.000 A 
ATOM     21  C   UNL     1       1.053  -7.465   5.628  0.00  0.00    +0.005 A 
ENDBRANCH   1  16
BRANCH   1  22
ATOM     22  C   UNL     1       4.151  -6.376   6.440  0.00  0.00    +0.256 C 
BRANCH  22  23
ATOM     23  O   UNL     1       3.931  -5.889   7.766  0.00  0.00    -0.487 OA
BRANCH  23  24
ATOM     24  C   UNL     1       4.859  -6.216   8.705  0.00  0.00    +0.156 A 
ATOM     25  C   UNL     1       5.960  -6.983   8.357  0.00  0.00    +0.048 A 
ATOM     26  C   UNL     1       6.901  -7.313   9.313  0.00  0.00    +0.004 A 
ATOM     27  C   UNL     1       6.746  -6.880  10.617  0.00  0.00    +0.003 A 
ATOM     28  C   UNL     1       5.649  -6.116  10.969  0.00  0.00    +0.042 A 
ATOM     29  C   UNL     1       4.707  -5.776  10.014  0.00  0.00    +0.165 A 
ATOM     30  F   UNL     1       3.639  -5.024  10.356  0.00  0.00    -0.202 F 
ENDBRANCH  23  24
ENDBRANCH  22  23
ENDBRANCH   1  22
TORSDOF 7
