REMARK  Name = ZINC01889472
REMARK  8 active torsions:
REMARK  status: ('A' for Active; 'I' for Inactive)
REMARK    1  A    between atoms: C_2  and  C_3
REMARK    2  A    between atoms: C_2  and  N_11
REMARK    3  A    between atoms: N_11  and  N_12
REMARK    4  A    between atoms: C_13  and  C_15
REMARK    5  A    between atoms: C_15  and  S_16
REMARK    6  A    between atoms: S_16  and  C_17
REMARK    7  A    between atoms: C_20  and  C_28
REMARK    8  A    between atoms: N_21  and  C_22
REMARK                            x       y       z     vdW  Elec       q    Type
REMARK                         _______ _______ _______ _____ _____    ______ ____
ROOT
ATOM      1  S   UNL     1       6.279  -1.007  -0.375  0.00  0.00    -0.076 S 
ENDROOT
BRANCH   1   2
ATOM      2  C   UNL     1       7.692   0.035  -0.517  0.00  0.00    +0.197 A 
ATOM      3  N   UNL     1       7.691   1.348  -0.571  0.00  0.00    -0.122 NA
ATOM      4  N   UNL     1       8.894   1.788  -0.674  0.00  0.00    -0.128 NA
ATOM      5  C   UNL     1       9.740   0.784  -0.692  0.00  0.00    +0.169 A 
ATOM      6  N   UNL     1       8.997  -0.371  -0.587  0.00  0.00    -0.270 N 
BRANCH   5   7
ATOM      7  C   UNL     1      11.211   0.877  -0.800  0.00  0.00    +0.020 A 
ATOM      8  C   UNL     1      11.962  -0.254  -1.125  0.00  0.00    +0.012 A 
ATOM      9  C   UNL     1      13.335  -0.161  -1.224  0.00  0.00    +0.016 A 
ATOM     10  C   UNL     1      13.968   1.050  -1.002  0.00  0.00    +0.018 A 
ATOM     11  C   UNL     1      13.228   2.175  -0.678  0.00  0.00    +0.016 A 
ATOM     12  C   UNL     1      11.854   2.097  -0.582  0.00  0.00    +0.012 A 
ATOM     13 BR   UNL     1      15.850   1.169  -1.139  0.00  0.00    -0.050 Br
ENDBRANCH   5   7
BRANCH   6  14
ATOM     14  C   UNL     1       9.478  -1.688  -0.559  0.00  0.00    +0.051 A 
ATOM     15  C   UNL     1      10.260  -2.121   0.503  0.00  0.00    +0.026 A 
ATOM     16  C   UNL     1      10.732  -3.419   0.528  0.00  0.00    +0.002 A 
ATOM     17  C   UNL     1      10.426  -4.286  -0.505  0.00  0.00    +0.000 A 
ATOM     18  C   UNL     1       9.648  -3.858  -1.564  0.00  0.00    +0.002 A 
ATOM     19  C   UNL     1       9.168  -2.563  -1.591  0.00  0.00    +0.026 A 
ENDBRANCH   6  14
ENDBRANCH   1   2
BRANCH   1  20
ATOM     20  C   UNL     1       4.883   0.150  -0.334  0.00  0.00    +0.174 C 
BRANCH  20  22
ATOM     21  N   UNL     1       2.418   0.034  -0.162  0.00  0.00    -0.236 N 
ATOM     22  C   UNL     1       3.594  -0.622  -0.212  0.00  0.00    +0.239 C 
ATOM     23  O   UNL     1       3.615  -1.833  -0.158  0.00  0.00    -0.273 OA
ATOM     24  H   UNL     1       2.401   1.003  -0.205  0.00  0.00    +0.173 HD
BRANCH  21  25
ATOM     25  N   UNL     1       1.220  -0.683  -0.049  0.00  0.00    -0.264 N 
ATOM     26  H   UNL     1       1.237  -1.652  -0.006  0.00  0.00    +0.170 HD
BRANCH  25  28
ATOM     27  C   UNL     1      -0.021   1.328  -0.057  0.00  0.00    +0.035 C 
ATOM     28  C   UNL     1       0.002  -0.004   0.002  0.00  0.00    +0.046 C 
BRANCH  28  29
ATOM     29  C   UNL     1      -1.264  -0.762   0.122  0.00  0.00    +0.015 A 
ATOM     30  C   UNL     1      -2.271  -0.599  -0.829  0.00  0.00    +0.012 A 
ATOM     31  C   UNL     1      -3.449  -1.307  -0.713  0.00  0.00    +0.021 A 
ATOM     32  C   UNL     1      -3.633  -2.180   0.346  0.00  0.00    +0.042 A 
ATOM     33  C   UNL     1      -2.638  -2.348   1.293  0.00  0.00    +0.040 A 
ATOM     34  C   UNL     1      -1.452  -1.648   1.184  0.00  0.00    +0.051 A 
ATOM     35 CL   UNL     1      -0.202  -1.864   2.369  0.00  0.00    -0.083 Cl
ATOM     36 CL   UNL     1      -5.119  -3.068   0.486  0.00  0.00    -0.083 Cl
ENDBRANCH  28  29
ENDBRANCH  25  28
ENDBRANCH  21  25
ENDBRANCH  20  22
ENDBRANCH   1  20
TORSDOF 8
