REMARK  Name = ZINC35556283
REMARK  8 active torsions:
REMARK  status: ('A' for Active; 'I' for Inactive)
REMARK    1  A    between atoms: C_1  and  C_2
REMARK    2  A    between atoms: C_5  and  N_9
REMARK    3  A    between atoms: C_10  and  C_12
REMARK    4  A    between atoms: N_17  and  S_19
REMARK    5  A    between atoms: S_19  and  C_22
REMARK    6  A    between atoms: C_24  and  C_28
REMARK    7  A    between atoms: C_26  and  C_27
REMARK    8  A    between atoms: C_30  and  C_33
REMARK                            x       y       z     vdW  Elec       q    Type
REMARK                         _______ _______ _______ _____ _____    ______ ____
ROOT
ATOM      1  C   UNL     1       0.306  -6.353   1.116  0.00  0.00    +0.091 C 
ATOM      2  C   UNL     1       1.560  -6.745   0.331  0.00  0.00    +0.015 C 
ATOM      3  C   UNL     1       1.678  -8.270   0.284  0.00  0.00    +0.018 C 
ATOM      4  C   UNL     1       1.812  -8.812   1.710  0.00  0.00    +0.109 C 
ATOM      5  N   UNL     1       0.683  -8.319   2.511  0.00  0.00    -0.176 NA
ATOM      6  C   UNL     1       0.424  -6.873   2.552  0.00  0.00    +0.122 C 
ENDROOT
BRANCH   1   8
ATOM      7  N   UNL     1       0.057  -4.171  -0.023  0.00  0.00    -0.285 N 
ATOM      8  C   UNL     1       0.174  -4.852   1.134  0.00  0.00    +0.222 C 
ATOM      9  O   UNL     1       0.172  -4.256   2.191  0.00  0.00    -0.275 OA
ATOM     10  H   UNL     1      -0.018  -4.652  -0.863  0.00  0.00    +0.155 HD
BRANCH   7  15
ATOM     11  C   UNL     1       0.013   1.503   0.016  0.00  0.00    +0.047 C 
ATOM     12  C   UNL     1       0.024  -0.004   0.005  0.00  0.00    -0.015 A 
ATOM     13  C   UNL     1       0.779  -0.695   0.935  0.00  0.00    +0.008 A 
ATOM     14  C   UNL     1       0.791  -2.076   0.928  0.00  0.00    +0.024 A 
ATOM     15  C   UNL     1       0.045  -2.772  -0.014  0.00  0.00    +0.036 A 
ATOM     16  C   UNL     1      -0.713  -2.078  -0.947  0.00  0.00    +0.062 A 
ATOM     17  C   UNL     1      -0.726  -0.694  -0.932  0.00  0.00    +0.128 A 
ATOM     18  F   UNL     1      -1.467  -0.016  -1.836  0.00  0.00    -0.205 F 
ENDBRANCH   7  15
ENDBRANCH   1   8
BRANCH   5  19
ATOM     19  S   UNL     1      -0.279  -9.372   3.353  0.00  0.00    +0.062 S 
ATOM     20  O   UNL     1      -1.529  -8.722   3.536  0.00  0.00    -0.153 OA
ATOM     21  O   UNL     1      -0.163 -10.632   2.707  0.00  0.00    -0.153 OA
BRANCH  19  22
ATOM     22  C   UNL     1       0.430  -9.560   4.954  0.00  0.00    +0.116 A 
ATOM     23  C   UNL     1      -0.249  -9.132   6.072  0.00  0.00    +0.048 A 
ATOM     24  C   UNL     1       0.335  -9.295   7.301  0.00  0.00    +0.062 A 
ATOM     25  S   UNL     1       1.883 -10.072   6.872  0.00  0.00    -0.088 S 
ATOM     26  C   UNL     1       1.653 -10.134   5.102  0.00  0.00    +0.014 A 
ATOM     27  C   UNL     1       2.577 -10.681   4.045  0.00  0.00    +0.053 C 
BRANCH  24  28
ATOM     28  C   UNL     1      -0.183  -8.923   8.633  0.00  0.00    +0.209 A 
ATOM     29  N   UNL     1       0.455  -9.111   9.805  0.00  0.00    -0.191 NA
ATOM     30  C   UNL     1      -0.279  -8.672  10.787  0.00  0.00    +0.231 A 
ATOM     31  O   UNL     1      -1.419  -8.183  10.282  0.00  0.00    -0.337 OA
ATOM     32  N   UNL     1      -1.339  -8.349   8.874  0.00  0.00    -0.056 NA
BRANCH  30  33
ATOM     33  C   UNL     1       0.093  -8.707  12.247  0.00  0.00    +0.078 C 
ATOM     34  C   UNL     1      -1.093  -9.011  13.178  0.00  0.00    +0.013 C 
ATOM     35  C   UNL     1      -0.510  -7.958  14.135  0.00  0.00    +0.001 C 
ATOM     36  C   UNL     1       0.150  -7.317  12.902  0.00  0.00    +0.013 C 
ENDBRANCH  30  33
ENDBRANCH  24  28
ENDBRANCH  19  22
ENDBRANCH   5  19
TORSDOF 6
