REMARK  Name = ZINC08595529
REMARK  6 active torsions:
REMARK  status: ('A' for Active; 'I' for Inactive)
REMARK    1  A    between atoms: C_1  and  O_2
REMARK    2  A    between atoms: O_2  and  C_3
REMARK    3  A    between atoms: C_6  and  N_9
REMARK    4  A    between atoms: N_21  and  C_24
REMARK    5  A    between atoms: C_24  and  C_25
REMARK    6  A    between atoms: N_27  and  C_28
REMARK                            x       y       z     vdW  Elec       q    Type
REMARK                         _______ _______ _______ _____ _____    ______ ____
ROOT
ATOM      1  N   UNL     1       2.610  -2.511   4.249  0.00  0.00    -0.243 N 
ATOM      2  C   UNL     1       3.261  -1.818   5.182  0.00  0.00    +0.231 C 
ATOM      3  O   UNL     1       3.324  -0.607   5.137  0.00  0.00    -0.274 OA
ATOM      4  C   UNL     1       3.921  -2.602   6.307  0.00  0.00    +0.168 C 
ATOM      5  S   UNL     1       3.113  -4.249   6.088  0.00  0.00    -0.111 S 
ATOM      6  C   UNL     1       2.552  -3.965   4.366  0.00  0.00    +0.192 C 
ATOM      7  C   UNL     1       1.182  -4.527   4.148  0.00  0.00    +0.017 A 
ATOM      8  C   UNL     1      -0.050  -4.291   4.717  0.00  0.00    +0.009 A 
ATOM      9  C   UNL     1      -1.160  -4.995   4.286  0.00  0.00    +0.000 A 
ATOM     10  C   UNL     1      -1.030  -5.938   3.282  0.00  0.00    +0.002 A 
ATOM     11  C   UNL     1       0.201  -6.178   2.708  0.00  0.00    +0.024 A 
ATOM     12  C   UNL     1       1.324  -5.474   3.135  0.00  0.00    +0.043 A 
ATOM     13  N   UNL     1       2.655  -5.536   2.715  0.00  0.00    -0.259 N 
ATOM     14  C   UNL     1       3.443  -4.676   3.392  0.00  0.00    +0.259 C 
ATOM     15  O   UNL     1       4.635  -4.511   3.243  0.00  0.00    -0.272 OA
ENDROOT
BRANCH   1  19
ATOM     16  C   UNL     1       0.758  -0.561   1.062  0.00  0.00    +0.120 A 
ATOM     17  C   UNL     1       0.299  -0.365   2.357  0.00  0.00    +0.047 A 
ATOM     18  C   UNL     1       0.912  -1.010   3.412  0.00  0.00    +0.027 A 
ATOM     19  C   UNL     1       1.988  -1.857   3.178  0.00  0.00    +0.039 A 
ATOM     20  C   UNL     1       2.446  -2.053   1.883  0.00  0.00    +0.027 A 
ATOM     21  C   UNL     1       1.829  -1.411   0.827  0.00  0.00    +0.047 A 
BRANCH  16  23
ATOM     22  C   UNL     1      -0.942   0.935   0.338  0.00  0.00    +0.277 C 
ATOM     23  O   UNL     1       0.154   0.074   0.023  0.00  0.00    -0.495 OA
ENDBRANCH  16  23
ENDBRANCH   1  19
BRANCH  13  24
ATOM     24  C   UNL     1       3.139  -6.433   1.662  0.00  0.00    +0.209 C 
BRANCH  24  25
ATOM     25  C   UNL     1       3.045  -5.737   0.328  0.00  0.00    +0.235 C 
ATOM     26  O   UNL     1       2.616  -4.605   0.264  0.00  0.00    -0.274 OA
ATOM     27  N   UNL     1       3.438  -6.374  -0.793  0.00  0.00    -0.282 N 
ATOM     28  H   UNL     1       3.728  -7.299  -0.749  0.00  0.00    +0.155 HD
BRANCH  27  29
ATOM     29  C   UNL     1       3.427  -5.701  -2.021  0.00  0.00    +0.069 A 
ATOM     30  C   UNL     1       2.566  -4.631  -2.220  0.00  0.00    +0.026 A 
ATOM     31  C   UNL     1       2.558  -3.968  -3.432  0.00  0.00    +0.002 A 
ATOM     32  C   UNL     1       3.406  -4.370  -4.448  0.00  0.00    +0.003 A 
ATOM     33  C   UNL     1       4.266  -5.435  -4.255  0.00  0.00    +0.040 A 
ATOM     34  C   UNL     1       4.283  -6.099  -3.042  0.00  0.00    +0.144 A 
ATOM     35  F   UNL     1       5.127  -7.137  -2.850  0.00  0.00    -0.204 F 
ENDBRANCH  27  29
ENDBRANCH  24  25
ENDBRANCH  13  24
TORSDOF 5
