REMARK  Name = ZINC08962495
REMARK  5 active torsions:
REMARK  status: ('A' for Active; 'I' for Inactive)
REMARK    1  A    between atoms: C_1  and  O_2
REMARK    2  A    between atoms: O_2  and  C_3
REMARK    3  A    between atoms: C_6  and  S_10
REMARK    4  A    between atoms: S_10  and  N_13
REMARK    5  A    between atoms: N_13  and  C_14
REMARK                            x       y       z     vdW  Elec       q    Type
REMARK                         _______ _______ _______ _____ _____    ______ ____
ROOT
ATOM      1  N   UNL     1      -1.238   2.068   0.019  0.00  0.00    -0.216 N 
ATOM      2  H   UNL     1      -1.374   2.826  -0.570  0.00  0.00    +0.174 HD
ENDROOT
BRANCH   1   3
ATOM      3  C   UNL     1      -0.017   1.385   0.010  0.00  0.00    +0.048 A 
ATOM      4  C   UNL     1       0.002  -0.004   0.002  0.00  0.00    +0.026 A 
ATOM      5  C   UNL     1       1.207  -0.678  -0.013  0.00  0.00    +0.025 A 
ATOM      6  C   UNL     1       2.400   0.032  -0.021  0.00  0.00    +0.037 A 
ATOM      7  C   UNL     1       2.381   1.421  -0.013  0.00  0.00    -0.024 A 
ATOM      8  C   UNL     1       1.177   2.095   0.002  0.00  0.00    +0.030 A 
ATOM      9  C   UNL     1       3.677   2.188  -0.023  0.00  0.00    +0.046 C 
ATOM     10  C   UNL     1       4.734   1.416   0.768  0.00  0.00    +0.101 C 
ATOM     11  C   UNL     1       4.758  -0.022   0.324  0.00  0.00    +0.218 C 
ATOM     12  O   UNL     1       5.811  -0.622   0.290  0.00  0.00    -0.275 OA
ATOM     13  N   UNL     1       3.623  -0.649  -0.037  0.00  0.00    -0.285 N 
ATOM     14  H   UNL     1       3.653  -1.580  -0.309  0.00  0.00    +0.155 HD
ENDBRANCH   1   3
BRANCH   1  15
ATOM     15  S   UNL     1      -2.450   1.582   1.036  0.00  0.00    +0.072 S 
ATOM     16  O   UNL     1      -3.535   2.477   0.833  0.00  0.00    -0.150 OA
ATOM     17  O   UNL     1      -2.582   0.177   0.870  0.00  0.00    -0.150 OA
BRANCH  15  21
ATOM     18  C   UNL     1      -0.995   2.251   5.273  0.00  0.00    +0.138 A 
ATOM     19  C   UNL     1      -0.760   1.039   4.640  0.00  0.00    +0.049 A 
ATOM     20  C   UNL     1      -1.209   0.836   3.350  0.00  0.00    +0.032 A 
ATOM     21  C   UNL     1      -1.884   1.843   2.684  0.00  0.00    +0.110 A 
ATOM     22  C   UNL     1      -2.121   3.051   3.312  0.00  0.00    +0.052 A 
ATOM     23  C   UNL     1      -1.678   3.258   4.605  0.00  0.00    +0.084 A 
ATOM     24 CL   UNL     1      -1.975   4.776   5.393  0.00  0.00    -0.080 Cl
BRANCH  18  26
ATOM     25  C   UNL     1       0.137   1.370   7.169  0.00  0.00    +0.277 C 
ATOM     26  O   UNL     1      -0.558   2.451   6.544  0.00  0.00    -0.494 OA
ENDBRANCH  18  26
ENDBRANCH  15  21
ENDBRANCH   1  15
TORSDOF 4
