REMARK  Name = ZINC13616838
REMARK  9 active torsions:
REMARK  status: ('A' for Active; 'I' for Inactive)
REMARK    1  A    between atoms: C_1  and  C_2
REMARK    2  A    between atoms: C_5  and  N_31
REMARK    3  A    between atoms: C_7  and  N_8
REMARK    4  A    between atoms: C_9  and  C_11
REMARK    5  A    between atoms: C_11  and  O_12
REMARK    6  A    between atoms: O_12  and  C_13
REMARK    7  A    between atoms: C_16  and  C_21
REMARK    8  A    between atoms: C_18  and  O_19
REMARK    9  A    between atoms: O_19  and  C_20
REMARK                            x       y       z     vdW  Elec       q    Type
REMARK                         _______ _______ _______ _____ _____    ______ ____
ROOT
ATOM      1  C   UNL     1      -3.846   7.290  -0.057  0.00  0.00    +0.163 A 
ATOM      2  C   UNL     1      -3.775   5.904   0.025  0.00  0.00    +0.050 A 
ATOM      3  C   UNL     1      -2.554   5.278   0.130  0.00  0.00    +0.012 A 
ATOM      4  C   UNL     1      -1.377   6.041   0.164  0.00  0.00    -0.020 A 
ATOM      5  C   UNL     1      -1.451   7.440   0.081  0.00  0.00    +0.057 A 
ATOM      6  C   UNL     1      -2.680   8.056  -0.029  0.00  0.00    +0.162 A 
ENDROOT
BRANCH   4   7
ATOM      7  C   UNL     1      -0.077   5.380   0.280  0.00  0.00    +0.026 C 
ATOM      8  C   UNL     1       0.104   4.369   1.204  0.00  0.00    +0.101 C 
ATOM      9  C   UNL     1       1.330   3.546   1.216  0.00  0.00    +0.276 C 
ATOM     10  O   UNL     1       2.219   3.737   0.409  0.00  0.00    -0.268 OA
ATOM     11  N   UNL     1       1.436   2.576   2.148  0.00  0.00    -0.123 NA
ATOM     12  C   UNL     1       0.464   2.355   3.044  0.00  0.00    +0.333 C 
ATOM     13  O   UNL     1       0.623   1.466   3.857  0.00  0.00    -0.250 OA
ATOM     14  N   UNL     1      -0.676   3.059   3.089  0.00  0.00    -0.234 N 
ATOM     15  C   UNL     1      -0.919   4.064   2.223  0.00  0.00    +0.257 C 
ATOM     16  O   UNL     1      -1.956   4.698   2.277  0.00  0.00    -0.270 OA
ATOM     17  H   UNL     1      -1.439   2.822   3.845  0.00  0.00    +0.159 HD
ENDBRANCH   4   7
BRANCH   6  18
ATOM     18  O   UNL     1      -2.755   9.412  -0.110  0.00  0.00    -0.491 OA
ATOM     19  C   UNL     1      -1.523  10.133  -0.075  0.00  0.00    +0.277 C 
ENDBRANCH   6  18
BRANCH   1  20
ATOM     20  O   UNL     1      -5.053   7.899  -0.165  0.00  0.00    -0.479 OA
BRANCH  20  21
ATOM     21  C   UNL     1      -6.207   7.056  -0.187  0.00  0.00    +0.325 C 
BRANCH  21  23
ATOM     22  N   UNL     1      -8.661   7.319  -0.351  0.00  0.00    -0.282 N 
ATOM     23  C   UNL     1      -7.447   7.903  -0.310  0.00  0.00    +0.255 C 
ATOM     24  O   UNL     1      -7.352   9.111  -0.373  0.00  0.00    -0.272 OA
ATOM     25  H   UNL     1      -8.751   6.229  -0.235  0.00  0.00    +0.155 HD
BRANCH  22  32
ATOM     26  C   UNL     1     -10.841   6.179  -1.780  0.00  0.00    +0.045 C 
ATOM     27  C   UNL     1     -10.894   7.582  -1.233  0.00  0.00    -0.029 A 
ATOM     28  C   UNL     1     -12.023   8.355  -1.419  0.00  0.00    +0.007 A 
ATOM     29  C   UNL     1     -12.072   9.642  -0.918  0.00  0.00    +0.033 A 
ATOM     30  C   UNL     1     -10.991  10.161  -0.229  0.00  0.00    +0.128 A 
ATOM     31  C   UNL     1      -9.861   9.392  -0.035  0.00  0.00    +0.056 A 
ATOM     32  C   UNL     1      -9.806   8.100  -0.542  0.00  0.00    +0.039 A 
BRANCH  30  33
ATOM     33  N   UNL     1     -11.048  11.539   0.307  0.00  0.00    +0.056 N 
ATOM     34  O   UNL     1     -12.046  12.217   0.141  0.00  0.00    -0.126 OA
ATOM     35  O   UNL     1     -10.096  11.997   0.913  0.00  0.00    -0.126 OA
ENDBRANCH  30  33
ENDBRANCH  22  32
ENDBRANCH  21  23
ENDBRANCH  20  21
ENDBRANCH   1  20
TORSDOF 7
