REMARK  Name = ZINC43761877
REMARK  3 active torsions:
REMARK  status: ('A' for Active; 'I' for Inactive)
REMARK    1  A    between atoms: C_6  and  C_15
REMARK    2  A    between atoms: C_6  and  O_30
REMARK    3  A    between atoms: C_15  and  O_29
REMARK                            x       y       z     vdW  Elec       q    Type
REMARK                         _______ _______ _______ _____ _____    ______ ____
ROOT
ATOM      1  C   UNL     1      -0.726   0.759  -0.053  0.00  0.00    +0.004 C 
ATOM      2  C   UNL     1       0.670   1.506  -0.100  0.00  0.00    +0.004 C 
ATOM      3  C   UNL     1       1.343   0.685  -1.129  0.00  0.00    -0.004 C 
ATOM      4  C   UNL     1       2.678   0.404  -1.732  0.00  0.00    +0.041 C 
ATOM      5  C   UNL     1       2.451  -1.043  -2.375  0.00  0.00    +0.098 C 
ATOM      6  C   UNL     1       1.041  -1.333  -2.002  0.00  0.00    +0.027 C 
ATOM      7  C   UNL     1       1.082  -0.748  -0.534  0.00  0.00    +0.001 C 
ATOM      8  C   UNL     1      -0.360  -0.753  -0.014  0.00  0.00    -0.007 C 
ATOM      9  C   UNL     1      -1.098  -1.575  -1.109  0.00  0.00    +0.004 C 
ATOM     10  C   UNL     1       0.025  -2.384  -1.842  0.00  0.00    +0.007 C 
ENDROOT
BRANCH   5  11
ATOM     11  C   UNL     1       3.401  -2.070  -1.756  0.00  0.00    +0.098 C 
ATOM     12  C   UNL     1       3.086  -3.474  -2.313  0.00  0.00    +0.041 C 
ATOM     13  C   UNL     1       4.110  -3.734  -3.442  0.00  0.00    -0.004 C 
ATOM     14  C   UNL     1       4.566  -5.220  -3.397  0.00  0.00    +0.004 C 
ATOM     15  C   UNL     1       5.666  -5.302  -2.287  0.00  0.00    +0.004 C 
ATOM     16  C   UNL     1       5.592  -3.964  -1.655  0.00  0.00    -0.007 C 
ATOM     17  C   UNL     1       5.337  -2.976  -2.887  0.00  0.00    +0.001 C 
ATOM     18  C   UNL     1       4.864  -1.719  -2.127  0.00  0.00    +0.027 C 
ATOM     19  C   UNL     1       5.723  -1.731  -0.823  0.00  0.00    +0.007 C 
ATOM     20  C   UNL     1       6.515  -3.148  -0.821  0.00  0.00    +0.004 C 
BRANCH  11  21
ATOM     21  O   UNL     1       3.251  -2.071  -0.335  0.00  0.00    -0.385 OA
ATOM     22  H   UNL     1       3.729  -2.783   0.111  0.00  0.00    +0.210 HD
ENDBRANCH  11  21
ENDBRANCH   5  11
BRANCH   5  23
ATOM     23  O   UNL     1       2.603  -0.999  -3.796  0.00  0.00    -0.385 OA
ATOM     24  H   UNL     1       1.990  -0.395  -4.238  0.00  0.00    +0.210 HD
ENDBRANCH   5  23
TORSDOF 3
