REMARK  Name = ZINC38905645
REMARK  8 active torsions:
REMARK  status: ('A' for Active; 'I' for Inactive)
REMARK    1  A    between atoms: C_1  and  C_2
REMARK    2  A    between atoms: C_5  and  C_8
REMARK    3  A    between atoms: C_8  and  C_10
REMARK    4  A    between atoms: C_8  and  N_11
REMARK    5  A    between atoms: C_12  and  C_14
REMARK    6  A    between atoms: N_19  and  C_21
REMARK    7  A    between atoms: C_21  and  C_22
REMARK    8  A    between atoms: C_24  and  C_27
REMARK                            x       y       z     vdW  Elec       q    Type
REMARK                         _______ _______ _______ _____ _____    ______ ____
ROOT
ATOM      1  C   UNL     1       2.460  -6.468   1.999  0.00  0.00    +0.058 C 
ATOM      2  C   UNL     1       1.703  -6.539   3.329  0.00  0.00    +0.009 C 
ATOM      3  C   UNL     1       2.629  -7.118   4.402  0.00  0.00    -0.018 C 
ATOM      4  C   UNL     1       3.132  -8.490   3.948  0.00  0.00    -0.078 C 
ATOM      5  N   UNL     1       3.870  -8.351   2.686  0.00  0.00    +0.386 N 
ATOM      6  C   UNL     1       2.971  -7.864   1.633  0.00  0.00    -0.065 C 
ATOM      7  H   UNL     1       4.626  -7.695   2.810  0.00  0.00    -0.081 HD
ENDROOT
BRANCH   1   9
ATOM      8  N   UNL     1       0.959  -4.758   1.029  0.00  0.00    -0.309 N 
ATOM      9  C   UNL     1       1.534  -5.972   0.919  0.00  0.00    +0.215 C 
ATOM     10  O   UNL     1       1.306  -6.665  -0.050  0.00  0.00    -0.276 OA
ATOM     11  H   UNL     1       1.142  -4.204   1.804  0.00  0.00    +0.149 HD
BRANCH   8  12
ATOM     12  C   UNL     1       0.059  -4.275  -0.021  0.00  0.00    +0.100 C 
ATOM     13  C   UNL     1      -1.353  -4.805   0.234  0.00  0.00    +0.033 C 
BRANCH  12  18
ATOM     14  C   UNL     1      -0.018   1.503   0.010  0.00  0.00    +0.044 C 
ATOM     15  C   UNL     1       0.002  -0.004   0.002  0.00  0.00    -0.050 A 
ATOM     16  C   UNL     1       0.006  -0.689  -1.199  0.00  0.00    +0.004 A 
ATOM     17  C   UNL     1       0.025  -2.071  -1.206  0.00  0.00    +0.006 A 
ATOM     18  C   UNL     1       0.040  -2.768  -0.013  0.00  0.00    -0.027 A 
ATOM     19  C   UNL     1       0.037  -2.084   1.188  0.00  0.00    +0.006 A 
ATOM     20  C   UNL     1       0.023  -0.702   1.195  0.00  0.00    +0.004 A 
ENDBRANCH  12  18
ENDBRANCH   8  12
ENDBRANCH   1   9
BRANCH   5  21
ATOM     21  C   UNL     1       4.418  -9.657   2.294  0.00  0.00    +0.022 C 
BRANCH  21  22
ATOM     22  C   UNL     1       5.441 -10.097   3.309  0.00  0.00    +0.211 A 
ATOM     23  N   UNL     1       5.201 -10.808   4.373  0.00  0.00    -0.193 NA
ATOM     24  C   UNL     1       6.341 -11.018   5.054  0.00  0.00    +0.202 A 
ATOM     25  N   UNL     1       7.324 -10.432   4.416  0.00  0.00    -0.056 NA
ATOM     26  O   UNL     1       6.752  -9.828   3.265  0.00  0.00    -0.340 OA
BRANCH  24  27
ATOM     27  C   UNL     1       6.466 -11.785   6.319  0.00  0.00    +0.023 A 
ATOM     28  C   UNL     1       5.340 -12.366   6.898  0.00  0.00    +0.013 A 
ATOM     29  C   UNL     1       5.461 -13.078   8.074  0.00  0.00    +0.016 A 
ATOM     30  C   UNL     1       6.699 -13.215   8.678  0.00  0.00    +0.018 A 
ATOM     31  C   UNL     1       7.820 -12.639   8.108  0.00  0.00    +0.016 A 
ATOM     32  C   UNL     1       7.711 -11.930   6.928  0.00  0.00    +0.013 A 
ATOM     33 BR   UNL     1       6.857 -14.191  10.290  0.00  0.00    -0.050 Br
ENDBRANCH  24  27
ENDBRANCH  21  22
ENDBRANCH   5  21
TORSDOF 6
