REMARK  Name = ZINC09318292
REMARK  7 active torsions:
REMARK  status: ('A' for Active; 'I' for Inactive)
REMARK    1  A    between atoms: C_1  and  C_2
REMARK    2  A    between atoms: C_4  and  N_39
REMARK    3  A    between atoms: C_7  and  N_8
REMARK    4  A    between atoms: C_23  and  C_29
REMARK    5  A    between atoms: C_29  and  C_31
REMARK    6  A    between atoms: C_34  and  O_37
REMARK    7  A    between atoms: O_37  and  C_38
REMARK                            x       y       z     vdW  Elec       q    Type
REMARK                         _______ _______ _______ _____ _____    ______ ____
ROOT
ATOM      1  N   UNL     1       6.795  -0.495   0.148  0.00  0.00    -0.210 N 
ATOM      2  C   UNL     1       5.889   0.492   0.065  0.00  0.00    +0.232 C 
ATOM      3  O   UNL     1       5.945   1.556   0.642  0.00  0.00    -0.274 OA
ATOM      4  C   UNL     1       4.780   0.047  -0.876  0.00  0.00    +0.113 C 
ATOM      5  C   UNL     1       3.721  -0.700  -0.056  0.00  0.00    +0.100 C 
ATOM      6  C   UNL     1       2.416   0.052  -0.027  0.00  0.00    -0.021 A 
ATOM      7  C   UNL     1       2.384   1.427  -0.016  0.00  0.00    +0.006 A 
ATOM      8  C   UNL     1       1.168   2.090   0.002  0.00  0.00    +0.000 A 
ATOM      9  C   UNL     1      -0.017   1.375   0.010  0.00  0.00    +0.001 A 
ATOM     10  C   UNL     1       0.002  -0.004   0.002  0.00  0.00    +0.008 A 
ATOM     11  C   UNL     1       1.223  -0.681  -0.016  0.00  0.00    -0.019 A 
ATOM     12  C   UNL     1       1.254  -2.158  -0.017  0.00  0.00    +0.022 C 
ATOM     13  C   UNL     1       2.383  -2.795  -0.388  0.00  0.00    +0.054 C 
ATOM     14  C   UNL     1       4.439  -2.195  -1.788  0.00  0.00    +0.141 C 
ATOM     15  C   UNL     1       5.494  -1.086  -1.676  0.00  0.00    +0.116 C 
ATOM     16  C   UNL     1       6.596  -1.498  -0.723  0.00  0.00    +0.232 C 
ATOM     17  O   UNL     1       7.194  -2.552  -0.743  0.00  0.00    -0.274 OA
ATOM     18  N   UNL     1       3.715  -2.074  -0.494  0.00  0.00    -0.384 NA
ATOM     19  H   UNL     1       4.312  -2.563   0.183  0.00  0.00    +0.127 HD
ENDROOT
BRANCH   1  26
ATOM     20  C   UNL     1       9.255   0.687  -0.662  0.00  0.00    +0.046 C 
ATOM     21  C   UNL     1       9.073   0.086   0.708  0.00  0.00    -0.026 A 
ATOM     22  C   UNL     1      10.116   0.103   1.614  0.00  0.00    +0.038 A 
ATOM     23  C   UNL     1       9.952  -0.453   2.870  0.00  0.00    +0.127 A 
ATOM     24  C   UNL     1       8.743  -1.023   3.224  0.00  0.00    +0.034 A 
ATOM     25  C   UNL     1       7.695  -1.038   2.325  0.00  0.00    +0.026 A 
ATOM     26  C   UNL     1       7.857  -0.481   1.063  0.00  0.00    +0.047 A 
BRANCH  23  27
ATOM     27  N   UNL     1      11.073  -0.438   3.836  0.00  0.00    +0.056 N 
ATOM     28  O   UNL     1      10.930  -0.927   4.942  0.00  0.00    -0.126 OA
ATOM     29  O   UNL     1      12.139   0.063   3.525  0.00  0.00    -0.126 OA
ENDBRANCH  23  27
ENDBRANCH   1  26
BRANCH  14  30
ATOM     30  C   UNL     1       5.094  -3.541  -1.621  0.00  0.00    +0.183 C 
ATOM     31  O   UNL     1       4.964  -4.155  -0.583  0.00  0.00    -0.290 OA
BRANCH  30  32
ATOM     32  C   UNL     1       5.891  -4.111  -2.716  0.00  0.00    +0.019 A 
ATOM     33  C   UNL     1       6.038  -3.407  -3.918  0.00  0.00    +0.015 A 
ATOM     34  C   UNL     1       6.787  -3.942  -4.935  0.00  0.00    +0.046 A 
ATOM     35  C   UNL     1       7.390  -5.185  -4.779  0.00  0.00    +0.120 A 
ATOM     36  C   UNL     1       7.243  -5.890  -3.589  0.00  0.00    +0.046 A 
ATOM     37  C   UNL     1       6.500  -5.362  -2.564  0.00  0.00    +0.015 A 
BRANCH  35  38
ATOM     38  O   UNL     1       8.126  -5.711  -5.790  0.00  0.00    -0.495 OA
ATOM     39  C   UNL     1       8.237  -4.934  -6.984  0.00  0.00    +0.277 C 
ENDBRANCH  35  38
ENDBRANCH  30  32
ENDBRANCH  14  30
TORSDOF 5
