REMARK  Name = ZINC36564895
REMARK  21 active torsions:
REMARK  status: ('A' for Active; 'I' for Inactive)
REMARK    1  A    between atoms: C_1  and  C_2
REMARK    2  A    between atoms: C_2  and  C_3
REMARK    3  A    between atoms: C_3  and  C_4
REMARK    4  A    between atoms: C_4  and  C_5
REMARK    5  A    between atoms: C_5  and  C_6
REMARK    6  A    between atoms: C_6  and  C_8
REMARK    7  A    between atoms: C_6  and  N_15
REMARK    8  A    between atoms: N_10  and  C_11
REMARK    9  A    between atoms: C_11  and  C_12
REMARK   10  A    between atoms: C_12  and  C_13
REMARK   11  A    between atoms: C_13  and  C_14
REMARK   12  A    between atoms: N_15  and  C_16
REMARK   13  A    between atoms: C_16  and  C_17
REMARK   14  A    between atoms: C_17  and  C_18
REMARK   15  A    between atoms: C_19  and  C_21
REMARK   16  A    between atoms: C_21  and  C_23
REMARK   17  A    between atoms: C_21  and  C_25
REMARK   18  A    between atoms: C_23  and  C_24
REMARK   19  A    between atoms: C_25  and  C_26
REMARK   20  A    between atoms: C_26  and  C_27
REMARK   21  A    between atoms: C_27  and  C_28
REMARK                            x       y       z     vdW  Elec       q    Type
REMARK                         _______ _______ _______ _____ _____    ______ ____
ROOT
ATOM      1  C   UNL     1       1.026  -4.309  -2.512  0.00  0.00    +0.162 C 
ENDROOT
BRANCH   1   2
ATOM      2  C   UNL     1       1.425  -5.047  -3.764  0.00  0.00    +0.234 C 
ATOM      3  O   UNL     1       2.463  -5.675  -3.793  0.00  0.00    -0.274 OA
ATOM      4  N   UNL     1       0.630  -5.009  -4.851  0.00  0.00    -0.314 N 
ATOM      5  H   UNL     1      -0.200  -4.507  -4.828  0.00  0.00    +0.149 HD
BRANCH   4   6
ATOM      6  C   UNL     1       1.018  -5.727  -6.068  0.00  0.00    +0.104 C 
BRANCH   6   7
ATOM      7  C   UNL     1      -0.050  -5.523  -7.144  0.00  0.00    +0.018 C 
BRANCH   7   8
ATOM      8  C   UNL     1       0.355  -6.272  -8.414  0.00  0.00    -0.002 C 
ATOM      9  C   UNL     1      -0.713  -6.068  -9.490  0.00  0.00    +0.004 C 
ENDBRANCH   7   8
ENDBRANCH   6   7
ENDBRANCH   4   6
ENDBRANCH   1   2
BRANCH   1  10
ATOM     10  N   UNL     1       2.049  -4.504  -1.482  0.00  0.00    -0.290 N 
ATOM     11  C   UNL     1       1.723  -5.085  -0.311  0.00  0.00    +0.219 C 
ATOM     12  O   UNL     1       0.608  -5.530  -0.144  0.00  0.00    -0.275 OA
BRANCH  10  13
ATOM     13  C   UNL     1       3.426  -4.068  -1.726  0.00  0.00    +0.108 C 
BRANCH  13  14
ATOM     14  C   UNL     1       3.637  -2.679  -1.119  0.00  0.00    +0.016 C 
ATOM     15  C   UNL     1       5.075  -2.224  -1.374  0.00  0.00    +0.005 C 
ENDBRANCH  13  14
ENDBRANCH  10  13
BRANCH  11  16
ATOM     16  C   UNL     1       2.745  -5.181   0.793  0.00  0.00    +0.075 C 
BRANCH  16  17
ATOM     17  C   UNL     1       3.081  -6.651   1.050  0.00  0.00    +0.009 C 
ATOM     18  C   UNL     1       3.778  -7.239  -0.179  0.00  0.00    +0.004 C 
ENDBRANCH  16  17
BRANCH  16  19
ATOM     19  C   UNL     1       2.179  -4.556   2.069  0.00  0.00    +0.013 C 
BRANCH  19  20
ATOM     20  C   UNL     1       3.259  -4.541   3.152  0.00  0.00    +0.000 C 
BRANCH  20  21
ATOM     21  C   UNL     1       2.692  -3.916   4.429  0.00  0.00    -0.003 C 
ATOM     22  C   UNL     1       3.772  -3.900   5.512  0.00  0.00    +0.004 C 
ENDBRANCH  20  21
ENDBRANCH  19  20
ENDBRANCH  16  19
ENDBRANCH  11  16
ENDBRANCH   1  10
BRANCH   1  23
ATOM     23  C   UNL     1       0.892  -2.816  -2.821  0.00  0.00    +0.032 C 
BRANCH  23  24
ATOM     24  C   UNL     1       0.366  -2.084  -1.585  0.00  0.00    +0.002 C 
BRANCH  24  25
ATOM     25  C   UNL     1       0.233  -0.592  -1.894  0.00  0.00    -0.000 C 
BRANCH  25  27
ATOM     26  C   UNL     1      -0.427   1.632  -0.966  0.00  0.00    +0.004 C 
ATOM     27  C   UNL     1      -0.293   0.140  -0.657  0.00  0.00    -0.003 C 
ENDBRANCH  25  27
ENDBRANCH  24  25
ENDBRANCH  23  24
ENDBRANCH   1  23
TORSDOF 16
