REMARK  Name = ZINC02684914
REMARK  9 active torsions:
REMARK  status: ('A' for Active; 'I' for Inactive)
REMARK    1  A    between atoms: C_1  and  O_2
REMARK    2  A    between atoms: O_2  and  C_3
REMARK    3  A    between atoms: C_3  and  C_5
REMARK    4  A    between atoms: C_5  and  N_49
REMARK    5  A    between atoms: C_6  and  C_8
REMARK    6  A    between atoms: C_6  and  C_14
REMARK    7  A    between atoms: C_6  and  N_49
REMARK    8  A    between atoms: C_19  and  N_20
REMARK    9  A    between atoms: C_21  and  C_23
REMARK                            x       y       z     vdW  Elec       q    Type
REMARK                         _______ _______ _______ _____ _____    ______ ____
ROOT
ATOM      1  C   UNL     1      -2.687  -2.468   0.629  0.00  0.00    -0.035 A 
ATOM      2  C   UNL     1      -3.808  -1.661   0.625  0.00  0.00    +0.024 A 
ATOM      3  C   UNL     1      -4.987  -2.110   1.194  0.00  0.00    +0.041 A 
ATOM      4  C   UNL     1      -5.047  -3.368   1.767  0.00  0.00    +0.022 A 
ATOM      5  C   UNL     1      -3.929  -4.179   1.773  0.00  0.00    +0.025 A 
ATOM      6  C   UNL     1      -2.746  -3.733   1.199  0.00  0.00    +0.036 A 
ATOM      7 CL   UNL     1      -6.394  -1.093   1.188  0.00  0.00    -0.084 Cl
ENDROOT
BRANCH   6   8
ATOM      8  N   UNL     1      -1.614  -4.555   1.198  0.00  0.00    -0.281 N 
ATOM      9  C   UNL     1      -1.752  -5.893   1.273  0.00  0.00    +0.248 C 
ATOM     10  O   UNL     1      -2.860  -6.392   1.240  0.00  0.00    -0.270 OA
ATOM     11  H   UNL     1      -0.729  -4.161   1.144  0.00  0.00    +0.155 HD
BRANCH   9  12
ATOM     12  C   UNL     1      -0.557  -6.755   1.396  0.00  0.00    +0.038 A 
ATOM     13  C   UNL     1      -0.698  -8.141   1.474  0.00  0.00    +0.013 A 
ATOM     14  C   UNL     1       0.421  -8.940   1.588  0.00  0.00    +0.002 A 
ATOM     15  C   UNL     1       1.681  -8.370   1.625  0.00  0.00    +0.020 A 
ATOM     16  C   UNL     1       1.828  -6.995   1.548  0.00  0.00    +0.042 A 
ATOM     17  C   UNL     1       0.716  -6.185   1.429  0.00  0.00    +0.033 A 
ATOM     18 CL   UNL     1       3.414  -6.289   1.595  0.00  0.00    -0.084 Cl
ENDBRANCH   9  12
ENDBRANCH   6   8
BRANCH   1  19
ATOM     19  C   UNL     1      -1.403  -1.978   0.011  0.00  0.00    -0.007 C 
BRANCH  19  20
ATOM     20  C   UNL     1      -1.311  -2.470  -1.411  0.00  0.00    -0.057 A 
ATOM     21  C   UNL     1      -2.007  -1.822  -2.413  0.00  0.00    +0.002 A 
ATOM     22  C   UNL     1      -1.919  -2.271  -3.718  0.00  0.00    +0.000 A 
ATOM     23  C   UNL     1      -1.141  -3.373  -4.018  0.00  0.00    +0.000 A 
ATOM     24  C   UNL     1      -0.449  -4.025  -3.015  0.00  0.00    +0.000 A 
ATOM     25  C   UNL     1      -0.534  -3.574  -1.711  0.00  0.00    +0.002 A 
ENDBRANCH  19  20
BRANCH  19  26
ATOM     26  N   UNL     1      -1.392  -0.503   0.023  0.00  0.00    +0.393 N 
ATOM     27  H   UNL     1      -1.890  -0.154  -0.804  0.00  0.00    -0.084 HD
ATOM     28  H   UNL     1      -1.861  -0.168   0.872  0.00  0.00    -0.084 HD
BRANCH  26  29
ATOM     29  C   UNL     1      -0.005  -0.001   0.003  0.00  0.00    +0.041 C 
BRANCH  29  30
ATOM     30  C   UNL     1      -0.025   1.505   0.016  0.00  0.00    +0.290 C 
ATOM     31  O   UNL     1      -1.079   2.096   0.034  0.00  0.00    -0.253 OA
BRANCH  30  33
ATOM     32  C   UNL     1       1.034   3.641   0.015  0.00  0.00    +0.280 C 
ATOM     33  O   UNL     1       1.129   2.192   0.001  0.00  0.00    -0.469 OA
ENDBRANCH  30  33
ENDBRANCH  29  30
ENDBRANCH  26  29
ENDBRANCH  19  26
ENDBRANCH   1  19
TORSDOF 8
