REMARK  Name = ZINC35709697
REMARK  9 active torsions:
REMARK  status: ('A' for Active; 'I' for Inactive)
REMARK    1  A    between atoms: C_1  and  C_2
REMARK    2  A    between atoms: C_3  and  C_32
REMARK    3  A    between atoms: C_4  and  C_25
REMARK    4  A    between atoms: C_7  and  C_12
REMARK    5  A    between atoms: C_13  and  N_15
REMARK    6  A    between atoms: N_15  and  C_16
REMARK    7  A    between atoms: C_16  and  C_18
REMARK    8  A    between atoms: C_16  and  C_19
REMARK    9  A    between atoms: N_34  and  C_35
REMARK                            x       y       z     vdW  Elec       q    Type
REMARK                         _______ _______ _______ _____ _____    ______ ____
ROOT
ATOM      1  C   UNL     1      -0.941   1.460   0.140  0.00  0.00    +0.066 C 
ATOM      2  C   UNL     1      -0.541   0.008   0.188  0.00  0.00    +0.051 C 
ATOM      3  C   UNL     1      -1.501  -0.972   0.041  0.00  0.00    +0.060 C 
ATOM      4  C   UNL     1      -1.051  -2.415   0.097  0.00  0.00    +0.148 C 
ATOM      5  N   UNL     1       0.400  -2.663   0.307  0.00  0.00    -0.267 N 
ATOM      6  C   UNL     1       1.031  -3.888   0.390  0.00  0.00    +0.048 C 
ATOM      7  C   UNL     1       2.368  -3.894   0.585  0.00  0.00    +0.072 C 
ATOM      8  S   UNL     1       2.738  -2.152   0.652  0.00  0.00    -0.060 S 
ATOM      9  C   UNL     1       1.187  -1.551   0.430  0.00  0.00    +0.166 C 
ATOM     10  N   UNL     1       0.729  -0.318   0.366  0.00  0.00    -0.230 NA
ENDROOT
BRANCH   4  11
ATOM     11  C   UNL     1      -1.803  -3.093   1.212  0.00  0.00    -0.022 A 
ATOM     12  C   UNL     1      -1.546  -2.751   2.527  0.00  0.00    +0.007 A 
ATOM     13  C   UNL     1      -2.235  -3.373   3.551  0.00  0.00    +0.020 A 
ATOM     14  C   UNL     1      -3.183  -4.337   3.260  0.00  0.00    +0.041 A 
ATOM     15  C   UNL     1      -3.441  -4.679   1.944  0.00  0.00    +0.020 A 
ATOM     16  C   UNL     1      -2.754  -4.053   0.921  0.00  0.00    +0.007 A 
ATOM     17 CL   UNL     1      -4.050  -5.119   4.545  0.00  0.00    -0.084 Cl
ENDBRANCH   4  11
BRANCH   3  18
ATOM     18  C   UNL     1      -2.851  -0.641  -0.153  0.00  0.00    +0.244 C 
ATOM     19  O   UNL     1      -3.210   0.522  -0.082  0.00  0.00    -0.270 OA
ATOM     20  N   UNL     1      -3.750  -1.609  -0.419  0.00  0.00    -0.315 N 
ATOM     21  C   UNL     1      -5.138  -1.255  -0.726  0.00  0.00    +0.128 C 
ATOM     22  H   UNL     1      -3.478  -2.540  -0.408  0.00  0.00    +0.149 HD
ENDBRANCH   3  18
BRANCH   6  23
ATOM     23  C   UNL     1       0.274  -5.143   0.271  0.00  0.00    +0.091 C 
ATOM     24  C   UNL     1       0.890  -6.323   0.478  0.00  0.00    +0.239 C 
ATOM     25  O   UNL     1       2.228  -6.361   0.690  0.00  0.00    -0.271 OA
BRANCH  24  26
ATOM     26  N   UNL     1       0.156  -7.497   0.475  0.00  0.00    -0.305 N 
ATOM     27  H   UNL     1      -0.788  -7.478   0.251  0.00  0.00    +0.150 HD
BRANCH  26  28
ATOM     28  C   UNL     1       0.804  -8.767   0.810  0.00  0.00    +0.100 C 
ATOM     29  C   UNL     1       0.743  -8.987   2.323  0.00  0.00    +0.033 C 
BRANCH  28  30
ATOM     30  C   UNL     1       0.091  -9.895   0.110  0.00  0.00    -0.027 A 
ATOM     31  C   UNL     1      -1.288  -9.889   0.016  0.00  0.00    +0.005 A 
ATOM     32  C   UNL     1      -1.942 -10.923  -0.627  0.00  0.00    +0.000 A 
ATOM     33  C   UNL     1      -1.216 -11.964  -1.175  0.00  0.00    +0.000 A 
ATOM     34  C   UNL     1       0.163 -11.971  -1.082  0.00  0.00    +0.000 A 
ATOM     35  C   UNL     1       0.817 -10.934  -0.443  0.00  0.00    +0.005 A 
ENDBRANCH  28  30
ENDBRANCH  26  28
ENDBRANCH  24  26
ENDBRANCH   6  23
TORSDOF 6
