REMARK  Name = ZINC14500778
REMARK  6 active torsions:
REMARK  status: ('A' for Active; 'I' for Inactive)
REMARK    1  A    between atoms: C_1  and  C_2
REMARK    2  A    between atoms: N_11  and  C_15
REMARK    3  A    between atoms: C_15  and  C_16
REMARK    4  A    between atoms: N_18  and  C_19
REMARK    5  A    between atoms: C_26  and  S_28
REMARK    6  A    between atoms: S_28  and  C_29
REMARK                            x       y       z     vdW  Elec       q    Type
REMARK                         _______ _______ _______ _____ _____    ______ ____
ROOT
ATOM      1  C   UNL     1      -3.297  -0.490   2.961  0.00  0.00    +0.214 C 
ENDROOT
BRANCH   1  11
ATOM      2  C   UNL     1      -1.529   3.558   2.556  0.00  0.00    +0.010 C 
ATOM      3  C   UNL     1      -0.787   3.102   1.297  0.00  0.00    +0.018 C 
ATOM      4  C   UNL     1      -1.528   3.608   0.057  0.00  0.00    +0.006 C 
ATOM      5  C   UNL     1      -0.798   3.134  -1.201  0.00  0.00    +0.000 C 
ATOM      6  C   UNL     1      -0.762   1.605  -1.228  0.00  0.00    +0.003 C 
ATOM      7  C   UNL     1      -0.018   1.092   0.008  0.00  0.00    +0.035 C 
ATOM      8  C   UNL     1      -0.726   1.579   1.268  0.00  0.00    +0.115 C 
ATOM      9  C   UNL     1      -2.117   0.994   1.350  0.00  0.00    +0.247 C 
ATOM     10  O   UNL     1      -3.026   1.150   0.564  0.00  0.00    -0.273 OA
ATOM     11  N   UNL     1      -2.133   0.261   2.483  0.00  0.00    -0.215 N 
ATOM     12  C   UNL     1      -0.955   0.306   3.116  0.00  0.00    +0.310 C 
ATOM     13  O   UNL     1      -0.725  -0.275   4.158  0.00  0.00    -0.252 OA
ATOM     14  N   UNL     1      -0.052   1.067   2.468  0.00  0.00    -0.285 N 
ATOM     15  H   UNL     1       0.862   1.243   2.740  0.00  0.00    +0.151 HD
ENDBRANCH   1  11
BRANCH   1  16
ATOM     16  C   UNL     1      -3.260  -1.886   2.395  0.00  0.00    +0.235 C 
ATOM     17  O   UNL     1      -2.352  -2.221   1.664  0.00  0.00    -0.274 OA
ATOM     18  N   UNL     1      -4.237  -2.763   2.700  0.00  0.00    -0.284 N 
ATOM     19  H   UNL     1      -4.926  -2.519   3.337  0.00  0.00    +0.155 HD
BRANCH  18  20
ATOM     20  C   UNL     1      -4.257  -4.028   2.098  0.00  0.00    +0.035 A 
ATOM     21  C   UNL     1      -5.468  -4.643   1.789  0.00  0.00    +0.025 A 
ATOM     22  C   UNL     1      -5.511  -5.877   1.195  0.00  0.00    +0.031 A 
ATOM     23  C   UNL     1      -4.320  -6.574   0.886  0.00  0.00    +0.080 A 
ATOM     24  C   UNL     1      -3.110  -5.925   1.217  0.00  0.00    +0.042 A 
ATOM     25  C   UNL     1      -3.069  -4.687   1.807  0.00  0.00    +0.040 A 
ATOM     26  S   UNL     1      -1.890  -7.101   0.682  0.00  0.00    -0.061 S 
ATOM     27  C   UNL     1      -3.024  -8.340   0.072  0.00  0.00    +0.135 A 
ATOM     28  N   UNL     1      -4.193  -7.791   0.310  0.00  0.00    -0.233 NA
BRANCH  27  29
ATOM     29  S   UNL     1      -2.664  -9.901  -0.663  0.00  0.00    -0.102 S 
ATOM     30  C   UNL     1      -4.345 -10.495  -0.977  0.00  0.00    +0.092 C 
ENDBRANCH  27  29
ENDBRANCH  18  20
ENDBRANCH   1  16
TORSDOF 4
