REMARK  Name = ZINC17130737
REMARK  4 active torsions:
REMARK  status: ('A' for Active; 'I' for Inactive)
REMARK    1  A    between atoms: C_3  and  C_24
REMARK    2  A    between atoms: C_5  and  N_7
REMARK    3  A    between atoms: C_9  and  C_21
REMARK    4  A    between atoms: C_13  and  N_18
REMARK                            x       y       z     vdW  Elec       q    Type
REMARK                         _______ _______ _______ _____ _____    ______ ____
ROOT
ATOM      1  N   UNL     1      -1.208   2.063   0.019  0.00  0.00    -0.325 N 
ATOM      2  C   UNL     1      -1.224   3.375   0.126  0.00  0.00    +0.212 A 
ATOM      3  C   UNL     1      -2.497   4.112   0.248  0.00  0.00    +0.097 A 
ATOM      4  C   UNL     1      -2.458   5.337   0.902  0.00  0.00    +0.030 A 
ATOM      5  C   UNL     1      -1.161   5.786   1.412  0.00  0.00    +0.020 A 
ATOM      6  C   UNL     1      -1.075   6.861   2.304  0.00  0.00    +0.044 A 
ATOM      7  C   UNL     1       0.147   7.260   2.768  0.00  0.00    +0.127 A 
ATOM      8  C   UNL     1       1.303   6.609   2.362  0.00  0.00    +0.036 A 
ATOM      9  C   UNL     1       1.240   5.547   1.482  0.00  0.00    +0.049 A 
ATOM     10  C   UNL     1       0.011   5.126   0.997  0.00  0.00    +0.138 A 
ATOM     11  O   UNL     1      -0.070   4.090   0.132  0.00  0.00    -0.439 OA
ATOM     12  H   UNL     1      -2.153   1.508  -0.071  0.00  0.00    +0.169 HD
ENDROOT
BRANCH   1  17
ATOM     13  C   UNL     1       1.800   0.376  -1.179  0.00  0.00    +0.003 A 
ATOM     14  C   UNL     1       2.389   0.021   0.022  0.00  0.00    +0.012 A 
ATOM     15  C   UNL     1       1.783   0.348   1.221  0.00  0.00    +0.057 A 
ATOM     16  C   UNL     1       0.584   1.031   1.228  0.00  0.00    +0.038 A 
ATOM     17  C   UNL     1      -0.017   1.392   0.020  0.00  0.00    +0.042 A 
ATOM     18  C   UNL     1       0.601   1.058  -1.188  0.00  0.00    +0.026 A 
BRANCH  15  19
ATOM     19  C   UNL     1       2.433  -0.043   2.523  0.00  0.00    +0.417 C 
ATOM     20  F   UNL     1       1.981  -1.310   2.908  0.00  0.00    -0.166 F 
ATOM     21  F   UNL     1       3.822  -0.072   2.361  0.00  0.00    -0.166 F 
ATOM     22  F   UNL     1       2.098   0.891   3.510  0.00  0.00    -0.166 F 
ENDBRANCH  15  19
ENDBRANCH   1  17
BRANCH   3  23
ATOM     23  C   UNL     1      -3.754   3.573  -0.300  0.00  0.00    +0.247 C 
ATOM     24  O   UNL     1      -3.758   2.498  -0.868  0.00  0.00    -0.270 OA
ATOM     25  N   UNL     1      -4.899   4.272  -0.171  0.00  0.00    -0.325 N 
ATOM     26  H   UNL     1      -5.838   3.869  -0.580  0.00  0.00    +0.145 HD
ATOM     27  H   UNL     1      -4.896   5.244   0.342  0.00  0.00    +0.145 HD
ENDBRANCH   3  23
BRANCH   7  28
ATOM     28  N   UNL     1       0.239   8.397   3.712  0.00  0.00    +0.056 N 
ATOM     29  O   UNL     1      -0.772   8.973   4.072  0.00  0.00    -0.126 OA
ATOM     30  O   UNL     1       1.325   8.757   4.128  0.00  0.00    -0.126 OA
ENDBRANCH   7  28
TORSDOF 4
