REMARK  Name = ZINC43143656
REMARK  4 active torsions:
REMARK  status: ('A' for Active; 'I' for Inactive)
REMARK    1  A    between atoms: C_1  and  C_2
REMARK    2  A    between atoms: C_5  and  N_9
REMARK    3  A    between atoms: C_7  and  C_8
REMARK    4  A    between atoms: C_18  and  C_20
REMARK                            x       y       z     vdW  Elec       q    Type
REMARK                         _______ _______ _______ _____ _____    ______ ____
ROOT
ATOM      1  N   UNL     1      -0.447  -4.060   0.042  0.00  0.00    -0.269 N 
ATOM      2  C   UNL     1      -0.487  -4.728  -1.128  0.00  0.00    +0.307 C 
ATOM      3  O   UNL     1      -0.553  -4.114  -2.176  0.00  0.00    -0.252 OA
ATOM      4  N   UNL     1      -0.454  -6.075  -1.137  0.00  0.00    -0.282 N 
ATOM      5  C   UNL     1      -0.519  -6.832   0.121  0.00  0.00    +0.128 C 
ATOM      6  C   UNL     1      -1.687  -7.824   0.036  0.00  0.00    +0.127 C 
ATOM      7  N   UNL     1      -1.585  -8.561  -1.231  0.00  0.00    -0.298 N 
ATOM      8  C   UNL     1      -1.519  -7.804  -2.489  0.00  0.00    +0.127 C 
ATOM      9  C   UNL     1      -0.358  -6.813  -2.404  0.00  0.00    +0.128 C 
ATOM     10  C   UNL     1      -1.552  -9.909  -1.239  0.00  0.00    +0.222 C 
ATOM     11  O   UNL     1      -1.438 -10.519  -0.198  0.00  0.00    -0.275 OA
ATOM     12  H   UNL     1      -0.296  -4.541   0.870  0.00  0.00    +0.156 HD
ENDROOT
BRANCH  10  13
ATOM     13  C   UNL     1      -1.656 -10.657  -2.543  0.00  0.00    +0.048 C 
ATOM     14  C   UNL     1      -2.844 -10.120  -3.345  0.00  0.00    +0.019 C 
ATOM     15  C   UNL     1      -2.950 -10.880  -4.669  0.00  0.00    -0.009 C 
ATOM     16  C   UNL     1      -3.156 -12.370  -4.388  0.00  0.00    +0.007 C 
ATOM     17  C   UNL     1      -1.968 -12.906  -3.585  0.00  0.00    -0.009 C 
ATOM     18  C   UNL     1      -1.863 -12.146  -2.261  0.00  0.00    +0.019 C 
ATOM     19  C   UNL     1      -0.681 -12.713  -4.389  0.00  0.00    +0.007 C 
ATOM     20  C   UNL     1      -0.475 -11.223  -4.671  0.00  0.00    -0.009 C 
ATOM     21  C   UNL     1      -1.662 -10.687  -5.473  0.00  0.00    +0.007 C 
ATOM     22  C   UNL     1      -0.369 -10.463  -3.347  0.00  0.00    +0.019 C 
ENDBRANCH  10  13
BRANCH   1  27
ATOM     23  C   UNL     1      -1.159   1.568   0.121  0.00  0.00    +0.044 C 
ATOM     24  C   UNL     1      -0.970   0.073   0.100  0.00  0.00    -0.047 A 
ATOM     25  C   UNL     1      -0.449  -0.541  -1.024  0.00  0.00    +0.005 A 
ATOM     26  C   UNL     1      -0.274  -1.910  -1.047  0.00  0.00    +0.023 A 
ATOM     27  C   UNL     1      -0.622  -2.671   0.061  0.00  0.00    +0.035 A 
ATOM     28  C   UNL     1      -1.145  -2.052   1.189  0.00  0.00    +0.027 A 
ATOM     29  C   UNL     1      -1.312  -0.681   1.207  0.00  0.00    -0.046 A 
ATOM     30  C   UNL     1      -1.873  -0.007   2.433  0.00  0.00    +0.044 C 
ENDBRANCH   1  27
TORSDOF 2
