REMARK  Name = ZINC21449200
REMARK  7 active torsions:
REMARK  status: ('A' for Active; 'I' for Inactive)
REMARK    1  A    between atoms: C_1  and  C_2
REMARK    2  A    between atoms: C_4  and  C_25
REMARK    3  A    between atoms: C_7  and  N_8
REMARK    4  A    between atoms: C_9  and  C_11
REMARK    5  A    between atoms: C_17  and  C_19
REMARK    6  A    between atoms: C_25  and  C_27
REMARK    7  A    between atoms: C_25  and  C_29
REMARK                            x       y       z     vdW  Elec       q    Type
REMARK                         _______ _______ _______ _____ _____    ______ ____
ROOT
ATOM      1  C   UNL     1      -2.547   2.147  -1.052  0.00  0.00    +0.045 C 
ATOM      2  C   UNL     1      -1.165   2.552  -0.606  0.00  0.00    -0.029 A 
ATOM      3  C   UNL     1      -0.140   1.626  -0.609  0.00  0.00    +0.011 A 
ATOM      4  C   UNL     1       1.129   1.998  -0.205  0.00  0.00    -0.008 A 
ATOM      5  C   UNL     1       1.375   3.296   0.208  0.00  0.00    +0.047 A 
ATOM      6  C   UNL     1       0.352   4.224   0.217  0.00  0.00    +0.044 A 
ATOM      7  C   UNL     1      -0.924   3.853  -0.187  0.00  0.00    +0.038 A 
ATOM      8 CL   UNL     1       2.971   3.758   0.713  0.00  0.00    -0.083 Cl
ENDROOT
BRANCH   7   9
ATOM      9  N   UNL     1      -1.962   4.791  -0.178  0.00  0.00    -0.285 N 
ATOM     10  C   UNL     1      -1.707   6.083  -0.464  0.00  0.00    +0.220 C 
ATOM     11  O   UNL     1      -0.597   6.417  -0.821  0.00  0.00    -0.275 OA
ATOM     12  H   UNL     1      -2.988   4.473   0.062  0.00  0.00    +0.155 HD
BRANCH  10  13
ATOM     13  C   UNL     1      -2.799   7.113  -0.338  0.00  0.00    +0.078 C 
ATOM     14  C   UNL     1      -3.954   6.748  -1.274  0.00  0.00    +0.032 C 
ATOM     15  C   UNL     1      -5.077   7.778  -1.119  0.00  0.00    +0.109 C 
ATOM     16  N   UNL     1      -4.522   9.120  -1.341  0.00  0.00    -0.295 N 
ATOM     17  C   UNL     1      -3.353   9.539  -0.556  0.00  0.00    +0.109 C 
ATOM     18  C   UNL     1      -2.249   8.489  -0.718  0.00  0.00    +0.032 C 
ATOM     19  C   UNL     1      -5.076   9.951  -2.246  0.00  0.00    +0.282 C 
ATOM     20  O   UNL     1      -5.972   9.555  -2.968  0.00  0.00    -0.267 OA
BRANCH  19  21
ATOM     21  C   UNL     1      -4.598  11.333  -2.361  0.00  0.00    +0.189 A 
ATOM     22  C   UNL     1      -5.122  12.298  -3.173  0.00  0.00    +0.054 A 
ATOM     23  C   UNL     1      -4.362  13.459  -2.963  0.00  0.00    +0.042 A 
ATOM     24  C   UNL     1      -3.419  13.156  -2.042  0.00  0.00    +0.196 A 
ATOM     25  O   UNL     1      -3.569  11.875  -1.679  0.00  0.00    -0.458 OA
ENDBRANCH  19  21
ENDBRANCH  10  13
ENDBRANCH   7   9
BRANCH   4  26
ATOM     26  C   UNL     1       2.247   0.987  -0.215  0.00  0.00    +0.153 C 
BRANCH  26  27
ATOM     27  C   UNL     1       2.554   0.590  -1.636  0.00  0.00    -0.026 A 
ATOM     28  C   UNL     1       1.625  -0.123  -2.370  0.00  0.00    +0.006 A 
ATOM     29  C   UNL     1       1.904  -0.482  -3.675  0.00  0.00    +0.020 A 
ATOM     30  C   UNL     1       3.117  -0.137  -4.243  0.00  0.00    +0.041 A 
ATOM     31  C   UNL     1       4.048   0.572  -3.506  0.00  0.00    +0.020 A 
ATOM     32  C   UNL     1       3.767   0.935  -2.203  0.00  0.00    +0.006 A 
ATOM     33 CL   UNL     1       3.471  -0.595  -5.880  0.00  0.00    -0.084 Cl
ENDBRANCH  26  27
BRANCH  26  34
ATOM     34  C   UNL     1       1.839  -0.203   0.550  0.00  0.00    +0.075 C 
ATOM     35  N   UNL     1       1.524  -1.122   1.139  0.00  0.00    -0.196 NA
ENDBRANCH  26  34
ENDBRANCH   4  26
TORSDOF 6
