REMARK  Name = ZINC20154381
REMARK  6 active torsions:
REMARK  status: ('A' for Active; 'I' for Inactive)
REMARK    1  A    between atoms: C_6  and  C_7
REMARK    2  A    between atoms: C_10  and  C_12
REMARK    3  A    between atoms: C_13  and  C_14
REMARK    4  A    between atoms: N_16  and  C_17
REMARK    5  A    between atoms: C_20  and  N_26
REMARK    6  A    between atoms: C_21  and  N_23
REMARK                            x       y       z     vdW  Elec       q    Type
REMARK                         _______ _______ _______ _____ _____    ______ ____
ROOT
ATOM      1  C   UNL     1      -1.328  -1.871  -0.709  0.00  0.00    +0.241 C 
ATOM      2  O   UNL     1      -0.402  -2.345  -1.342  0.00  0.00    -0.270 OA
ATOM      3  N   UNL     1      -1.144  -0.751   0.018  0.00  0.00    -0.282 N 
ATOM      4  H   UNL     1      -1.958  -0.366   0.651  0.00  0.00    +0.155 HD
ENDROOT
BRANCH   3   5
ATOM      5  C   UNL     1       0.083  -0.077  -0.032  0.00  0.00    +0.036 A 
ATOM      6  C   UNL     1       1.265  -0.795  -0.158  0.00  0.00    +0.025 A 
ATOM      7  C   UNL     1       2.474  -0.131  -0.208  0.00  0.00    +0.027 A 
ATOM      8  C   UNL     1       2.508   1.256  -0.132  0.00  0.00    +0.060 A 
ATOM      9  C   UNL     1       1.326   1.974  -0.007  0.00  0.00    +0.149 A 
ATOM     10  C   UNL     1       0.117   1.309   0.043  0.00  0.00    +0.058 A 
BRANCH   8  11
ATOM     11  N   UNL     1       3.734   1.929  -0.182  0.00  0.00    -0.332 N 
ATOM     12  C   UNL     1       4.619   1.493   0.907  0.00  0.00    +0.086 C 
ATOM     13  C   UNL     1       5.914   2.308   0.866  0.00  0.00    -0.063 C 
ATOM     14  N   UNL     1       6.562   2.125  -0.440  0.00  0.00    +0.381 N 
ATOM     15  C   UNL     1       5.677   2.561  -1.530  0.00  0.00    -0.063 C 
ATOM     16  C   UNL     1       4.382   1.747  -1.488  0.00  0.00    +0.086 C 
ATOM     17  H   UNL     1       7.487   2.720  -0.477  0.00  0.00    -0.086 HD
ATOM     18  H   UNL     1       6.803   1.062  -0.585  0.00  0.00    -0.086 HD
ENDBRANCH   8  11
BRANCH   9  19
ATOM     19  N   UNL     1       1.363   3.451   0.073  0.00  0.00    +0.058 N 
ATOM     20  O   UNL     1       0.323   4.086   0.088  0.00  0.00    -0.126 OA
ATOM     21  O   UNL     1       2.432   4.032   0.125  0.00  0.00    -0.126 OA
ENDBRANCH   9  19
ENDBRANCH   3   5
BRANCH   1  23
ATOM     22  C   UNL     1      -2.781  -3.625  -1.468  0.00  0.00    +0.051 C 
ATOM     23  C   UNL     1      -2.596  -2.496  -0.736  0.00  0.00    +0.071 C 
BRANCH  22  27
ATOM     24  C   UNL     1      -6.170  -4.671  -1.103  0.00  0.00    +0.136 A 
ATOM     25  C   UNL     1      -5.723  -5.656  -1.939  0.00  0.00    +0.050 A 
ATOM     26  C   UNL     1      -4.376  -5.394  -2.199  0.00  0.00    +0.050 A 
ATOM     27  C   UNL     1      -4.049  -4.250  -1.495  0.00  0.00    +0.129 A 
ATOM     28  O   UNL     1      -5.154  -3.831  -0.842  0.00  0.00    -0.455 OA
BRANCH  24  34
ATOM     29  C   UNL     1      -8.516  -5.490  -0.925  0.00  0.00    +0.012 A 
ATOM     30  C   UNL     1      -9.795  -5.374  -0.423  0.00  0.00    +0.016 A 
ATOM     31  C   UNL     1     -10.119  -4.324   0.419  0.00  0.00    +0.018 A 
ATOM     32  C   UNL     1      -9.161  -3.387   0.768  0.00  0.00    +0.016 A 
ATOM     33  C   UNL     1      -7.877  -3.494   0.277  0.00  0.00    +0.012 A 
ATOM     34  C   UNL     1      -7.543  -4.551  -0.574  0.00  0.00    +0.017 A 
ATOM     35 BR   UNL     1     -11.878  -4.169   1.096  0.00  0.00    -0.050 Br
ENDBRANCH  24  34
ENDBRANCH  22  27
ENDBRANCH   1  23
TORSDOF 6
