REMARK  Name = ZINC13697050
REMARK  4 active torsions:
REMARK  status: ('A' for Active; 'I' for Inactive)
REMARK    1  A    between atoms: C_1  and  C_2
REMARK    2  A    between atoms: C_10  and  N_13
REMARK    3  A    between atoms: N_13  and  S_14
REMARK    4  A    between atoms: S_14  and  C_17
REMARK                            x       y       z     vdW  Elec       q    Type
REMARK                         _______ _______ _______ _____ _____    ______ ____
ROOT
ATOM      1  N   UNL     1      -3.370   4.527  -1.520  0.00  0.00    -0.216 N 
ATOM      2  H   UNL     1      -3.464   5.427  -1.870  0.00  0.00    +0.174 HD
ENDROOT
BRANCH   1  12
ATOM      3  C   UNL     1      -1.779   2.574  -7.913  0.00  0.00    +0.109 C 
ATOM      4  C   UNL     1      -2.170   2.931  -6.502  0.00  0.00    +0.217 C 
ATOM      5  O   UNL     1      -1.810   3.984  -6.021  0.00  0.00    -0.276 OA
ATOM      6  N   UNL     1      -2.920   2.079  -5.775  0.00  0.00    -0.271 N 
ATOM      7  C   UNL     1      -3.414   0.783  -6.245  0.00  0.00    +0.118 C 
ATOM      8  C   UNL     1      -4.208   0.200  -5.065  0.00  0.00    +0.056 C 
ATOM      9  C   UNL     1      -4.099   1.248  -3.979  0.00  0.00    -0.024 A 
ATOM     10  C   UNL     1      -3.341   2.304  -4.460  0.00  0.00    +0.041 A 
ATOM     11  C   UNL     1      -3.105   3.402  -3.633  0.00  0.00    +0.048 A 
ATOM     12  C   UNL     1      -3.614   3.428  -2.345  0.00  0.00    +0.050 A 
ATOM     13  C   UNL     1      -4.372   2.362  -1.875  0.00  0.00    +0.025 A 
ATOM     14  C   UNL     1      -4.611   1.276  -2.695  0.00  0.00    +0.007 A 
ENDBRANCH   1  12
BRANCH   1  15
ATOM     15  S   UNL     1      -2.919   4.296   0.057  0.00  0.00    +0.072 S 
ATOM     16  O   UNL     1      -3.834   3.358   0.608  0.00  0.00    -0.150 OA
ATOM     17  O   UNL     1      -2.721   5.587   0.617  0.00  0.00    -0.150 OA
BRANCH  15  18
ATOM     18  C   UNL     1      -1.342   3.509   0.038  0.00  0.00    +0.109 A 
ATOM     19  C   UNL     1      -0.187   4.269   0.034  0.00  0.00    +0.029 A 
ATOM     20  C   UNL     1       1.043   3.645   0.018  0.00  0.00    +0.006 A 
ATOM     21  C   UNL     1       1.131   2.259   0.003  0.00  0.00    -0.044 A 
ATOM     22  C   UNL     1      -0.018   1.502   0.010  0.00  0.00    -0.042 A 
ATOM     23  C   UNL     1      -1.256   2.132   0.032  0.00  0.00    +0.032 A 
ATOM     24  C   UNL     1       0.002  -0.004   0.002  0.00  0.00    +0.035 C 
ATOM     25  C   UNL     1       1.368  -0.520  -0.446  0.00  0.00    +0.005 C 
ATOM     26  C   UNL     1       2.446   0.176   0.393  0.00  0.00    +0.005 C 
ATOM     27  C   UNL     1       2.507   1.644  -0.022  0.00  0.00    +0.035 C 
ENDBRANCH  15  18
ENDBRANCH   1  15
TORSDOF 3
