REMARK  Name = ZINC23076556
REMARK  3 active torsions:
REMARK  status: ('A' for Active; 'I' for Inactive)
REMARK    1  A    between atoms: C_6  and  N_7
REMARK    2  A    between atoms: C_11  and  N_15
REMARK    3  A    between atoms: N_18  and  C_21
REMARK                            x       y       z     vdW  Elec       q    Type
REMARK                         _______ _______ _______ _____ _____    ______ ____
ROOT
ATOM      1  N   UNL     1      -2.935  -3.379   1.110  0.00  0.00    -0.295 NA
ATOM      2  C   UNL     1      -4.371  -3.637   1.285  0.00  0.00    +0.066 C 
ATOM      3  C   UNL     1      -4.583  -4.498   2.533  0.00  0.00    -0.062 C 
ATOM      4  N   UNL     1      -3.855  -5.764   2.384  0.00  0.00    +0.385 N 
ATOM      5  C   UNL     1      -2.419  -5.492   2.234  0.00  0.00    -0.062 C 
ATOM      6  C   UNL     1      -2.190  -4.639   0.984  0.00  0.00    +0.066 C 
ATOM      7  H   UNL     1      -4.191  -6.251   1.567  0.00  0.00    -0.081 HD
ENDROOT
BRANCH   4   8
ATOM      8  C   UNL     1      -4.073  -6.598   3.574  0.00  0.00    -0.065 C 
ATOM      9  C   UNL     1      -3.563  -5.859   4.813  0.00  0.00    -0.009 C 
ATOM     10  C   UNL     1      -3.791  -6.727   6.053  0.00  0.00    -0.012 C 
ATOM     11  C   UNL     1      -3.032  -8.047   5.898  0.00  0.00    +0.007 C 
ATOM     12  C   UNL     1      -3.542  -8.785   4.658  0.00  0.00    -0.012 C 
ATOM     13  C   UNL     1      -3.315  -7.917   3.418  0.00  0.00    -0.009 C 
ATOM     14  C   UNL     1      -5.037  -9.071   4.813  0.00  0.00    +0.007 C 
ATOM     15  C   UNL     1      -5.795  -7.751   4.969  0.00  0.00    -0.012 C 
ATOM     16  C   UNL     1      -5.286  -7.013   6.208  0.00  0.00    +0.007 C 
ATOM     17  C   UNL     1      -5.568  -6.884   3.729  0.00  0.00    -0.009 C 
ENDBRANCH   4   8
BRANCH   1  22
ATOM     18  N   UNL     1      -1.203  -0.723   0.010  0.00  0.00    -0.209 N 
ATOM     19  C   UNL     1      -2.399  -0.131   0.118  0.00  0.00    +0.228 C 
ATOM     20  O   UNL     1      -2.585   1.063   0.218  0.00  0.00    -0.275 OA
ATOM     21  C   UNL     1      -3.481  -1.188   0.094  0.00  0.00    +0.125 C 
ATOM     22  C   UNL     1      -2.695  -2.507  -0.048  0.00  0.00    +0.153 C 
ATOM     23  C   UNL     1      -1.251  -2.057  -0.095  0.00  0.00    +0.244 C 
ATOM     24  O   UNL     1      -0.291  -2.788  -0.207  0.00  0.00    -0.273 OA
BRANCH  18  30
ATOM     25  C   UNL     1       0.775   0.044  -1.150  0.00  0.00    +0.027 A 
ATOM     26  C   UNL     1       1.961   0.752  -1.156  0.00  0.00    +0.040 A 
ATOM     27  C   UNL     1       2.378   1.415  -0.014  0.00  0.00    +0.124 A 
ATOM     28  C   UNL     1       1.609   1.368   1.136  0.00  0.00    +0.040 A 
ATOM     29  C   UNL     1       0.423   0.660   1.146  0.00  0.00    +0.027 A 
ATOM     30  C   UNL     1       0.002  -0.004   0.002  0.00  0.00    +0.044 A 
ATOM     31  F   UNL     1       3.538   2.107  -0.022  0.00  0.00    -0.205 F 
ENDBRANCH  18  30
ENDBRANCH   1  22
TORSDOF 3
