REMARK  Name = ZINC22635145
REMARK  5 active torsions:
REMARK  status: ('A' for Active; 'I' for Inactive)
REMARK    1  A    between atoms: C_1  and  C_2
REMARK    2  A    between atoms: C_2  and  C_3
REMARK    3  A    between atoms: C_2  and  N_4
REMARK    4  A    between atoms: C_12  and  O_26
REMARK    5  A    between atoms: C_14  and  C_17
REMARK                            x       y       z     vdW  Elec       q    Type
REMARK                         _______ _______ _______ _____ _____    ______ ____
ROOT
ATOM      1  N   UNL     1       0.002  -0.004   0.002  0.00  0.00    +0.384 N 
ATOM      2  C   UNL     1      -1.356  -0.550   0.132  0.00  0.00    -0.073 C 
ATOM      3  C   UNL     1      -1.367  -2.032  -0.252  0.00  0.00    +0.018 C 
ATOM      4  C   UNL     1      -0.272  -2.738   0.542  0.00  0.00    -0.027 A 
ATOM      5  C   UNL     1       0.717  -2.013   1.119  0.00  0.00    -0.021 A 
ATOM      6  S   UNL     1       1.745  -3.210   1.926  0.00  0.00    -0.080 S 
ATOM      7  C   UNL     1       0.885  -4.628   1.504  0.00  0.00    +0.080 A 
ATOM      8  C   UNL     1      -0.196  -4.172   0.737  0.00  0.00    +0.067 A 
ATOM      9  C   UNL     1      -1.144  -5.196   0.227  0.00  0.00    +0.220 C 
ATOM     10  N   UNL     1      -0.802  -6.450   0.335  0.00  0.00    -0.223 NA
ATOM     11  C   UNL     1       0.485  -6.919   0.834  0.00  0.00    +0.224 C 
ATOM     12  N   UNL     1       1.083  -5.959   1.780  0.00  0.00    -0.313 N 
ATOM     13  C   UNL     1       0.877  -0.527   1.068  0.00  0.00    -0.035 C 
ATOM     14  H   UNL     1       1.650  -6.323   2.650  0.00  0.00    +0.149 HD
ATOM     15  H   UNL     1       0.408  -0.327  -0.968  0.00  0.00    -0.081 HD
ENDROOT
BRANCH  11  16
ATOM     16  C   UNL     1       1.423  -7.113  -0.329  0.00  0.00    -0.002 A 
ATOM     17  C   UNL     1       2.787  -6.978  -0.145  0.00  0.00    +0.011 A 
ATOM     18  C   UNL     1       3.652  -7.159  -1.208  0.00  0.00    +0.050 A 
ATOM     19  C   UNL     1       3.154  -7.466  -2.463  0.00  0.00    +0.166 A 
ATOM     20  C   UNL     1       1.780  -7.597  -2.650  0.00  0.00    +0.167 A 
ATOM     21  C   UNL     1       0.919  -7.419  -1.579  0.00  0.00    +0.057 A 
ATOM     22  O   UNL     1       1.544  -7.898  -3.960  0.00  0.00    -0.453 OA
ATOM     23  C   UNL     1       2.806  -8.352  -4.483  0.00  0.00    +0.466 C 
ATOM     24  O   UNL     1       3.779  -7.686  -3.657  0.00  0.00    -0.453 OA
ENDBRANCH  11  16
BRANCH   1  26
ATOM     25  C   UNL     1       1.417   1.994  -0.001  0.00  0.00    -0.014 C 
ATOM     26  C   UNL     1      -0.018   1.465   0.010  0.00  0.00    -0.074 C 
ATOM     27  C   UNL     1      -0.758   1.972  -1.229  0.00  0.00    -0.014 C 
ENDBRANCH   1  26
BRANCH   9  28
ATOM     28  O   UNL     1      -2.324  -4.840  -0.332  0.00  0.00    -0.492 OA
ATOM     29  H   UNL     1      -3.013  -5.613  -0.704  0.00  0.00    +0.294 HD
ENDBRANCH   9  28
TORSDOF 3
