REMARK  Name = ZINC02332125
REMARK  3 active torsions:
REMARK  status: ('A' for Active; 'I' for Inactive)
REMARK    1  A    between atoms: C_8  and  N_26
REMARK    2  A    between atoms: C_9  and  C_12
REMARK    3  A    between atoms: N_16  and  C_20
REMARK                            x       y       z     vdW  Elec       q    Type
REMARK                         _______ _______ _______ _____ _____    ______ ____
ROOT
ATOM      1  C   UNL     1       0.635  -0.663   0.885  0.00  0.00    +0.005 A 
ATOM      2  C   UNL     1       1.861  -0.077   0.540  0.00  0.00    +0.018 A 
ATOM      3  C   UNL     1       1.920   1.237   0.229  0.00  0.00    +0.096 A 
ATOM      4  N   UNL     1       0.797   2.010   0.245  0.00  0.00    -0.268 N 
ATOM      5  C   UNL     1      -0.412   1.467   0.579  0.00  0.00    +0.142 A 
ATOM      6  C   UNL     1      -0.494   0.102   0.905  0.00  0.00    +0.047 A 
ATOM      7  N   UNL     1      -1.522   2.205   0.597  0.00  0.00    -0.214 NA
ATOM      8  C   UNL     1      -1.503   3.498   0.303  0.00  0.00    +0.136 A 
ATOM      9  C   UNL     1      -0.279   4.114  -0.050  0.00  0.00    +0.081 A 
ATOM     10  C   UNL     1       0.892   3.320  -0.071  0.00  0.00    +0.267 A 
ATOM     11  O   UNL     1       1.968   3.809  -0.369  0.00  0.00    -0.267 OA
ENDROOT
BRANCH   9  12
ATOM     12  C   UNL     1      -0.228   5.490  -0.374  0.00  0.00    +0.037 C 
ATOM     13  C   UNL     1      -1.041   5.992  -1.349  0.00  0.00    +0.077 C 
ATOM     14  C   UNL     1      -1.219   7.340  -1.774  0.00  0.00    +0.259 C 
ATOM     15  O   UNL     1      -0.597   8.249  -1.252  0.00  0.00    -0.269 OA
ATOM     16  N   UNL     1      -2.074   7.575  -2.754  0.00  0.00    -0.252 N 
ATOM     17  C   UNL     1      -2.768   6.568  -3.328  0.00  0.00    +0.121 C 
ATOM     18  S   UNL     1      -3.919   6.641  -4.593  0.00  0.00    -0.027 S 
ATOM     19  S   UNL     1      -2.178   5.139  -2.432  0.00  0.00    -0.061 S 
BRANCH  16  20
ATOM     20  C   UNL     1      -2.277   8.949  -3.220  0.00  0.00    +0.083 C 
ATOM     21  C   UNL     1      -3.743   9.342  -3.025  0.00  0.00    +0.023 C 
ATOM     22  C   UNL     1      -3.955  10.777  -3.511  0.00  0.00    +0.002 C 
ATOM     23  C   UNL     1      -3.595  10.871  -4.995  0.00  0.00    +0.000 C 
ATOM     24  C   UNL     1      -2.130  10.478  -5.190  0.00  0.00    +0.002 C 
ATOM     25  C   UNL     1      -1.917   9.043  -4.704  0.00  0.00    +0.023 C 
ENDBRANCH  16  20
ENDBRANCH   9  12
BRANCH   8  26
ATOM     26  N   UNL     1      -2.667   4.234   0.335  0.00  0.00    -0.313 N 
ATOM     27  C   UNL     1      -2.600   5.277   1.362  0.00  0.00    +0.117 C 
ATOM     28  C   UNL     1      -3.663   6.346   1.087  0.00  0.00    +0.088 C 
ATOM     29  S   UNL     1      -5.301   5.558   1.161  0.00  0.00    -0.158 S 
ATOM     30  C   UNL     1      -5.103   4.116   0.070  0.00  0.00    +0.088 C 
ATOM     31  C   UNL     1      -3.834   3.364   0.490  0.00  0.00    +0.117 C 
ENDBRANCH   8  26
TORSDOF 3
