REMARK  Name = ZINC06731003
REMARK  2 active torsions:
REMARK  status: ('A' for Active; 'I' for Inactive)
REMARK    1  A    between atoms: C_2  and  N_9
REMARK    2  A    between atoms: C_18  and  C_20
REMARK                            x       y       z     vdW  Elec       q    Type
REMARK                         _______ _______ _______ _____ _____    ______ ____
ROOT
ATOM      1  N   UNL     1       1.363   3.709  -0.726  0.00  0.00    -0.269 N 
ATOM      2  C   UNL     1       2.492   4.355  -0.374  0.00  0.00    +0.307 C 
ATOM      3  O   UNL     1       3.536   3.741  -0.270  0.00  0.00    -0.252 OA
ATOM      4  N   UNL     1       2.463   5.681  -0.136  0.00  0.00    -0.282 N 
ATOM      5  C   UNL     1       1.185   6.405  -0.090  0.00  0.00    +0.128 C 
ATOM      6  C   UNL     1       1.087   7.141   1.252  0.00  0.00    +0.127 C 
ATOM      7  N   UNL     1       2.334   7.889   1.470  0.00  0.00    -0.296 N 
ATOM      8  C   UNL     1       3.612   7.165   1.423  0.00  0.00    +0.127 C 
ATOM      9  C   UNL     1       3.709   6.428   0.087  0.00  0.00    +0.128 C 
ATOM     10  C   UNL     1       2.305   9.215   1.707  0.00  0.00    +0.245 C 
ATOM     11  O   UNL     1       3.339   9.819   1.904  0.00  0.00    -0.273 OA
ATOM     12  H   UNL     1       0.557   4.212  -0.924  0.00  0.00    +0.156 HD
ENDROOT
BRANCH   1  14
ATOM     13  C   UNL     1       0.166   1.614  -0.625  0.00  0.00    +0.043 A 
ATOM     14  C   UNL     1       1.352   2.312  -0.808  0.00  0.00    +0.038 A 
ATOM     15  C   UNL     1       2.528   1.622  -1.072  0.00  0.00    +0.043 A 
ATOM     16  C   UNL     1       2.514   0.242  -1.152  0.00  0.00    +0.044 A 
ATOM     17  C   UNL     1       1.331  -0.452  -0.970  0.00  0.00    +0.040 A 
ATOM     18  C   UNL     1       0.158   0.234  -0.707  0.00  0.00    +0.044 A 
ATOM     19 CL   UNL     1      -1.325  -0.640  -0.478  0.00  0.00    -0.083 Cl
ATOM     20 CL   UNL     1       3.984  -0.622  -1.482  0.00  0.00    -0.083 Cl
ENDBRANCH   1  14
BRANCH  10  21
ATOM     21  C   UNL     1       0.989   9.949   1.729  0.00  0.00    +0.204 C 
ATOM     22  C   UNL     1       0.254   9.696   3.070  0.00  0.00    +0.043 C 
ATOM     23  C   UNL     1      -0.646  10.958   3.155  0.00  0.00    +0.031 C 
ATOM     24  C   UNL     1       0.241  12.039   2.500  0.00  0.00    +0.161 C 
ATOM     25  O   UNL     1       1.208  11.368   1.681  0.00  0.00    -0.367 OA
ENDBRANCH  10  21
TORSDOF 2
