REMARK  Name = ZINC41650351
REMARK  4 active torsions:
REMARK  status: ('A' for Active; 'I' for Inactive)
REMARK    1  A    between atoms: C_1  and  C_2
REMARK    2  A    between atoms: C_11  and  C_12
REMARK    3  A    between atoms: N_25  and  C_28
REMARK    4  A    between atoms: C_28  and  C_29
REMARK                            x       y       z     vdW  Elec       q    Type
REMARK                         _______ _______ _______ _____ _____    ______ ____
ROOT
ATOM      1  C   UNL     1      -0.662   1.599   0.134  0.00  0.00    +0.045 C 
ATOM      2  C   UNL     1      -0.762   0.096   0.112  0.00  0.00    -0.033 A 
ATOM      3  C   UNL     1      -1.037  -0.555  -1.056  0.00  0.00    +0.050 A 
ATOM      4  C   UNL     1      -1.130  -1.947  -1.083  0.00  0.00    +0.131 A 
ATOM      5  C   UNL     1      -0.943  -2.683   0.074  0.00  0.00    +0.051 A 
ATOM      6  C   UNL     1      -0.664  -2.035   1.273  0.00  0.00    +0.148 A 
ATOM      7  C   UNL     1      -0.569  -0.635   1.285  0.00  0.00    +0.071 A 
ATOM      8  C   UNL     1      -0.261  -0.250   2.674  0.00  0.00    +0.232 C 
ATOM      9  O   UNL     1      -0.099   0.873   3.119  0.00  0.00    -0.283 OA
ATOM     10  C   UNL     1      -0.193  -1.525   3.403  0.00  0.00    +0.176 C 
ATOM     11  C   UNL     1       0.068  -1.680   4.726  0.00  0.00    +0.061 C 
ATOM     12  O   UNL     1      -0.447  -2.517   2.517  0.00  0.00    -0.451 OA
ATOM     13  C   UNL     1      -1.032  -4.188   0.057  0.00  0.00    +0.130 C 
ATOM     14  N   UNL     1      -1.722  -4.626  -1.164  0.00  0.00    -0.259 NA
ATOM     15  C   UNL     1      -1.137  -3.966  -2.342  0.00  0.00    +0.319 C 
ATOM     16  O   UNL     1      -1.408  -2.564  -2.261  0.00  0.00    -0.476 OA
ENDROOT
BRANCH  11  17
ATOM     17  C   UNL     1      -0.018  -3.009   5.341  0.00  0.00    +0.022 A 
ATOM     18  C   UNL     1      -0.011  -4.157   4.540  0.00  0.00    +0.027 A 
ATOM     19  C   UNL     1      -0.094  -5.402   5.125  0.00  0.00    +0.019 A 
ATOM     20  C   UNL     1      -0.188  -5.522   6.503  0.00  0.00    +0.024 A 
ATOM     21  C   UNL     1      -0.197  -4.397   7.307  0.00  0.00    +0.022 A 
ATOM     22  C   UNL     1      -0.104  -3.138   6.738  0.00  0.00    +0.136 A 
ATOM     23  O   UNL     1      -0.096  -2.026   7.516  0.00  0.00    -0.465 OA
ATOM     24  C   UNL     1      -0.543  -2.178   8.867  0.00  0.00    +0.395 C 
ATOM     25  O   UNL     1       0.098  -3.328   9.433  0.00  0.00    -0.339 OA
ATOM     26  C   UNL     1      -0.304  -4.552   8.803  0.00  0.00    +0.202 C 
ATOM     27 BR   UNL     1      -0.082  -6.953   4.044  0.00  0.00    -0.050 Br
ENDBRANCH  11  17
BRANCH  14  28
ATOM     28  C   UNL     1      -1.673  -6.088  -1.301  0.00  0.00    +0.162 C 
BRANCH  28  29
ATOM     29  C   UNL     1      -2.589  -6.520  -2.416  0.00  0.00    +0.119 A 
ATOM     30  C   UNL     1      -2.244  -6.655  -3.709  0.00  0.00    +0.046 A 
ATOM     31  C   UNL     1      -3.404  -7.076  -4.401  0.00  0.00    +0.041 A 
ATOM     32  C   UNL     1      -4.388  -7.172  -3.488  0.00  0.00    +0.195 A 
ATOM     33  O   UNL     1      -3.887  -6.840  -2.287  0.00  0.00    -0.467 OA
ENDBRANCH  28  29
ENDBRANCH  14  28
TORSDOF 3
