REMARK  Name = ZINC28054645
REMARK  3 active torsions:
REMARK  status: ('A' for Active; 'I' for Inactive)
REMARK    1  A    between atoms: C_1  and  C_2
REMARK    2  A    between atoms: C_5  and  C_8
REMARK    3  A    between atoms: C_19  and  C_21
REMARK                            x       y       z     vdW  Elec       q    Type
REMARK                         _______ _______ _______ _____ _____    ______ ____
ROOT
ATOM      1  C   UNL     1      -2.399  -0.721  -2.258  0.00  0.00    +0.174 C 
ATOM      2  C   UNL     1      -1.401  -1.461  -1.401  0.00  0.00    +0.026 C 
ATOM      3  C   UNL     1      -0.735  -2.530  -1.841  0.00  0.00    +0.050 C 
ATOM      4  C   UNL     1       0.198  -3.212  -0.913  0.00  0.00    +0.038 A 
ATOM      5  C   UNL     1       1.159  -4.104  -1.374  0.00  0.00    +0.013 A 
ATOM      6  C   UNL     1       2.007  -4.717  -0.472  0.00  0.00    +0.001 A 
ATOM      7  C   UNL     1       1.902  -4.447   0.881  0.00  0.00    +0.004 A 
ATOM      8  C   UNL     1       0.948  -3.561   1.348  0.00  0.00    +0.046 A 
ATOM      9  C   UNL     1       0.093  -2.939   0.457  0.00  0.00    +0.131 A 
ATOM     10  O   UNL     1      -0.853  -2.062   0.874  0.00  0.00    -0.479 OA
ATOM     11  C   UNL     1      -1.155  -0.969   0.007  0.00  0.00    +0.241 C 
ATOM     12  N   UNL     1      -0.898  -3.030  -3.139  0.00  0.00    -0.282 N 
ATOM     13  C   UNL     1      -1.569  -2.230  -4.049  0.00  0.00    +0.240 A 
ATOM     14  N   UNL     1      -2.272  -1.138  -3.647  0.00  0.00    -0.201 N 
ATOM     15  N   UNL     1      -2.791  -0.581  -4.814  0.00  0.00    -0.042 NA
ATOM     16  N   UNL     1      -2.395  -1.333  -5.790  0.00  0.00    -0.021 NA
ATOM     17  N   UNL     1      -1.676  -2.306  -5.344  0.00  0.00    -0.092 NA
ATOM     18  H   UNL     1      -0.500  -4.021  -3.401  0.00  0.00    +0.155 HD
ENDROOT
BRANCH   1  23
ATOM     19  C   UNL     1      -7.748  -1.878  -0.402  0.00  0.00    +0.044 C 
ATOM     20  C   UNL     1      -6.353  -1.576  -0.886  0.00  0.00    -0.050 A 
ATOM     21  C   UNL     1      -5.890  -0.274  -0.892  0.00  0.00    +0.004 A 
ATOM     22  C   UNL     1      -4.610   0.003  -1.336  0.00  0.00    +0.006 A 
ATOM     23  C   UNL     1      -3.794  -1.023  -1.774  0.00  0.00    -0.019 A 
ATOM     24  C   UNL     1      -4.259  -2.325  -1.773  0.00  0.00    +0.006 A 
ATOM     25  C   UNL     1      -5.536  -2.602  -1.325  0.00  0.00    +0.004 A 
ENDBRANCH   1  23
BRANCH  11  26
ATOM     26  C   UNL     1       0.002  -0.004   0.002  0.00  0.00    +0.034 A 
ATOM     27  C   UNL     1      -0.016   1.351   0.009  0.00  0.00    +0.015 A 
ATOM     28  C   UNL     1       1.183   2.038   0.002  0.00  0.00    +0.008 A 
ATOM     29  C   UNL     1       2.343   1.336  -0.013  0.00  0.00    +0.045 A 
ATOM     30  S   UNL     1       1.754  -0.349  -0.017  0.00  0.00    -0.098 S 
ENDBRANCH  11  26
TORSDOF 2
