REMARK  Name = ZINC11155917
REMARK  10 active torsions:
REMARK  status: ('A' for Active; 'I' for Inactive)
REMARK    1  A    between atoms: C_1  and  C_2
REMARK    2  A    between atoms: C_2  and  N_3
REMARK    3  A    between atoms: N_14  and  N_15
REMARK    4  A    between atoms: C_16  and  C_18
REMARK    5  A    between atoms: C_18  and  C_20
REMARK    6  A    between atoms: C_18  and  N_24
REMARK    7  A    between atoms: C_20  and  C_21
REMARK    8  A    between atoms: C_21  and  C_22
REMARK    9  A    between atoms: C_21  and  C_23
REMARK   10  A    between atoms: C_25  and  C_27
REMARK                            x       y       z     vdW  Elec       q    Type
REMARK                         _______ _______ _______ _____ _____    ______ ____
ROOT
ATOM      1  N   UNL     1      -3.297  -1.729   0.049  0.00  0.00    -0.233 N 
ATOM      2  C   UNL     1      -4.478  -2.376   0.091  0.00  0.00    +0.249 C 
ATOM      3  O   UNL     1      -4.505  -3.583   0.208  0.00  0.00    -0.272 OA
ATOM      4  H   UNL     1      -3.276  -0.764  -0.044  0.00  0.00    +0.173 HD
ENDROOT
BRANCH   1  16
ATOM      5  N   UNL     1       0.250  -2.525   0.189  0.00  0.00    -0.280 N 
ATOM      6  C   UNL     1       1.460  -1.919   0.152  0.00  0.00    +0.263 A 
ATOM      7  O   UNL     1       2.490  -2.561   0.233  0.00  0.00    -0.267 OA
ATOM      8  C   UNL     1       1.482  -0.457   0.011  0.00  0.00    +0.065 A 
ATOM      9  C   UNL     1       2.677   0.261  -0.037  0.00  0.00    +0.015 A 
ATOM     10  C   UNL     1       2.640   1.621  -0.169  0.00  0.00    +0.001 A 
ATOM     11  C   UNL     1       1.428   2.294  -0.256  0.00  0.00    +0.002 A 
ATOM     12  C   UNL     1       0.243   1.615  -0.212  0.00  0.00    +0.028 A 
ATOM     13  C   UNL     1       0.247   0.224  -0.078  0.00  0.00    +0.080 A 
ATOM     14  N   UNL     1      -0.903  -0.488  -0.030  0.00  0.00    -0.214 NA
ATOM     15  C   UNL     1      -0.896  -1.792   0.097  0.00  0.00    +0.216 A 
ATOM     16  N   UNL     1      -2.099  -2.450   0.140  0.00  0.00    -0.234 N 
ATOM     17  H   UNL     1      -2.121  -3.416   0.233  0.00  0.00    +0.173 HD
BRANCH   5  19
ATOM     18  C   UNL     1       0.118  -4.349   1.812  0.00  0.00    +0.027 C 
ATOM     19  C   UNL     1       0.172  -3.982   0.328  0.00  0.00    +0.125 C 
ENDBRANCH   5  19
ENDBRANCH   1  16
BRANCH   2  20
ATOM     20  C   UNL     1      -5.766  -1.600  -0.007  0.00  0.00    +0.161 C 
BRANCH  20  21
ATOM     21  N   UNL     1      -6.901  -2.523   0.079  0.00  0.00    -0.300 N 
ATOM     22  C   UNL     1      -8.096  -2.083   0.518  0.00  0.00    +0.246 C 
ATOM     23  O   UNL     1      -8.260  -0.902   0.754  0.00  0.00    -0.270 OA
ATOM     24  H   UNL     1      -6.791  -3.452  -0.180  0.00  0.00    +0.150 HD
BRANCH  22  25
ATOM     25  C   UNL     1      -9.208  -3.036   0.713  0.00  0.00    +0.055 A 
ATOM     26  C   UNL     1      -9.024  -4.394   0.443  0.00  0.00    +0.016 A 
ATOM     27  C   UNL     1     -10.065  -5.278   0.627  0.00  0.00    +0.021 A 
ATOM     28  C   UNL     1     -11.293  -4.823   1.079  0.00  0.00    +0.042 A 
ATOM     29  C   UNL     1     -11.484  -3.479   1.348  0.00  0.00    +0.040 A 
ATOM     30  C   UNL     1     -10.447  -2.583   1.174  0.00  0.00    +0.054 A 
ATOM     31 CL   UNL     1     -10.685  -0.899   1.520  0.00  0.00    -0.083 Cl
ATOM     32 CL   UNL     1     -12.599  -5.944   1.308  0.00  0.00    -0.083 Cl
ENDBRANCH  22  25
ENDBRANCH  20  21
BRANCH  20  33
ATOM     33  C   UNL     1      -5.814  -0.857  -1.343  0.00  0.00    +0.034 C 
BRANCH  33  34
ATOM     34  C   UNL     1      -5.896  -1.870  -2.487  0.00  0.00    -0.015 C 
ATOM     35  C   UNL     1      -6.159  -1.134  -3.803  0.00  0.00    +0.007 C 
ATOM     36  C   UNL     1      -4.575  -2.635  -2.586  0.00  0.00    +0.007 C 
ENDBRANCH  33  34
ENDBRANCH  20  33
ENDBRANCH   2  20
TORSDOF 7
