REMARK  Name = ZINC34934257
REMARK  11 active torsions:
REMARK  status: ('A' for Active; 'I' for Inactive)
REMARK    1  A    between atoms: C_1  and  C_2
REMARK    2  A    between atoms: C_2  and  C_3
REMARK    3  A    between atoms: C_2  and  C_4
REMARK    4  A    between atoms: C_4  and  C_6
REMARK    5  A    between atoms: C_4  and  N_24
REMARK    6  A    between atoms: N_8  and  C_9
REMARK    7  A    between atoms: C_9  and  C_10
REMARK    8  A    between atoms: C_10  and  C_11
REMARK    9  A    between atoms: C_11  and  C_12
REMARK   10  A    between atoms: C_11  and  C_18
REMARK   11  A    between atoms: N_27  and  C_28
REMARK                            x       y       z     vdW  Elec       q    Type
REMARK                         _______ _______ _______ _____ _____    ______ ____
ROOT
ATOM      1  C   UNL     1      -2.896  -0.472  -2.269  0.00  0.00    +0.234 C 
ATOM      2  O   UNL     1      -3.090  -1.217  -3.206  0.00  0.00    -0.274 OA
ATOM      3  N   UNL     1      -3.455   0.755  -2.258  0.00  0.00    -0.314 N 
ATOM      4  H   UNL     1      -3.366   1.321  -1.475  0.00  0.00    +0.149 HD
ENDROOT
BRANCH   1   5
ATOM      5  C   UNL     1      -2.031  -0.917  -1.119  0.00  0.00    +0.163 C 
BRANCH   5   6
ATOM      6  N   UNL     1      -1.916  -2.377  -1.130  0.00  0.00    -0.288 N 
ATOM      7  C   UNL     1      -1.648  -3.041   0.011  0.00  0.00    +0.305 C 
ATOM      8  O   UNL     1      -1.501  -2.428   1.051  0.00  0.00    -0.252 OA
ATOM      9  N   UNL     1      -1.542  -4.385   0.000  0.00  0.00    -0.267 N 
ATOM     10  H   UNL     1      -2.033  -2.866  -1.960  0.00  0.00    +0.151 HD
ATOM     11  H   UNL     1      -1.570  -4.867  -0.841  0.00  0.00    +0.156 HD
BRANCH   9  12
ATOM     12  C   UNL     1      -1.391  -5.085   1.204  0.00  0.00    +0.070 A 
ATOM     13  C   UNL     1      -1.754  -4.491   2.405  0.00  0.00    +0.026 A 
ATOM     14  C   UNL     1      -1.605  -5.184   3.591  0.00  0.00    +0.002 A 
ATOM     15  C   UNL     1      -1.094  -6.469   3.583  0.00  0.00    +0.003 A 
ATOM     16  C   UNL     1      -0.732  -7.066   2.390  0.00  0.00    +0.040 A 
ATOM     17  C   UNL     1      -0.884  -6.380   1.198  0.00  0.00    +0.145 A 
ATOM     18  F   UNL     1      -0.535  -6.965   0.032  0.00  0.00    -0.204 F 
ENDBRANCH   9  12
ENDBRANCH   5   6
BRANCH   5  20
ATOM     19  C   UNL     1       0.194  -0.633  -0.019  0.00  0.00    +0.009 C 
ATOM     20  C   UNL     1      -0.640  -0.294  -1.256  0.00  0.00    +0.012 C 
ATOM     21  C   UNL     1       0.048  -0.853  -2.503  0.00  0.00    +0.009 C 
ENDBRANCH   5  20
ENDBRANCH   1   5
BRANCH   3  22
ATOM     22  C   UNL     1      -4.196   1.234  -3.427  0.00  0.00    +0.105 C 
BRANCH  22  23
ATOM     23  C   UNL     1      -4.723   2.644  -3.155  0.00  0.00    +0.031 C 
BRANCH  23  24
ATOM     24  C   UNL     1      -5.496   3.144  -4.377  0.00  0.00    +0.050 C 
BRANCH  24  25
ATOM     25  C   UNL     1      -6.723   2.292  -4.578  0.00  0.00    -0.040 A 
ATOM     26  C   UNL     1      -6.954   1.691  -5.801  0.00  0.00    +0.004 A 
ATOM     27  C   UNL     1      -8.079   0.909  -5.985  0.00  0.00    +0.000 A 
ATOM     28  C   UNL     1      -8.973   0.728  -4.946  0.00  0.00    +0.000 A 
ATOM     29  C   UNL     1      -8.741   1.328  -3.723  0.00  0.00    +0.000 A 
ATOM     30  C   UNL     1      -7.614   2.106  -3.537  0.00  0.00    +0.004 A 
ENDBRANCH  24  25
BRANCH  24  31
ATOM     31  C   UNL     1      -5.910   4.576  -4.157  0.00  0.00    -0.040 A 
ATOM     32  C   UNL     1      -6.601   4.929  -3.013  0.00  0.00    +0.004 A 
ATOM     33  C   UNL     1      -6.981   6.243  -2.812  0.00  0.00    +0.000 A 
ATOM     34  C   UNL     1      -6.669   7.204  -3.755  0.00  0.00    +0.000 A 
ATOM     35  C   UNL     1      -5.977   6.852  -4.898  0.00  0.00    +0.000 A 
ATOM     36  C   UNL     1      -5.594   5.539  -5.098  0.00  0.00    +0.004 A 
ENDBRANCH  24  31
ENDBRANCH  23  24
ENDBRANCH  22  23
ENDBRANCH   3  22
TORSDOF 9
