REMARK  Name = ZINC65287210
REMARK  4 active torsions:
REMARK  status: ('A' for Active; 'I' for Inactive)
REMARK    1  A    between atoms: C_7  and  C_10
REMARK    2  A    between atoms: C_10  and  C_11
REMARK    3  A    between atoms: C_17  and  C_20
REMARK    4  A    between atoms: C_23  and  C_26
REMARK                            x       y       z     vdW  Elec       q    Type
REMARK                         _______ _______ _______ _____ _____    ______ ____
ROOT
ATOM      1  C   UNL     1       0.460  -3.646  -1.440  0.00  0.00    +0.220 C 
ATOM      2  O   UNL     1       1.006  -3.075  -2.360  0.00  0.00    -0.275 OA
ATOM      3  N   UNL     1      -0.353  -4.693  -1.684  0.00  0.00    -0.301 N 
ATOM      4  C   UNL     1      -1.026  -5.391  -0.581  0.00  0.00    +0.108 C 
ATOM      5  C   UNL     1      -2.530  -5.433  -0.868  0.00  0.00    +0.020 C 
ATOM      6  C   UNL     1      -2.765  -6.059  -2.245  0.00  0.00    +0.014 C 
ATOM      7  C   UNL     1      -2.092  -5.202  -3.319  0.00  0.00    +0.076 C 
ATOM      8  C   UNL     1      -0.588  -5.154  -3.059  0.00  0.00    +0.119 C 
ENDROOT
BRANCH   7   9
ATOM      9  C   UNL     1      -2.352  -5.801  -4.677  0.00  0.00    +0.156 A 
ATOM     10  N   UNL     1      -2.980  -5.195  -5.683  0.00  0.00    -0.216 NA
ATOM     11  H   UNL     1      -2.320  -7.930  -6.950  0.00  0.00    +0.190 HD
ATOM     12  C   UNL     1      -3.036  -5.995  -6.718  0.00  0.00    +0.128 A 
ATOM     13  N   UNL     1      -2.433  -7.149  -6.385  0.00  0.00    -0.262 N 
ATOM     14  N   UNL     1      -1.992  -6.998  -5.060  0.00  0.00    -0.157 NA
BRANCH  12  15
ATOM     15  C   UNL     1      -3.666  -5.677  -8.049  0.00  0.00    +0.056 C 
ATOM     16  C   UNL     1      -4.334  -6.826  -8.806  0.00  0.00    +0.012 C 
ATOM     17  C   UNL     1      -3.004  -6.255  -9.301  0.00  0.00    +0.012 C 
ENDBRANCH  12  15
ENDBRANCH   7   9
BRANCH   1  18
ATOM     18  C   UNL     1       0.691  -3.186  -0.024  0.00  0.00    +0.129 C 
BRANCH  18  25
ATOM     19  C   UNL     1      -0.016   1.348   0.009  0.00  0.00    +0.001 A 
ATOM     20  C   UNL     1       1.166   2.101   0.002  0.00  0.00    +0.002 A 
ATOM     21  C   UNL     1       2.391   1.535  -0.013  0.00  0.00    +0.026 A 
ATOM     22  C   UNL     1       2.529   0.120  -0.022  0.00  0.00    +0.043 A 
ATOM     23  N   UNL     1       3.587  -0.654  -0.037  0.00  0.00    -0.380 N 
ATOM     24  C   UNL     1       3.143  -2.053  -0.041  0.00  0.00    +0.145 C 
ATOM     25  C   UNL     1       1.631  -2.008  -0.025  0.00  0.00    -0.033 C 
ATOM     26  C   UNL     1       1.295  -0.698  -0.014  0.00  0.00    -0.001 A 
ATOM     27  C   UNL     1       0.002  -0.004   0.002  0.00  0.00    +0.010 A 
ATOM     28  H   UNL     1       4.509  -0.353  -0.045  0.00  0.00    +0.160 HD
ENDBRANCH  18  25
ENDBRANCH   1  18
TORSDOF 4
