REMARK  Name = ZINC39280322
REMARK  11 active torsions:
REMARK  status: ('A' for Active; 'I' for Inactive)
REMARK    1  A    between atoms: C_1  and  C_2
REMARK    2  A    between atoms: C_2  and  O_3
REMARK    3  A    between atoms: O_3  and  C_4
REMARK    4  A    between atoms: C_4  and  C_6
REMARK    5  A    between atoms: C_7  and  C_37
REMARK    6  A    between atoms: C_14  and  C_15
REMARK    7  A    between atoms: C_25  and  C_27
REMARK    8  A    between atoms: C_30  and  O_33
REMARK    9  A    between atoms: O_33  and  C_34
REMARK   10  A    between atoms: C_34  and  C_35
REMARK   11  A    between atoms: C_34  and  C_36
REMARK                            x       y       z     vdW  Elec       q    Type
REMARK                         _______ _______ _______ _____ _____    ______ ____
ROOT
ATOM      1  C   UNL     1       0.972  -2.219  -2.384  0.00  0.00    +0.085 C 
ATOM      2  C   UNL     1       1.183  -3.560  -2.239  0.00  0.00    +0.053 C 
ATOM      3  N   UNL     1       1.889  -4.234  -3.139  0.00  0.00    -0.228 NA
ATOM      4  C   UNL     1       2.430  -3.712  -4.208  0.00  0.00    +0.178 A 
ATOM      5  N   UNL     1       2.339  -2.380  -4.544  0.00  0.00    -0.275 N 
ATOM      6  C   UNL     1       2.937  -1.957  -5.665  0.00  0.00    +0.268 A 
ATOM      7  O   UNL     1       2.884  -0.790  -6.004  0.00  0.00    -0.266 OA
ATOM      8  C   UNL     1       3.663  -2.955  -6.478  0.00  0.00    +0.080 A 
ATOM      9  C   UNL     1       4.356  -2.788  -7.661  0.00  0.00    +0.026 C 
ATOM     10  S   UNL     1       3.400  -4.436  -5.515  0.00  0.00    -0.046 S 
ATOM     11  C   UNL     1       1.558  -1.534  -3.597  0.00  0.00    +0.162 C 
ATOM     12  C   UNL     1       0.610  -4.281  -1.046  0.00  0.00    +0.066 C 
ENDROOT
BRANCH   9  13
ATOM     13  C   UNL     1       4.976  -3.883  -8.267  0.00  0.00    -0.018 C 
ATOM     14  C   UNL     1       5.714  -3.885  -9.450  0.00  0.00    +0.003 A 
ATOM     15  C   UNL     1       6.056  -2.866 -10.364  0.00  0.00    +0.010 A 
ATOM     16  C   UNL     1       6.803  -3.164 -11.457  0.00  0.00    +0.001 A 
ATOM     17  C   UNL     1       7.248  -4.466 -11.709  0.00  0.00    +0.002 A 
ATOM     18  C   UNL     1       6.958  -5.494 -10.877  0.00  0.00    +0.026 A 
ATOM     19  C   UNL     1       6.180  -5.261  -9.710  0.00  0.00    +0.043 A 
ATOM     20  N   UNL     1       5.769  -6.072  -8.761  0.00  0.00    -0.380 N 
ATOM     21  C   UNL     1       4.994  -5.313  -7.775  0.00  0.00    +0.149 C 
ATOM     22  H   UNL     1       5.953  -7.023  -8.719  0.00  0.00    +0.160 HD
ENDBRANCH   9  13
BRANCH  11  23
ATOM     23  C   UNL     1       0.427  -0.897  -4.362  0.00  0.00    -0.020 A 
ATOM     24  C   UNL     1      -0.366  -1.669  -5.192  0.00  0.00    +0.009 A 
ATOM     25  C   UNL     1      -1.403  -1.087  -5.895  0.00  0.00    +0.046 A 
ATOM     26  C   UNL     1      -1.649   0.272  -5.767  0.00  0.00    +0.121 A 
ATOM     27  C   UNL     1      -0.853   1.044  -4.934  0.00  0.00    +0.046 A 
ATOM     28  C   UNL     1       0.180   0.457  -4.229  0.00  0.00    +0.009 A 
BRANCH  26  29
ATOM     29  O   UNL     1      -2.669   0.847  -6.458  0.00  0.00    -0.489 OA
BRANCH  29  30
ATOM     30  C   UNL     1      -3.371   0.019  -7.386  0.00  0.00    +0.167 C 
ATOM     31  C   UNL     1      -4.430  -0.797  -6.643  0.00  0.00    +0.051 C 
ATOM     32  C   UNL     1      -4.051   0.896  -8.440  0.00  0.00    +0.051 C 
ENDBRANCH  29  30
ENDBRANCH  26  29
ENDBRANCH  11  23
BRANCH   1  33
ATOM     33  C   UNL     1       0.225  -1.496  -1.436  0.00  0.00    +0.339 C 
ATOM     34  O   UNL     1      -0.353  -2.084  -0.540  0.00  0.00    -0.245 OA
BRANCH  33  35
ATOM     35  O   UNL     1       0.150  -0.150  -1.519  0.00  0.00    -0.462 OA
BRANCH  35  37
ATOM     36  C   UNL     1      -0.594   2.027  -0.779  0.00  0.00    +0.048 C 
ATOM     37  C   UNL     1      -0.625   0.519  -0.522  0.00  0.00    +0.229 C 
ENDBRANCH  35  37
ENDBRANCH  33  35
ENDBRANCH   1  33
TORSDOF 7
