REMARK  Name = ZINC08931724
REMARK  5 active torsions:
REMARK  status: ('A' for Active; 'I' for Inactive)
REMARK    1  A    between atoms: C_1  and  C_2
REMARK    2  A    between atoms: C_9  and  N_13
REMARK    3  A    between atoms: C_10  and  C_12
REMARK    4  A    between atoms: C_14  and  C_16
REMARK    5  A    between atoms: C_20  and  C_22
REMARK                            x       y       z     vdW  Elec       q    Type
REMARK                         _______ _______ _______ _____ _____    ______ ____
ROOT
ATOM      1  N   UNL     1       1.088   6.013   0.023  0.00  0.00    -0.276 N 
ATOM      2  C   UNL     1       0.417   5.335  -0.930  0.00  0.00    +0.248 C 
ATOM      3  O   UNL     1      -0.200   5.939  -1.785  0.00  0.00    -0.270 OA
ATOM      4  H   UNL     1       1.523   5.532   0.745  0.00  0.00    +0.155 HD
ENDROOT
BRANCH   1  13
ATOM      5  C   UNL     1      -2.403   9.895   0.077  0.00  0.00    +0.064 C 
ATOM      6  C   UNL     1      -0.996  10.425  -0.017  0.00  0.00    +0.033 A 
ATOM      7  C   UNL     1      -0.794  11.741  -0.073  0.00  0.00    +0.070 A 
ATOM      8  S   UNL     1       0.987  11.834  -0.173  0.00  0.00    -0.057 S 
ATOM      9  C   UNL     1       1.314  10.085  -0.130  0.00  0.00    +0.181 A 
ATOM     10  N   UNL     1       0.058   9.543  -0.043  0.00  0.00    -0.258 N 
ATOM     11  C   UNL     1      -0.016   8.180   0.008  0.00  0.00    +0.281 A 
ATOM     12  O   UNL     1      -1.103   7.629   0.086  0.00  0.00    -0.265 OA
ATOM     13  C   UNL     1       1.157   7.415  -0.029  0.00  0.00    +0.121 A 
ATOM     14  C   UNL     1       2.383   8.048  -0.112  0.00  0.00    +0.068 A 
ATOM     15  N   UNL     1       2.415   9.378  -0.165  0.00  0.00    -0.226 NA
ATOM     16  C   UNL     1       3.659   7.248  -0.147  0.00  0.00    +0.068 C 
ENDBRANCH   1  13
BRANCH   2  17
ATOM     17  C   UNL     1       0.432   3.857  -0.935  0.00  0.00    +0.038 A 
ATOM     18  C   UNL     1       1.140   3.160   0.046  0.00  0.00    +0.013 A 
ATOM     19  C   UNL     1       1.151   1.780   0.035  0.00  0.00    +0.001 A 
ATOM     20  C   UNL     1       0.462   1.088  -0.945  0.00  0.00    +0.012 A 
ATOM     21  C   UNL     1      -0.237   1.772  -1.923  0.00  0.00    +0.056 A 
ATOM     22  C   UNL     1      -0.261   3.152  -1.920  0.00  0.00    +0.025 A 
BRANCH  21  23
ATOM     23  C   UNL     1      -0.980   1.010  -2.989  0.00  0.00    +0.417 C 
ATOM     24  F   UNL     1      -0.815  -0.364  -2.781  0.00  0.00    -0.166 F 
ATOM     25  F   UNL     1      -2.340   1.330  -2.930  0.00  0.00    -0.166 F 
ATOM     26  F   UNL     1      -0.473   1.355  -4.247  0.00  0.00    -0.166 F 
ENDBRANCH  21  23
ENDBRANCH   2  17
TORSDOF 3
