REMARK  Name = ZINC06206849
REMARK  3 active torsions:
REMARK  status: ('A' for Active; 'I' for Inactive)
REMARK    1  A    between atoms: C_1  and  C_2
REMARK    2  A    between atoms: C_7  and  C_8
REMARK    3  A    between atoms: C_13  and  C_15
REMARK                            x       y       z     vdW  Elec       q    Type
REMARK                         _______ _______ _______ _____ _____    ______ ____
ROOT
ATOM      1  C   UNL     1       2.686  -4.186  -0.045  0.00  0.00    +0.044 C 
ATOM      2  C   UNL     1       2.557  -2.684  -0.036  0.00  0.00    -0.045 A 
ATOM      3  C   UNL     1       3.705  -1.905  -0.043  0.00  0.00    +0.005 A 
ATOM      4  C   UNL     1       3.588  -0.527  -0.035  0.00  0.00    +0.017 A 
ATOM      5  C   UNL     1       2.341   0.047  -0.020  0.00  0.00    +0.041 A 
ATOM      6  C   UNL     1       1.151  -0.715  -0.013  0.00  0.00    +0.083 A 
ATOM      7  C   UNL     1       1.308  -2.120  -0.021  0.00  0.00    -0.021 A 
ATOM      8  C   UNL     1       0.089  -3.006  -0.015  0.00  0.00    +0.046 C 
ATOM      9  N   UNL     1       0.002  -0.004   0.002  0.00  0.00    -0.224 NA
ATOM     10  C   UNL     1      -0.016   1.308   0.009  0.00  0.00    +0.166 A 
ATOM     11  S   UNL     1       1.725   1.713  -0.005  0.00  0.00    -0.052 S 
ATOM     12  N   UNL     1      -1.106   2.163   0.019  0.00  0.00    -0.262 N 
ATOM     13  C   UNL     1      -0.917   3.497   0.026  0.00  0.00    +0.263 C 
ATOM     14  O   UNL     1       0.208   3.950   0.022  0.00  0.00    -0.271 OA
ATOM     15  H   UNL     1      -2.006   1.800   0.022  0.00  0.00    +0.157 HD
ENDROOT
BRANCH  13  16
ATOM     16  C   UNL     1      -2.104   4.426   0.037  0.00  0.00    +0.296 C 
ATOM     17  C   UNL     1      -2.864   4.279   1.362  0.00  0.00    +0.283 C 
ATOM     18  O   UNL     1      -3.974   5.183   1.344  0.00  0.00    -0.484 OA
ATOM     19  C   UNL     1      -3.721   6.454   0.927  0.00  0.00    +0.162 A 
ATOM     20  C   UNL     1      -4.632   7.459   1.216  0.00  0.00    +0.049 A 
ATOM     21  C   UNL     1      -4.391   8.753   0.797  0.00  0.00    +0.004 A 
ATOM     22  C   UNL     1      -3.242   9.050   0.087  0.00  0.00    +0.004 A 
ATOM     23  C   UNL     1      -2.330   8.053  -0.204  0.00  0.00    +0.049 A 
ATOM     24  C   UNL     1      -2.566   6.752   0.215  0.00  0.00    +0.163 A 
ATOM     25  O   UNL     1      -1.657   5.782  -0.076  0.00  0.00    -0.473 OA
ENDBRANCH  13  16
TORSDOF 1
