REMARK  Name = ZINC63962400
REMARK  6 active torsions:
REMARK  status: ('A' for Active; 'I' for Inactive)
REMARK    1  A    between atoms: C_1  and  C_2
REMARK    2  A    between atoms: C_5  and  C_24
REMARK    3  A    between atoms: C_7  and  N_8
REMARK    4  A    between atoms: C_9  and  C_11
REMARK    5  A    between atoms: C_18  and  C_22
REMARK    6  A    between atoms: C_19  and  C_21
REMARK                            x       y       z     vdW  Elec       q    Type
REMARK                         _______ _______ _______ _____ _____    ______ ____
ROOT
ATOM      1  N   UNL     1       0.025  -0.008   2.417  0.00  0.00    -0.281 N 
ATOM      2  C   UNL     1      -0.057  -0.683   3.580  0.00  0.00    +0.250 C 
ATOM      3  O   UNL     1      -0.040  -1.899   3.580  0.00  0.00    -0.270 OA
ATOM      4  H   UNL     1       0.078   0.961   2.421  0.00  0.00    +0.155 HD
ENDROOT
BRANCH   2   5
ATOM      5  C   UNL     1      -0.166   0.053   4.854  0.00  0.00    +0.067 A 
ATOM      6  C   UNL     1      -0.191   1.439   4.862  0.00  0.00    +0.053 A 
ATOM      7  C   UNL     1      -0.293   2.140   6.061  0.00  0.00    +0.126 A 
ATOM      8  C   UNL     1      -0.372   1.484   7.255  0.00  0.00    +0.068 A 
ATOM      9  C   UNL     1      -0.350   0.079   7.292  0.00  0.00    +0.093 A 
ATOM     10  C   UNL     1      -0.252  -0.650   6.082  0.00  0.00    +0.102 A 
ATOM     11  N   UNL     1      -0.235  -1.984   6.113  0.00  0.00    -0.248 NA
ATOM     12  C   UNL     1      -0.316  -2.610   7.266  0.00  0.00    +0.060 A 
ATOM     13  C   UNL     1      -0.419  -1.893   8.460  0.00  0.00    +0.060 A 
ATOM     14  N   UNL     1      -0.425  -0.580   8.454  0.00  0.00    -0.248 NA
ATOM     15  C   UNL     1      -0.511  -2.634   9.769  0.00  0.00    +0.067 C 
ATOM     16  C   UNL     1      -0.298  -4.117   7.300  0.00  0.00    +0.067 C 
ATOM     17  F   UNL     1      -0.316   3.490   6.041  0.00  0.00    -0.205 F 
ENDBRANCH   2   5
BRANCH   1  24
ATOM     18  C   UNL     1      -1.266   1.184   0.183  0.00  0.00    +0.045 C 
ATOM     19  C   UNL     1      -0.587  -0.158   0.086  0.00  0.00    -0.029 A 
ATOM     20  C   UNL     1      -0.577  -0.839  -1.118  0.00  0.00    +0.006 A 
ATOM     21  C   UNL     1       0.043  -2.068  -1.215  0.00  0.00    +0.019 A 
ATOM     22  C   UNL     1       0.664  -2.628  -0.096  0.00  0.00    +0.054 A 
ATOM     23  C   UNL     1       0.654  -1.940   1.118  0.00  0.00    +0.042 A 
ATOM     24  C   UNL     1       0.033  -0.704   1.204  0.00  0.00    +0.038 A 
BRANCH  22  25
ATOM     25  C   UNL     1       1.307  -3.903  -0.195  0.00  0.00    +0.099 C 
ATOM     26  N   UNL     1       1.818  -4.915  -0.272  0.00  0.00    -0.191 NA
ENDBRANCH  22  25
ENDBRANCH   1  24
TORSDOF 3
