REMARK  Name = ZINC13756593
REMARK  6 active torsions:
REMARK  status: ('A' for Active; 'I' for Inactive)
REMARK    1  A    between atoms: C_1  and  C_2
REMARK    2  A    between atoms: C_4  and  C_30
REMARK    3  A    between atoms: C_9  and  N_22
REMARK    4  A    between atoms: N_10  and  C_11
REMARK    5  A    between atoms: N_13  and  C_14
REMARK    6  A    between atoms: N_22  and  C_23
REMARK                            x       y       z     vdW  Elec       q    Type
REMARK                         _______ _______ _______ _____ _____    ______ ____
ROOT
ATOM      1  C   UNL     1       1.978  -6.390   3.247  0.00  0.00    +0.066 C 
ATOM      2  C   UNL     1       1.211  -5.598   2.218  0.00  0.00    +0.044 A 
ATOM      3  C   UNL     1       0.912  -6.155   0.985  0.00  0.00    +0.046 A 
ATOM      4  C   UNL     1       0.205  -5.393   0.068  0.00  0.00    +0.044 A 
ATOM      5  N   UNL     1      -0.160  -4.165   0.395  0.00  0.00    -0.217 NA
ATOM      6  C   UNL     1       0.142  -3.663   1.583  0.00  0.00    +0.231 A 
ATOM      7  N   UNL     1       0.811  -4.366   2.483  0.00  0.00    -0.217 NA
ATOM      8  N   UNL     1      -0.258  -2.370   1.893  0.00  0.00    -0.295 N 
ATOM      9  C   UNL     1       0.016  -1.847   3.127  0.00  0.00    +0.224 C 
ATOM     10  N   UNL     1       0.736  -2.539   3.994  0.00  0.00    -0.127 NA
ATOM     11  C   UNL     1      -0.142  -5.957  -1.286  0.00  0.00    +0.066 C 
ATOM     12  H   UNL     1      -0.731  -1.837   1.234  0.00  0.00    +0.172 HD
ENDROOT
BRANCH  10  13
ATOM     13  C   UNL     1       1.004  -2.027   5.204  0.00  0.00    +0.330 C 
ATOM     14  O   UNL     1       0.584  -0.923   5.504  0.00  0.00    -0.250 OA
ATOM     15  N   UNL     1       1.737  -2.732   6.087  0.00  0.00    -0.268 N 
ATOM     16  H   UNL     1       2.135  -3.576   5.822  0.00  0.00    +0.156 HD
BRANCH  15  17
ATOM     17  C   UNL     1       1.924  -2.248   7.387  0.00  0.00    +0.036 A 
ATOM     18  C   UNL     1       3.123  -2.478   8.049  0.00  0.00    +0.025 A 
ATOM     19  C   UNL     1       3.305  -1.999   9.332  0.00  0.00    +0.023 A 
ATOM     20  C   UNL     1       2.295  -1.290   9.957  0.00  0.00    +0.059 A 
ATOM     21  C   UNL     1       1.099  -1.058   9.299  0.00  0.00    +0.061 A 
ATOM     22  C   UNL     1       0.913  -1.531   8.014  0.00  0.00    +0.044 A 
ATOM     23 CL   UNL     1      -0.167  -0.168  10.087  0.00  0.00    -0.082 Cl
ATOM     24 CL   UNL     1       2.528  -0.690  11.569  0.00  0.00    -0.082 Cl
ENDBRANCH  15  17
ENDBRANCH  10  13
BRANCH   9  25
ATOM     25  N   UNL     1      -0.454  -0.610   3.464  0.00  0.00    -0.215 NA
BRANCH  25  26
ATOM     26  C   UNL     1      -1.611  -0.111   2.855  0.00  0.00    +0.068 A 
ATOM     27  C   UNL     1      -2.577  -0.986   2.376  0.00  0.00    +0.029 A 
ATOM     28  C   UNL     1      -3.718  -0.491   1.775  0.00  0.00    +0.022 A 
ATOM     29  C   UNL     1      -3.899   0.875   1.650  0.00  0.00    +0.041 A 
ATOM     30  C   UNL     1      -2.938   1.749   2.127  0.00  0.00    +0.022 A 
ATOM     31  C   UNL     1      -1.798   1.260   2.735  0.00  0.00    +0.029 A 
ATOM     32 CL   UNL     1      -5.334   1.493   0.894  0.00  0.00    -0.084 Cl
ENDBRANCH  25  26
ENDBRANCH   9  25
TORSDOF 4
