REMARK  Name = ZINC65806892
REMARK  6 active torsions:
REMARK  status: ('A' for Active; 'I' for Inactive)
REMARK    1  A    between atoms: C_1  and  C_2
REMARK    2  A    between atoms: C_3  and  C_13
REMARK    3  A    between atoms: N_15  and  C_16
REMARK    4  A    between atoms: C_19  and  N_22
REMARK    5  A    between atoms: N_22  and  C_23
REMARK    6  A    between atoms: C_24  and  C_26
REMARK                            x       y       z     vdW  Elec       q    Type
REMARK                         _______ _______ _______ _____ _____    ______ ____
ROOT
ATOM      1  C   UNL     1      -0.238   0.090  -2.496  0.00  0.00    +0.250 C 
ATOM      2  O   UNL     1      -0.364   1.299  -2.485  0.00  0.00    -0.270 OA
ATOM      3  N   UNL     1      -0.266  -0.580  -3.665  0.00  0.00    -0.281 N 
ATOM      4  H   UNL     1      -0.244  -1.549  -3.670  0.00  0.00    +0.155 HD
ENDROOT
BRANCH   1   7
ATOM      5  C   UNL     1      -0.458   1.504   0.011  0.00  0.00    +0.066 C 
ATOM      6  C   UNL     1      -0.159   0.027   0.003  0.00  0.00    +0.051 A 
ATOM      7  C   UNL     1      -0.055  -0.645  -1.228  0.00  0.00    +0.059 A 
ATOM      8  C   UNL     1       0.220  -2.008  -1.241  0.00  0.00    +0.025 A 
ATOM      9  C   UNL     1       0.385  -2.659  -0.007  0.00  0.00    +0.002 A 
ATOM     10  C   UNL     1       0.666  -4.035   0.059  0.00  0.00    +0.030 A 
ATOM     11  C   UNL     1       0.819  -4.633   1.273  0.00  0.00    +0.042 A 
ATOM     12  C   UNL     1       0.701  -3.897   2.452  0.00  0.00    +0.022 A 
ATOM     13  C   UNL     1       0.429  -2.564   2.424  0.00  0.00    +0.030 A 
ATOM     14  C   UNL     1       0.264  -1.910   1.191  0.00  0.00    +0.071 A 
ATOM     15  N   UNL     1       0.003  -0.599   1.140  0.00  0.00    -0.251 NA
ATOM     16 CL   UNL     1       1.166  -6.332   1.354  0.00  0.00    -0.084 Cl
ENDBRANCH   1   7
BRANCH   3  17
ATOM     17  C   UNL     1      -0.326   0.124  -4.874  0.00  0.00    +0.034 A 
ATOM     18  C   UNL     1       0.269   1.375  -4.979  0.00  0.00    +0.025 A 
ATOM     19  C   UNL     1       0.210   2.069  -6.171  0.00  0.00    +0.025 A 
ATOM     20  C   UNL     1      -0.444   1.517  -7.265  0.00  0.00    +0.036 A 
ATOM     21  C   UNL     1      -1.039   0.267  -7.159  0.00  0.00    +0.025 A 
ATOM     22  C   UNL     1      -0.975  -0.430  -5.969  0.00  0.00    +0.025 A 
BRANCH  20  23
ATOM     23  N   UNL     1      -0.504   2.221  -8.474  0.00  0.00    -0.275 N 
ATOM     24  C   UNL     1       0.271   3.453  -8.643  0.00  0.00    +0.138 C 
ATOM     25  C   UNL     1      -1.275   1.766  -9.481  0.00  0.00    +0.216 C 
ATOM     26  O   UNL     1      -1.999   0.809  -9.306  0.00  0.00    -0.276 OA
ATOM     27  C   UNL     1      -1.238   2.447 -10.825  0.00  0.00    +0.109 C 
ENDBRANCH  20  23
ENDBRANCH   3  17
TORSDOF 3
