REMARK  Name = ZINC17188269
REMARK  3 active torsions:
REMARK  status: ('A' for Active; 'I' for Inactive)
REMARK    1  A    between atoms: C_8  and  C_12
REMARK    2  A    between atoms: N_17  and  S_20
REMARK    3  A    between atoms: S_20  and  C_23
REMARK                            x       y       z     vdW  Elec       q    Type
REMARK                         _______ _______ _______ _____ _____    ______ ____
ROOT
ATOM      1  C   UNL     1      -1.162   0.717  -2.122  0.00  0.00    +0.254 C 
ATOM      2  O   UNL     1      -1.039  -0.479  -1.936  0.00  0.00    -0.270 OA
ATOM      3  N   UNL     1      -0.555   1.592  -1.296  0.00  0.00    -0.295 N 
ATOM      4  C   UNL     1       0.183   1.120  -0.117  0.00  0.00    +0.125 C 
ATOM      5  C   UNL     1      -0.376   1.820   1.128  0.00  0.00    +0.128 C 
ATOM      6  N   UNL     1      -0.444   3.265   0.863  0.00  0.00    -0.174 NA
ATOM      7  C   UNL     1      -1.183   3.737  -0.317  0.00  0.00    +0.128 C 
ATOM      8  C   UNL     1      -0.620   3.037  -1.560  0.00  0.00    +0.125 C 
ENDROOT
BRANCH   1  16
ATOM      9  C   UNL     1      -2.534   3.842  -7.229  0.00  0.00    +0.001 A 
ATOM     10  C   UNL     1      -3.848   3.406  -7.331  0.00  0.00    +0.004 A 
ATOM     11  C   UNL     1      -4.373   2.535  -6.400  0.00  0.00    +0.047 A 
ATOM     12  C   UNL     1      -3.585   2.086  -5.346  0.00  0.00    +0.139 A 
ATOM     13  C   UNL     1      -2.254   2.529  -5.244  0.00  0.00    +0.018 A 
ATOM     14  C   UNL     1      -1.740   3.415  -6.203  0.00  0.00    +0.011 A 
ATOM     15  C   UNL     1      -1.438   2.086  -4.173  0.00  0.00    +0.031 A 
ATOM     16  C   UNL     1      -1.974   1.208  -3.248  0.00  0.00    +0.122 A 
ATOM     17  C   UNL     1      -3.369   0.779  -3.405  0.00  0.00    +0.350 A 
ATOM     18  O   UNL     1      -3.863   0.011  -2.601  0.00  0.00    -0.244 OA
ATOM     19  O   UNL     1      -4.102   1.233  -4.436  0.00  0.00    -0.422 OA
ENDBRANCH   1  16
BRANCH   6  20
ATOM     20  S   UNL     1       0.301   4.341   1.877  0.00  0.00    +0.062 S 
ATOM     21  O   UNL     1       1.339   3.627   2.535  0.00  0.00    -0.153 OA
ATOM     22  O   UNL     1       0.549   5.514   1.114  0.00  0.00    -0.153 OA
BRANCH  20  23
ATOM     23  C   UNL     1      -0.869   4.785   3.117  0.00  0.00    +0.125 A 
ATOM     24  C   UNL     1      -0.641   4.441   4.437  0.00  0.00    +0.030 A 
ATOM     25  C   UNL     1      -1.559   4.788   5.410  0.00  0.00    +0.003 A 
ATOM     26  C   UNL     1      -2.706   5.479   5.066  0.00  0.00    +0.021 A 
ATOM     27  C   UNL     1      -2.935   5.824   3.746  0.00  0.00    +0.061 A 
ATOM     28  C   UNL     1      -2.013   5.481   2.771  0.00  0.00    +0.086 A 
ATOM     29 CL   UNL     1      -2.296   5.919   1.115  0.00  0.00    -0.080 Cl
ATOM     30 CL   UNL     1      -4.375   6.691   3.312  0.00  0.00    -0.082 Cl
ENDBRANCH  20  23
ENDBRANCH   6  20
TORSDOF 3
