REMARK  Name = ZINC13015235
REMARK  10 active torsions:
REMARK  status: ('A' for Active; 'I' for Inactive)
REMARK    1  A    between atoms: C_1  and  C_2
REMARK    2  A    between atoms: C_2  and  C_4
REMARK    3  A    between atoms: C_2  and  S_17
REMARK    4  A    between atoms: N_6  and  C_7
REMARK    5  A    between atoms: C_10  and  S_13
REMARK    6  A    between atoms: S_13  and  C_14
REMARK    7  A    between atoms: S_17  and  C_18
REMARK    8  A    between atoms: C_22  and  C_25
REMARK    9  A    between atoms: C_25  and  C_26
REMARK   10  A    between atoms: C_26  and  C_27
REMARK                            x       y       z     vdW  Elec       q    Type
REMARK                         _______ _______ _______ _____ _____    ______ ____
ROOT
ATOM      1  C   UNL     1      -0.030   1.532   0.018  0.00  0.00    +0.029 C 
ATOM      2  C   UNL     1      -0.000   0.002   0.002  0.00  0.00    +0.137 C 
ENDROOT
BRANCH   2   3
ATOM      3  C   UNL     1      -1.411  -0.527   0.013  0.00  0.00    +0.230 C 
ATOM      4  O   UNL     1      -1.935  -0.837   1.062  0.00  0.00    -0.274 OA
ATOM      5  N   UNL     1      -2.090  -0.657  -1.144  0.00  0.00    -0.285 N 
ATOM      6  H   UNL     1      -1.697  -0.348  -1.975  0.00  0.00    +0.155 HD
BRANCH   5   7
ATOM      7  C   UNL     1      -3.365  -1.240  -1.147  0.00  0.00    +0.033 A 
ATOM      8  C   UNL     1      -3.766  -2.029  -2.217  0.00  0.00    +0.024 A 
ATOM      9  C   UNL     1      -5.021  -2.603  -2.220  0.00  0.00    +0.017 A 
ATOM     10  C   UNL     1      -5.884  -2.391  -1.151  0.00  0.00    +0.013 A 
ATOM     11  C   UNL     1      -5.483  -1.601  -0.081  0.00  0.00    +0.017 A 
ATOM     12  C   UNL     1      -4.225  -1.032  -0.076  0.00  0.00    +0.024 A 
BRANCH  10  13
ATOM     13  S   UNL     1      -7.487  -3.122  -1.155  0.00  0.00    -0.056 S 
BRANCH  13  14
ATOM     14  C   UNL     1      -8.223  -2.573   0.409  0.00  0.00    +0.404 C 
ATOM     15  F   UNL     1      -7.441  -3.023   1.477  0.00  0.00    -0.197 F 
ATOM     16  F   UNL     1      -8.282  -1.175   0.431  0.00  0.00    -0.197 F 
ENDBRANCH  13  14
ENDBRANCH  10  13
ENDBRANCH   5   7
ENDBRANCH   2   3
BRANCH   2  17
ATOM     17  S   UNL     1       0.882  -0.601   1.468  0.00  0.00    -0.072 S 
BRANCH  17  18
ATOM     18  C   UNL     1       2.533  -0.027   1.238  0.00  0.00    +0.213 A 
ATOM     19  N   UNL     1       3.456  -0.303   2.150  0.00  0.00    -0.180 NA
ATOM     20  C   UNL     1       4.699   0.132   1.971  0.00  0.00    +0.296 A 
ATOM     21  O   UNL     1       5.663  -0.134   2.886  0.00  0.00    -0.264 OA
ATOM     22  C   UNL     1       4.992   0.869   0.823  0.00  0.00    +0.130 A 
ATOM     23  N   UNL     1       4.032   1.111  -0.050  0.00  0.00    -0.146 NA
ATOM     24  N   UNL     1       2.839   0.671   0.151  0.00  0.00    -0.122 NA
BRANCH  22  25
ATOM     25  C   UNL     1       6.389   1.381   0.581  0.00  0.00    +0.074 C 
BRANCH  25  26
ATOM     26  C   UNL     1       7.188   0.335  -0.198  0.00  0.00    +0.131 C 
BRANCH  26  27
ATOM     27  C   UNL     1       8.585   0.848  -0.440  0.00  0.00    +0.356 C 
ATOM     28  O   UNL     1       8.910   1.947  -0.027  0.00  0.00    -0.246 OA
ATOM     29  O   UNL     1       9.389   0.162  -1.048  0.00  0.00    -0.246 OA
ENDBRANCH  26  27
ENDBRANCH  25  26
ENDBRANCH  22  25
ENDBRANCH  17  18
ENDBRANCH   2  17
TORSDOF 9
