REMARK  Name = ZINC01128912
REMARK  8 active torsions:
REMARK  status: ('A' for Active; 'I' for Inactive)
REMARK    1  A    between atoms: C_1  and  C_2
REMARK    2  A    between atoms: C_5  and  C_25
REMARK    3  A    between atoms: C_6  and  O_8
REMARK    4  A    between atoms: O_8  and  C_9
REMARK    5  A    between atoms: C_9  and  C_10
REMARK    6  A    between atoms: N_12  and  C_13
REMARK    7  A    between atoms: C_13  and  N_15
REMARK    8  A    between atoms: N_15  and  C_16
REMARK                            x       y       z     vdW  Elec       q    Type
REMARK                         _______ _______ _______ _____ _____    ______ ____
ROOT
ATOM      1  C   UNL     1       3.542   5.958   0.480  0.00  0.00    +0.256 C 
ATOM      2  O   UNL     1       4.494   5.242   0.706  0.00  0.00    -0.272 OA
ATOM      3  N   UNL     1       3.728   7.271   0.238  0.00  0.00    -0.265 N 
ATOM      4  H   UNL     1       2.967   7.844   0.058  0.00  0.00    +0.157 HD
ENDROOT
BRANCH   3   5
ATOM      5  C   UNL     1       4.973   7.788   0.246  0.00  0.00    +0.141 C 
ATOM      6  S   UNL     1       6.318   6.776   0.564  0.00  0.00    -0.018 S 
BRANCH   5   7
ATOM      7  N   UNL     1       5.160   9.100   0.003  0.00  0.00    -0.295 N 
ATOM      8  H   UNL     1       4.406   9.661  -0.238  0.00  0.00    +0.154 HD
BRANCH   7   9
ATOM      9  C   UNL     1       6.441   9.655   0.100  0.00  0.00    +0.053 A 
ATOM     10  C   UNL     1       7.520   9.023  -0.504  0.00  0.00    +0.046 A 
ATOM     11  C   UNL     1       8.784   9.573  -0.408  0.00  0.00    +0.061 A 
ATOM     12  C   UNL     1       8.976  10.753   0.291  0.00  0.00    +0.061 A 
ATOM     13  C   UNL     1       7.903  11.384   0.895  0.00  0.00    +0.043 A 
ATOM     14  C   UNL     1       6.636  10.841   0.797  0.00  0.00    +0.064 A 
ATOM     15 CL   UNL     1       5.289  11.638   1.548  0.00  0.00    -0.082 Cl
ATOM     16 CL   UNL     1      10.565  11.441   0.410  0.00  0.00    -0.082 Cl
ATOM     17 CL   UNL     1      10.133   8.784  -1.163  0.00  0.00    -0.082 Cl
ENDBRANCH   7   9
ENDBRANCH   5   7
ENDBRANCH   3   5
BRANCH   1  18
ATOM     18  C   UNL     1       2.150   5.381   0.471  0.00  0.00    +0.325 C 
BRANCH  18  19
ATOM     19  O   UNL     1       2.213   3.981   0.753  0.00  0.00    -0.482 OA
BRANCH  19  25
ATOM     20  C   UNL     1      -2.648   4.009   0.320  0.00  0.00    +0.044 C 
ATOM     21  C   UNL     1      -1.353   3.283   0.577  0.00  0.00    -0.047 A 
ATOM     22  C   UNL     1      -1.362   1.925   0.839  0.00  0.00    +0.004 A 
ATOM     23  C   UNL     1      -0.176   1.257   1.080  0.00  0.00    +0.007 A 
ATOM     24  C   UNL     1       1.023   1.943   1.050  0.00  0.00    -0.009 A 
ATOM     25  C   UNL     1       1.035   3.304   0.783  0.00  0.00    +0.124 A 
ATOM     26  C   UNL     1      -0.157   3.973   0.546  0.00  0.00    +0.049 A 
ATOM     27  C   UNL     1       2.316   1.213   1.307  0.00  0.00    +0.047 C 
ENDBRANCH  19  25
ENDBRANCH  18  19
ENDBRANCH   1  18
TORSDOF 6
