REMARK  Name = ZINC02753378
REMARK  4 active torsions:
REMARK  status: ('A' for Active; 'I' for Inactive)
REMARK    1  A    between atoms: C_4  and  C_7
REMARK    2  A    between atoms: C_10  and  C_35
REMARK    3  A    between atoms: C_15  and  C_17
REMARK    4  A    between atoms: C_25  and  C_27
REMARK                            x       y       z     vdW  Elec       q    Type
REMARK                         _______ _______ _______ _____ _____    ______ ____
ROOT
ATOM      1  C   UNL     1       8.885   7.877   0.742  0.00  0.00    +0.104 C 
ATOM      2  C   UNL     1       7.636   7.868   1.628  0.00  0.00    +0.063 C 
ATOM      3  C   UNL     1       6.727   6.708   1.198  0.00  0.00    +0.215 C 
ATOM      4  N   UNL     1       7.564   5.511   1.054  0.00  0.00    -0.237 N 
ATOM      5  C   UNL     1       8.925   5.534   0.980  0.00  0.00    +0.137 A 
ATOM      6  C   UNL     1       9.353   4.254   0.861  0.00  0.00    +0.112 A 
ATOM      7  C   UNL     1       8.215   3.419   0.850  0.00  0.00    +0.167 A 
ATOM      8  N   UNL     1       7.144   4.183   0.970  0.00  0.00    -0.163 NA
ATOM      9 CL   UNL     1      11.005   3.735   0.737  0.00  0.00    -0.078 Cl
ATOM     10  N   UNL     1       9.704   6.689   1.029  0.00  0.00    -0.321 N 
ATOM     11  H   UNL     1      10.778   6.799   1.241  0.00  0.00    +0.148 HD
ENDROOT
BRANCH   7  12
ATOM     12  C   UNL     1       8.220   1.947   0.732  0.00  0.00    +0.268 C 
ATOM     13  O   UNL     1       9.267   1.356   0.550  0.00  0.00    -0.268 OA
ATOM     14  N   UNL     1       7.065   1.259   0.827  0.00  0.00    -0.293 N 
ATOM     15  C   UNL     1       7.069  -0.210   0.845  0.00  0.00    +0.127 C 
ATOM     16  C   UNL     1       6.156  -0.717  -0.278  0.00  0.00    +0.127 C 
ATOM     17  N   UNL     1       4.870  -0.011  -0.192  0.00  0.00    -0.295 N 
ATOM     18  C   UNL     1       4.865   1.458  -0.215  0.00  0.00    +0.127 C 
ATOM     19  C   UNL     1       5.779   1.965   0.913  0.00  0.00    +0.127 C 
ATOM     20  C   UNL     1       3.715  -0.699  -0.098  0.00  0.00    +0.247 C 
ATOM     21  O   UNL     1       3.736  -1.909   0.019  0.00  0.00    -0.270 OA
BRANCH  20  22
ATOM     22  C   UNL     1       2.422   0.017  -0.137  0.00  0.00    +0.037 A 
ATOM     23  C   UNL     1       1.335  -0.457   0.600  0.00  0.00    +0.013 A 
ATOM     24  C   UNL     1       0.132   0.217   0.559  0.00  0.00    +0.001 A 
ATOM     25  C   UNL     1       0.001   1.360  -0.209  0.00  0.00    +0.000 A 
ATOM     26  C   UNL     1       1.074   1.835  -0.942  0.00  0.00    +0.001 A 
ATOM     27  C   UNL     1       2.283   1.171  -0.910  0.00  0.00    +0.013 A 
ENDBRANCH  20  22
ENDBRANCH   7  12
BRANCH   1  31
ATOM     28  C   UNL     1      11.166  11.401   1.533  0.00  0.00    +0.000 A 
ATOM     29  C   UNL     1      10.336  11.348   0.428  0.00  0.00    +0.000 A 
ATOM     30  C   UNL     1       9.598  10.208   0.172  0.00  0.00    +0.005 A 
ATOM     31  C   UNL     1       9.690   9.120   1.021  0.00  0.00    -0.027 A 
ATOM     32  C   UNL     1      10.515   9.175   2.128  0.00  0.00    +0.005 A 
ATOM     33  C   UNL     1      11.257  10.314   2.382  0.00  0.00    +0.000 A 
ENDBRANCH   1  31
BRANCH   3  34
ATOM     34  C   UNL     1       5.655   6.466   2.262  0.00  0.00    +0.412 C 
ATOM     35  F   UNL     1       6.269   6.182   3.486  0.00  0.00    -0.168 F 
ATOM     36  F   UNL     1       4.861   7.611   2.393  0.00  0.00    -0.168 F 
ATOM     37  F   UNL     1       4.854   5.385   1.880  0.00  0.00    -0.168 F 
ENDBRANCH   3  34
TORSDOF 4
