REMARK  Name = ZINC61872004
REMARK  5 active torsions:
REMARK  status: ('A' for Active; 'I' for Inactive)
REMARK    1  A    between atoms: C_4  and  N_8
REMARK    2  A    between atoms: C_9  and  C_11
REMARK    3  A    between atoms: C_14  and  C_17
REMARK    4  A    between atoms: C_18  and  C_19
REMARK    5  A    between atoms: C_19  and  N_20
REMARK                            x       y       z     vdW  Elec       q    Type
REMARK                         _______ _______ _______ _____ _____    ______ ____
ROOT
ATOM      1  C   UNL     1       4.938  -2.711   0.151  0.00  0.00    +0.126 A 
ATOM      2  C   UNL     1       4.951  -4.103   0.243  0.00  0.00    +0.034 A 
ATOM      3  C   UNL     1       6.163  -4.762   0.330  0.00  0.00    +0.020 A 
ATOM      4  C   UNL     1       7.336  -3.999   0.324  0.00  0.00    +0.043 A 
ATOM      5  C   UNL     1       7.242  -2.606   0.229  0.00  0.00    +0.128 A 
ATOM      6  N   UNL     1       6.071  -2.018   0.142  0.00  0.00    -0.249 NA
ENDROOT
BRANCH   1   8
ATOM      7  N   UNL     1       3.622  -0.653  -0.037  0.00  0.00    -0.278 N 
ATOM      8  C   UNL     1       3.645  -1.998   0.057  0.00  0.00    +0.267 C 
ATOM      9  O   UNL     1       2.603  -2.624   0.064  0.00  0.00    -0.268 OA
ATOM     10  H   UNL     1       4.452  -0.159  -0.124  0.00  0.00    +0.155 HD
BRANCH   7  14
ATOM     11  C   UNL     1      -0.015   1.381   0.043  0.00  0.00    +0.023 A 
ATOM     12  C   UNL     1       1.083   1.956  -0.572  0.00  0.00    +0.041 A 
ATOM     13  C   UNL     1       2.291   1.284  -0.601  0.00  0.00    +0.145 A 
ATOM     14  C   UNL     1       2.401   0.029  -0.010  0.00  0.00    +0.071 A 
ATOM     15  C   UNL     1       1.298  -0.544   0.606  0.00  0.00    +0.046 A 
ATOM     16  C   UNL     1       0.092   0.133   0.631  0.00  0.00    +0.043 A 
ATOM     17 CL   UNL     1      -1.289  -0.584   1.401  0.00  0.00    -0.083 Cl
ATOM     18  F   UNL     1       3.362   1.846  -1.202  0.00  0.00    -0.204 F 
ENDBRANCH   7  14
ENDBRANCH   1   8
BRANCH   4  19
ATOM     19  C   UNL     1       8.616  -4.635   0.413  0.00  0.00    -0.067 C 
ATOM     20  C   UNL     1       9.665  -5.157   0.486  0.00  0.00    -0.117 C 
BRANCH  20  21
ATOM     21  C   UNL     1      10.981  -5.811   0.578  0.00  0.00    +0.005 C 
BRANCH  21  22
ATOM     22  N   UNL     1      12.038  -4.790   0.550  0.00  0.00    +0.385 N 
ATOM     23  H   UNL     1      11.980  -4.270  -0.313  0.00  0.00    -0.089 HD
ATOM     24  H   UNL     1      11.919  -4.162   1.330  0.00  0.00    -0.089 HD
ATOM     25  H   UNL     1      12.940  -5.239   0.613  0.00  0.00    -0.089 HD
ENDBRANCH  21  22
ENDBRANCH  20  21
ENDBRANCH   4  19
TORSDOF 5
