REMARK  Name = ZINC04631763
REMARK  9 active torsions:
REMARK  status: ('A' for Active; 'I' for Inactive)
REMARK    1  A    between atoms: C_1  and  C_2
REMARK    2  A    between atoms: C_2  and  C_3
REMARK    3  A    between atoms: C_2  and  C_4
REMARK    4  A    between atoms: C_2  and  C_5
REMARK    5  A    between atoms: N_20  and  C_23
REMARK    6  A    between atoms: C_24  and  C_30
REMARK    7  A    between atoms: C_24  and  C_32
REMARK    8  A    between atoms: C_25  and  N_29
REMARK    9  A    between atoms: C_26  and  C_27
REMARK                            x       y       z     vdW  Elec       q    Type
REMARK                         _______ _______ _______ _____ _____    ______ ____
ROOT
ATOM      1  C   UNL     1       0.718  -0.497  -1.257  0.00  0.00    -0.001 C 
ATOM      2  C   UNL     1       0.754  -2.032  -1.264  0.00  0.00    +0.031 C 
ATOM      3  C   UNL     1       1.429  -2.467  -2.539  0.00  0.00    -0.021 C 
ATOM      4  C   UNL     1       2.391  -1.742  -3.076  0.00  0.00    -0.028 C 
ATOM      5  C   UNL     1       2.930  -0.485  -2.461  0.00  0.00    +0.043 C 
ATOM      6  C   UNL     1       2.156   0.017  -1.266  0.00  0.00    +0.014 C 
ATOM      7  C   UNL     1       3.064   0.570  -3.554  0.00  0.00    +0.117 C 
ATOM      8  C   UNL     1       3.476   1.890  -2.982  0.00  0.00    -0.008 A 
ATOM      9  C   UNL     1       4.603   2.273  -2.288  0.00  0.00    +0.006 A 
ATOM     10  C   UNL     1       4.678   3.603  -1.890  0.00  0.00    +0.000 A 
ATOM     11  C   UNL     1       3.668   4.497  -2.179  0.00  0.00    +0.002 A 
ATOM     12  C   UNL     1       2.531   4.120  -2.877  0.00  0.00    +0.024 A 
ATOM     13  C   UNL     1       2.443   2.787  -3.281  0.00  0.00    +0.040 A 
ATOM     14  N   UNL     1       1.437   2.145  -3.981  0.00  0.00    -0.273 N 
ATOM     15  C   UNL     1       1.715   0.841  -4.186  0.00  0.00    +0.234 C 
ATOM     16  O   UNL     1       1.017   0.037  -4.767  0.00  0.00    -0.274 OA
ATOM     17  C   UNL     1       0.213   2.804  -4.445  0.00  0.00    +0.138 C 
ATOM     18  C   UNL     1       4.055   0.098  -4.612  0.00  0.00    +0.199 C 
ATOM     19  C   UNL     1       3.754  -1.298  -5.071  0.00  0.00    +0.055 C 
ATOM     20  C   UNL     1       2.994  -2.172  -4.365  0.00  0.00    +0.074 C 
ENDROOT
BRANCH   1  22
ATOM     21  C   UNL     1      -0.019   1.526   0.010  0.00  0.00    +0.011 C 
ATOM     22  C   UNL     1       0.002  -0.004   0.002  0.00  0.00    -0.035 C 
ATOM     23  C   UNL     1       0.742  -0.511   1.242  0.00  0.00    +0.011 C 
ATOM     24  C   UNL     1      -1.433  -0.534   0.013  0.00  0.00    +0.011 C 
ENDBRANCH   1  22
BRANCH  19  25
ATOM     25  N   UNL     1       4.273  -1.712  -6.265  0.00  0.00    -0.358 N 
ATOM     26  H   UNL     1       4.820  -1.108  -6.792  0.00  0.00    +0.142 HD
ATOM     27  H   UNL     1       4.095  -2.609  -6.587  0.00  0.00    +0.142 HD
ENDBRANCH  19  25
BRANCH  20  28
ATOM     28  C   UNL     1       2.774  -3.499  -4.857  0.00  0.00    +0.101 C 
ATOM     29  N   UNL     1       2.600  -4.551  -5.248  0.00  0.00    -0.191 NA
ENDBRANCH  20  28
BRANCH  18  30
ATOM     30  C   UNL     1       3.991   1.007  -5.769  0.00  0.00    +0.092 C 
ATOM     31  N   UNL     1       3.943   1.708  -6.661  0.00  0.00    -0.194 NA
ENDBRANCH  18  30
BRANCH  18  32
ATOM     32  C   UNL     1       5.414   0.135  -4.049  0.00  0.00    +0.092 C 
ATOM     33  N   UNL     1       6.463   0.164  -3.613  0.00  0.00    -0.194 NA
ENDBRANCH  18  32
TORSDOF 5
