REMARK  Name = ZINC40701825
REMARK  6 active torsions:
REMARK  status: ('A' for Active; 'I' for Inactive)
REMARK    1  A    between atoms: C_5  and  C_7
REMARK    2  A    between atoms: N_9  and  N_10
REMARK    3  A    between atoms: C_12  and  N_28
REMARK    4  A    between atoms: C_13  and  N_17
REMARK    5  A    between atoms: N_17  and  C_18
REMARK    6  A    between atoms: C_23  and  C_24
REMARK                            x       y       z     vdW  Elec       q    Type
REMARK                         _______ _______ _______ _____ _____    ______ ____
ROOT
ATOM      1  N   UNL     1       0.124  -4.258   0.033  0.00  0.00    -0.247 N 
ATOM      2  C   UNL     1      -1.067  -4.975   0.021  0.00  0.00    +0.161 A 
ATOM      3  C   UNL     1      -1.054  -6.371   0.012  0.00  0.00    +0.107 A 
ATOM      4  C   UNL     1      -2.279  -7.041  -0.001  0.00  0.00    +0.149 A 
ATOM      5  N   UNL     1      -3.403  -6.329  -0.003  0.00  0.00    -0.219 NA
ATOM      6  C   UNL     1      -3.371  -5.012   0.005  0.00  0.00    +0.225 A 
ATOM      7  N   UNL     1      -2.237  -4.341   0.023  0.00  0.00    -0.217 NA
ATOM      8  H   UNL     1       0.972  -4.728   0.032  0.00  0.00    +0.172 HD
ENDROOT
BRANCH   1  11
ATOM      9  C   UNL     1       1.253  -2.163   0.060  0.00  0.00    +0.261 C 
ATOM     10  O   UNL     1       2.317  -2.751   0.058  0.00  0.00    -0.269 OA
ATOM     11  N   UNL     1       0.098  -2.857   0.048  0.00  0.00    -0.231 N 
ATOM     12  H   UNL     1      -0.750  -2.388   0.050  0.00  0.00    +0.173 HD
BRANCH   9  17
ATOM     13  C   UNL     1      -0.012   1.373   0.091  0.00  0.00    +0.001 A 
ATOM     14  C   UNL     1       1.176   2.084   0.104  0.00  0.00    +0.001 A 
ATOM     15  C   UNL     1       2.388   1.419   0.102  0.00  0.00    +0.016 A 
ATOM     16  C   UNL     1       2.421   0.038   0.088  0.00  0.00    +0.030 A 
ATOM     17  C   UNL     1       1.226  -0.685   0.076  0.00  0.00    +0.052 A 
ATOM     18  C   UNL     1       0.006  -0.006   0.077  0.00  0.00    +0.014 A 
ATOM     19 BR   UNL     1       4.079  -0.870   0.085  0.00  0.00    -0.050 Br
ENDBRANCH   9  17
ENDBRANCH   1  11
BRANCH   3  20
ATOM     20  N   UNL     1       0.157  -7.081   0.015  0.00  0.00    -0.353 N 
ATOM     21  H   UNL     1       1.000  -6.602   0.023  0.00  0.00    +0.143 HD
ATOM     22  H   UNL     1       0.150  -8.051   0.008  0.00  0.00    +0.143 HD
ENDBRANCH   3  20
BRANCH   4  23
ATOM     23  N   UNL     1      -2.323  -8.431  -0.011  0.00  0.00    -0.297 N 
ATOM     24  H   UNL     1      -1.502  -8.941  -0.096  0.00  0.00    +0.154 HD
BRANCH  23  25
ATOM     25  C   UNL     1      -3.549  -9.092   0.103  0.00  0.00    +0.044 A 
ATOM     26  C   UNL     1      -4.624  -8.463   0.719  0.00  0.00    +0.024 A 
ATOM     27  C   UNL     1      -5.834  -9.119   0.829  0.00  0.00    +0.002 A 
ATOM     28  C   UNL     1      -5.976 -10.400   0.328  0.00  0.00    +0.001 A 
ATOM     29  C   UNL     1      -4.908 -11.029  -0.286  0.00  0.00    +0.014 A 
ATOM     30  C   UNL     1      -3.697 -10.376  -0.404  0.00  0.00    +0.076 A 
BRANCH  30  31
ATOM     31  C   UNL     1      -2.535 -11.060  -1.078  0.00  0.00    +0.419 C 
ATOM     32  F   UNL     1      -2.926 -12.334  -1.502  0.00  0.00    -0.166 F 
ATOM     33  F   UNL     1      -2.128 -10.305  -2.184  0.00  0.00    -0.166 F 
ATOM     34  F   UNL     1      -1.473 -11.174  -0.175  0.00  0.00    -0.166 F 
ENDBRANCH  30  31
ENDBRANCH  23  25
ENDBRANCH   4  23
TORSDOF 6
