REMARK  Name = ZINC51535503
REMARK  5 active torsions:
REMARK  status: ('A' for Active; 'I' for Inactive)
REMARK    1  A    between atoms: C_1  and  S_2
REMARK    2  A    between atoms: S_2  and  C_5
REMARK    3  A    between atoms: C_8  and  O_11
REMARK    4  A    between atoms: O_11  and  C_12
REMARK    5  A    between atoms: C_12  and  C_14
REMARK                            x       y       z     vdW  Elec       q    Type
REMARK                         _______ _______ _______ _____ _____    ______ ____
ROOT
ATOM      1  C   UNL     1       4.167  -1.501  -4.932  0.00  0.00    +0.361 C 
ATOM      2  O   UNL     1       4.760  -1.340  -3.883  0.00  0.00    -0.243 OA
ENDROOT
BRANCH   1   3
ATOM      3  C   UNL     1       4.919  -1.750  -6.169  0.00  0.00    +0.126 A 
ATOM      4  C   UNL     1       6.273  -1.827  -6.266  0.00  0.00    +0.042 A 
ATOM      5  C   UNL     1       6.594  -2.078  -7.622  0.00  0.00    +0.001 A 
ATOM      6  C   UNL     1       7.803  -2.252  -8.308  0.00  0.00    +0.011 A 
ATOM      7  C   UNL     1       7.794  -2.485  -9.652  0.00  0.00    +0.016 A 
ATOM      8  C   UNL     1       6.594  -2.552 -10.350  0.00  0.00    +0.020 A 
ATOM      9  C   UNL     1       5.392  -2.385  -9.698  0.00  0.00    +0.041 A 
ATOM     10  C   UNL     1       5.376  -2.146  -8.327  0.00  0.00    +0.048 A 
ATOM     11  N   UNL     1       4.363  -1.948  -7.419  0.00  0.00    -0.349 N 
ATOM     12  H   UNL     1       3.415  -1.945  -7.622  0.00  0.00    +0.166 HD
ATOM     13 BR   UNL     1       6.611  -2.877 -12.213  0.00  0.00    -0.050 Br
ENDBRANCH   1   3
BRANCH   1  14
ATOM     14  O   UNL     1       2.820  -1.452  -4.960  0.00  0.00    -0.421 OA
BRANCH  14  18
ATOM     15  C   UNL     1       0.846  -0.390  -1.497  0.00  0.00    +0.088 A 
ATOM     16  C   UNL     1       1.595   0.550  -2.181  0.00  0.00    +0.030 A 
ATOM     17  C   UNL     1       2.256   0.198  -3.341  0.00  0.00    +0.048 A 
ATOM     18  C   UNL     1       2.170  -1.102  -3.819  0.00  0.00    +0.132 A 
ATOM     19  C   UNL     1       1.419  -2.044  -3.131  0.00  0.00    +0.048 A 
ATOM     20  C   UNL     1       0.763  -1.687  -1.968  0.00  0.00    +0.030 A 
BRANCH  15  22
ATOM     21  C   UNL     1       1.196  -0.249   1.313  0.00  0.00    +0.200 C 
ATOM     22  S   UNL     1       0.004   0.064  -0.017  0.00  0.00    -0.006 S 
ATOM     23  O   UNL     1      -1.083  -0.848   0.075  0.00  0.00    -0.170 OA
ATOM     24  O   UNL     1      -0.231   1.459  -0.147  0.00  0.00    -0.170 OA
ENDBRANCH  15  22
ENDBRANCH  14  18
ENDBRANCH   1  14
TORSDOF 4
