REMARK  Name = ZINC14465960
REMARK  3 active torsions:
REMARK  status: ('A' for Active; 'I' for Inactive)
REMARK    1  A    between atoms: C_5  and  C_7
REMARK    2  A    between atoms: C_17  and  N_24
REMARK    3  A    between atoms: C_20  and  O_23
REMARK                            x       y       z     vdW  Elec       q    Type
REMARK                         _______ _______ _______ _____ _____    ______ ____
ROOT
ATOM      1  C   UNL     1       1.636   2.318   3.504  0.00  0.00    +0.106 C 
ATOM      2  C   UNL     1       3.157   2.153   3.516  0.00  0.00    +0.029 C 
ATOM      3  C   UNL     1       3.764   3.226   4.464  0.00  0.00    +0.033 C 
ATOM      4  C   UNL     1       3.838   4.466   3.596  0.00  0.00    -0.030 C 
ATOM      5  C   UNL     1       3.821   4.141   2.327  0.00  0.00    -0.023 C 
ATOM      6  C   UNL     1       3.725   2.641   2.167  0.00  0.00    +0.051 C 
ATOM      7  C   UNL     1       2.816   2.289   1.026  0.00  0.00    +0.014 A 
ATOM      8  C   UNL     1       3.270   2.527  -0.266  0.00  0.00    +0.132 A 
ATOM      9  C   UNL     1       2.482   2.228  -1.357  0.00  0.00    +0.037 A 
ATOM     10  C   UNL     1       1.222   1.685  -1.174  0.00  0.00    +0.049 A 
ATOM     11  C   UNL     1       0.760   1.444   0.106  0.00  0.00    +0.138 A 
ATOM     12  C   UNL     1       1.558   1.750   1.214  0.00  0.00    +0.076 A 
ATOM     13  N   UNL     1       1.060   1.446   2.480  0.00  0.00    -0.334 N 
ATOM     14  H   UNL     1       0.332   0.671   2.763  0.00  0.00    +0.147 HD
ENDROOT
BRANCH   1  19
ATOM     15  C   UNL     1       0.841   5.480   1.600  0.00  0.00    +0.000 A 
ATOM     16  C   UNL     1       0.651   6.383   2.630  0.00  0.00    +0.001 A 
ATOM     17  C   UNL     1       0.779   5.971   3.943  0.00  0.00    +0.020 A 
ATOM     18  C   UNL     1       1.098   4.654   4.227  0.00  0.00    +0.046 A 
ATOM     19  C   UNL     1       1.288   3.752   3.196  0.00  0.00    -0.009 A 
ATOM     20  C   UNL     1       1.165   4.166   1.883  0.00  0.00    +0.007 A 
ATOM     21 CL   UNL     1       1.260   4.136   5.876  0.00  0.00    -0.083 Cl
ENDBRANCH   1  19
BRANCH   8  22
ATOM     22  N   UNL     1       4.615   3.108  -0.473  0.00  0.00    +0.057 N 
ATOM     23  O   UNL     1       5.020   3.320  -1.603  0.00  0.00    -0.126 OA
ATOM     24  O   UNL     1       5.318   3.375   0.485  0.00  0.00    -0.126 OA
ENDBRANCH   8  22
BRANCH  11  25
ATOM     25  O   UNL     1      -0.477   0.910   0.290  0.00  0.00    -0.505 OA
ATOM     26  H   UNL     1      -0.848   0.717   1.308  0.00  0.00    +0.292 HD
ENDBRANCH  11  25
TORSDOF 3
