REMARK  Name = ZINC01600487
REMARK  5 active torsions:
REMARK  status: ('A' for Active; 'I' for Inactive)
REMARK    1  A    between atoms: C_1  and  C_2
REMARK    2  A    between atoms: C_2  and  O_3
REMARK    3  A    between atoms: O_3  and  N_4
REMARK    4  A    between atoms: C_5  and  C_6
REMARK    5  A    between atoms: C_5  and  C_13
REMARK                            x       y       z     vdW  Elec       q    Type
REMARK                         _______ _______ _______ _____ _____    ______ ____
ROOT
ATOM      1  N   UNL     1       0.286   1.300   0.655  0.00  0.00    -0.084 NA
ATOM      2  C   UNL     1       1.102   2.078   0.003  0.00  0.00    +0.117 C 
ENDROOT
BRANCH   2   3
ATOM      3  C   UNL     1       0.675   3.445  -0.379  0.00  0.00    +0.004 A 
ATOM      4  C   UNL     1       1.609   4.358  -0.868  0.00  0.00    +0.011 A 
ATOM      5  C   UNL     1       1.205   5.628  -1.226  0.00  0.00    +0.020 A 
ATOM      6  C   UNL     1      -0.122   5.999  -1.091  0.00  0.00    +0.041 A 
ATOM      7  C   UNL     1      -1.052   5.098  -0.601  0.00  0.00    +0.020 A 
ATOM      8  C   UNL     1      -0.660   3.824  -0.244  0.00  0.00    +0.011 A 
ATOM      9 CL   UNL     1      -0.622   7.600  -1.539  0.00  0.00    -0.084 Cl
ENDBRANCH   2   3
BRANCH   2  10
ATOM     10  C   UNL     1       2.455   1.597  -0.358  0.00  0.00    +0.004 A 
ATOM     11  C   UNL     1       3.010   1.929  -1.595  0.00  0.00    +0.011 A 
ATOM     12  C   UNL     1       4.273   1.482  -1.923  0.00  0.00    +0.020 A 
ATOM     13  C   UNL     1       4.986   0.697  -1.033  0.00  0.00    +0.041 A 
ATOM     14  C   UNL     1       4.438   0.360   0.193  0.00  0.00    +0.020 A 
ATOM     15  C   UNL     1       3.178   0.806   0.535  0.00  0.00    +0.011 A 
ATOM     16 CL   UNL     1       6.572   0.133  -1.456  0.00  0.00    -0.084 Cl
ENDBRANCH   2  10
BRANCH   1  17
ATOM     17  O   UNL     1       0.646  -0.045   0.912  0.00  0.00    -0.394 OA
BRANCH  17  19
ATOM     18  C   UNL     1       0.150  -2.214   1.856  0.00  0.00    +0.051 C 
ATOM     19  C   UNL     1      -0.342  -0.782   1.637  0.00  0.00    +0.259 C 
ENDBRANCH  17  19
ENDBRANCH   1  17
TORSDOF 4
