REMARK  Name = ZINC41583692
REMARK  7 active torsions:
REMARK  status: ('A' for Active; 'I' for Inactive)
REMARK    1  A    between atoms: C_1  and  C_2
REMARK    2  A    between atoms: C_4  and  O_35
REMARK    3  A    between atoms: C_5  and  C_24
REMARK    4  A    between atoms: C_11  and  C_12
REMARK    5  A    between atoms: C_24  and  N_25
REMARK    6  A    between atoms: C_27  and  C_34
REMARK    7  A    between atoms: C_30  and  C_33
REMARK                            x       y       z     vdW  Elec       q    Type
REMARK                         _______ _______ _______ _____ _____    ______ ____
ROOT
ATOM      1  C   UNL     1       1.270   1.344   0.058  0.00  0.00    +0.045 C 
ATOM      2  C   UNL     1       0.857  -0.106   0.033  0.00  0.00    -0.033 A 
ATOM      3  C   UNL     1       0.760  -0.769  -1.158  0.00  0.00    +0.050 A 
ATOM      4  C   UNL     1       0.379  -2.107  -1.184  0.00  0.00    +0.122 A 
ATOM      5  C   UNL     1       0.095  -2.782  -0.008  0.00  0.00    +0.020 A 
ATOM      6  C   UNL     1       0.189  -2.123   1.211  0.00  0.00    +0.145 A 
ATOM      7  C   UNL     1       0.580  -0.774   1.225  0.00  0.00    +0.071 A 
ATOM      8  C   UNL     1       0.595  -0.361   2.640  0.00  0.00    +0.232 C 
ATOM      9  O   UNL     1       0.875   0.735   3.094  0.00  0.00    -0.283 OA
ATOM     10  C   UNL     1       0.197  -1.566   3.381  0.00  0.00    +0.176 C 
ATOM     11  C   UNL     1       0.068  -1.674   4.729  0.00  0.00    +0.061 C 
ATOM     12  O   UNL     1      -0.029  -2.547   2.475  0.00  0.00    -0.451 OA
ENDROOT
BRANCH  11  13
ATOM     13  C   UNL     1       0.171  -0.478   5.573  0.00  0.00    +0.022 A 
ATOM     14  C   UNL     1      -0.444   0.716   5.180  0.00  0.00    +0.031 A 
ATOM     15  C   UNL     1      -0.342   1.835   5.978  0.00  0.00    +0.042 A 
ATOM     16  C   UNL     1       0.369   1.783   7.167  0.00  0.00    +0.029 A 
ATOM     17  C   UNL     1       0.982   0.610   7.568  0.00  0.00    +0.022 A 
ATOM     18  C   UNL     1       0.882  -0.527   6.785  0.00  0.00    +0.136 A 
ATOM     19  O   UNL     1       1.465  -1.690   7.174  0.00  0.00    -0.465 OA
ATOM     20  C   UNL     1       2.458  -1.603   8.199  0.00  0.00    +0.395 C 
ATOM     21  O   UNL     1       1.950  -0.787   9.261  0.00  0.00    -0.339 OA
ATOM     22  C   UNL     1       1.753   0.577   8.864  0.00  0.00    +0.202 C 
ATOM     23 CL   UNL     1      -1.105   3.317   5.492  0.00  0.00    -0.084 Cl
ENDBRANCH  11  13
BRANCH   4  24
ATOM     24  O   UNL     1       0.285  -2.757  -2.372  0.00  0.00    -0.506 OA
ATOM     25  H   UNL     1       1.104  -3.187  -2.651  0.00  0.00    +0.292 HD
ENDBRANCH   4  24
BRANCH   5  26
ATOM     26  C   UNL     1      -0.316  -4.231  -0.051  0.00  0.00    -0.036 C 
BRANCH  26  27
ATOM     27  N   UNL     1       0.878  -5.082   0.037  0.00  0.00    +0.383 N 
ATOM     28  C   UNL     1       1.715  -4.872  -1.150  0.00  0.00    -0.075 C 
ATOM     29  C   UNL     1       2.999  -5.695  -1.025  0.00  0.00    -0.031 C 
ATOM     30  C   UNL     1       2.639  -7.179  -0.909  0.00  0.00    +0.003 C 
ATOM     31  C   UNL     1       1.705  -7.375   0.289  0.00  0.00    -0.031 C 
ATOM     32  C   UNL     1       0.469  -6.490   0.115  0.00  0.00    -0.075 C 
ATOM     33  C   UNL     1       2.436  -6.987   1.576  0.00  0.00    +0.005 C 
ATOM     34  C   UNL     1       3.870  -5.475  -2.264  0.00  0.00    +0.005 C 
ATOM     35  H   UNL     1       1.403  -4.839   0.864  0.00  0.00    -0.081 HD
ENDBRANCH  26  27
ENDBRANCH   5  26
TORSDOF 4
