REMARK  Name = ZINC36815045
REMARK  12 active torsions:
REMARK  status: ('A' for Active; 'I' for Inactive)
REMARK    1  A    between atoms: C_1  and  C_2
REMARK    2  A    between atoms: C_2  and  C_3
REMARK    3  A    between atoms: C_3  and  N_4
REMARK    4  A    between atoms: N_4  and  C_5
REMARK    5  A    between atoms: C_5  and  C_6
REMARK    6  A    between atoms: C_8  and  O_21
REMARK    7  A    between atoms: C_9  and  O_13
REMARK    8  A    between atoms: O_13  and  C_14
REMARK    9  A    between atoms: C_14  and  C_15
REMARK   10  A    between atoms: C_15  and  C_17
REMARK   11  A    between atoms: C_15  and  C_18
REMARK   12  A    between atoms: O_21  and  C_22
REMARK                            x       y       z     vdW  Elec       q    Type
REMARK                         _______ _______ _______ _____ _____    ______ ____
ROOT
ATOM      1  C   UNL     1      -2.771  -4.018   0.007  0.00  0.00    -0.060 A 
ATOM      2  C   UNL     1      -2.767  -4.701  -1.195  0.00  0.00    +0.051 A 
ATOM      3  C   UNL     1      -2.749  -6.086  -1.205  0.00  0.00    +0.163 A 
ATOM      4  C   UNL     1      -2.733  -6.788  -0.003  0.00  0.00    +0.176 A 
ATOM      5  C   UNL     1      -2.736  -6.097   1.198  0.00  0.00    +0.063 A 
ATOM      6  C   UNL     1      -2.750  -4.714   1.201  0.00  0.00    +0.021 A 
ATOM      7 BR   UNL     1      -2.715  -7.046   2.834  0.00  0.00    -0.046 Br
ENDROOT
BRANCH   3   8
ATOM      8  O   UNL     1      -2.746  -6.759  -2.387  0.00  0.00    -0.491 OA
ATOM      9  C   UNL     1      -2.763  -5.974  -3.581  0.00  0.00    +0.277 C 
ENDBRANCH   3   8
BRANCH   1  10
ATOM     10  C   UNL     1      -2.792  -2.511   0.015  0.00  0.00    -0.047 C 
BRANCH  10  11
ATOM     11  N   UNL     1      -1.413  -2.002   0.005  0.00  0.00    +0.382 N 
ATOM     12  H   UNL     1      -0.941  -2.328  -0.825  0.00  0.00    -0.085 HD
ATOM     13  H   UNL     1      -0.925  -2.337   0.822  0.00  0.00    -0.085 HD
BRANCH  11  14
ATOM     14  C   UNL     1      -1.433  -0.534   0.013  0.00  0.00    -0.082 C 
BRANCH  14  16
ATOM     15  C   UNL     1      -0.019   1.526   0.010  0.00  0.00    +0.002 C 
ATOM     16  C   UNL     1       0.002  -0.004   0.002  0.00  0.00    -0.022 C 
ENDBRANCH  14  16
ENDBRANCH  11  14
ENDBRANCH  10  11
ENDBRANCH   1  10
BRANCH   4  17
ATOM     17  O   UNL     1      -2.715  -8.148  -0.008  0.00  0.00    -0.486 OA
BRANCH  17  18
ATOM     18  C   UNL     1      -1.433  -8.779  -0.017  0.00  0.00    +0.241 C 
BRANCH  18  19
ATOM     19  C   UNL     1      -1.614 -10.299  -0.021  0.00  0.00    +0.109 C 
ATOM     20  C   UNL     1      -2.286 -10.729  -1.326  0.00  0.00    +0.020 C 
BRANCH  19  21
ATOM     21  C   UNL     1      -0.267 -10.965   0.094  0.00  0.00    +0.217 C 
ATOM     22  O   UNL     1       0.739 -10.291   0.171  0.00  0.00    -0.276 OA
ATOM     23  N   UNL     1      -0.179 -12.310   0.110  0.00  0.00    -0.329 N 
ATOM     24  H   UNL     1      -0.983 -12.849   0.048  0.00  0.00    +0.145 HD
ATOM     25  H   UNL     1       0.688 -12.738   0.184  0.00  0.00    +0.145 HD
ENDBRANCH  19  21
ENDBRANCH  18  19
ENDBRANCH  17  18
ENDBRANCH   4  17
TORSDOF 9
