REMARK  Name = ZINC34676538
REMARK  5 active torsions:
REMARK  status: ('A' for Active; 'I' for Inactive)
REMARK    1  A    between atoms: C_1  and  C_2
REMARK    2  A    between atoms: C_5  and  S_8
REMARK    3  A    between atoms: S_8  and  N_11
REMARK    4  A    between atoms: C_15  and  N_18
REMARK    5  A    between atoms: N_21  and  C_24
REMARK                            x       y       z     vdW  Elec       q    Type
REMARK                         _______ _______ _______ _____ _____    ______ ____
ROOT
ATOM      1  N   UNL     1       1.651  -4.999  -0.034  0.00  0.00    -0.178 NA
ATOM      2  C   UNL     1       2.364  -5.199  -1.304  0.00  0.00    +0.109 C 
ATOM      3  C   UNL     1       2.984  -6.599  -1.306  0.00  0.00    +0.016 C 
ATOM      4  C   UNL     1       3.858  -6.767  -0.061  0.00  0.00    -0.013 C 
ATOM      5  C   UNL     1       2.995  -6.624   1.194  0.00  0.00    -0.052 C 
ATOM      6  C   UNL     1       2.376  -5.218   1.225  0.00  0.00    +0.094 C 
ENDROOT
BRANCH   5   7
ATOM      7  N   UNL     1       3.829  -6.818   2.388  0.00  0.00    +0.384 N 
ATOM      8  C   UNL     1       4.434  -8.155   2.349  0.00  0.00    -0.059 C 
ATOM      9  C   UNL     1       5.393  -8.316   3.533  0.00  0.00    +0.086 C 
ATOM     10  N   UNL     1       4.658  -8.018   4.772  0.00  0.00    -0.331 N 
ATOM     11  C   UNL     1       3.886  -6.767   4.836  0.00  0.00    +0.086 C 
ATOM     12  C   UNL     1       2.998  -6.680   3.591  0.00  0.00    -0.059 C 
ATOM     13  H   UNL     1       4.559  -6.121   2.403  0.00  0.00    -0.081 HD
BRANCH  10  14
ATOM     14  C   UNL     1       4.692  -8.899   5.857  0.00  0.00    +0.065 A 
ATOM     15  C   UNL     1       5.668  -8.762   6.834  0.00  0.00    +0.026 A 
ATOM     16  C   UNL     1       5.699  -9.634   7.906  0.00  0.00    +0.002 A 
ATOM     17  C   UNL     1       4.759 -10.642   8.007  0.00  0.00    +0.003 A 
ATOM     18  C   UNL     1       3.784 -10.783   7.036  0.00  0.00    +0.040 A 
ATOM     19  C   UNL     1       3.743  -9.911   5.964  0.00  0.00    +0.144 A 
ATOM     20  F   UNL     1       2.788 -10.044   5.018  0.00  0.00    -0.204 F 
ENDBRANCH  10  14
ENDBRANCH   5   7
BRANCH   1  21
ATOM     21  S   UNL     1       0.063  -4.530  -0.023  0.00  0.00    +0.061 S 
ATOM     22  O   UNL     1      -0.476  -4.950   1.223  0.00  0.00    -0.153 OA
ATOM     23  O   UNL     1      -0.490  -4.937  -1.267  0.00  0.00    -0.153 OA
BRANCH  21  28
ATOM     24  C   UNL     1      -0.018   1.503   0.010  0.00  0.00    +0.044 C 
ATOM     25  C   UNL     1       0.002  -0.004   0.002  0.00  0.00    -0.050 A 
ATOM     26  C   UNL     1       0.006  -0.689  -1.199  0.00  0.00    +0.005 A 
ATOM     27  C   UNL     1       0.025  -2.071  -1.206  0.00  0.00    +0.029 A 
ATOM     28  C   UNL     1       0.040  -2.768  -0.013  0.00  0.00    +0.105 A 
ATOM     29  C   UNL     1       0.037  -2.084   1.188  0.00  0.00    +0.029 A 
ATOM     30  C   UNL     1       0.023  -0.702   1.195  0.00  0.00    +0.005 A 
ENDBRANCH  21  28
ENDBRANCH   1  21
TORSDOF 4
