REMARK  Name = ZINC56526418
REMARK  2 active torsions:
REMARK  status: ('A' for Active; 'I' for Inactive)
REMARK    1  A    between atoms: C_1  and  C_2
REMARK    2  A    between atoms: N_16  and  C_17
REMARK                            x       y       z     vdW  Elec       q    Type
REMARK                         _______ _______ _______ _____ _____    ______ ____
ROOT
ATOM      1  C   UNL     1       0.973   1.706  -0.228  0.00  0.00    +0.066 C 
ATOM      2  C   UNL     1       0.702   0.227  -0.142  0.00  0.00    +0.047 A 
ATOM      3  C   UNL     1       0.502  -0.521  -1.254  0.00  0.00    +0.071 A 
ATOM      4  S   UNL     1       0.241  -2.132  -0.529  0.00  0.00    -0.060 S 
ATOM      5  C   UNL     1       0.411  -1.692   1.086  0.00  0.00    +0.161 A 
ATOM      6  N   UNL     1       0.653  -0.400   1.020  0.00  0.00    -0.230 NA
ATOM      7  N   UNL     1       0.323  -2.496   2.212  0.00  0.00    -0.308 N 
ATOM      8  C   UNL     1       0.053  -3.930   2.027  0.00  0.00    +0.108 C 
ATOM      9  C   UNL     1       0.920  -4.812   2.929  0.00  0.00    +0.038 C 
ATOM     10  C   UNL     1       2.338  -4.281   2.980  0.00  0.00    +0.111 C 
ATOM     11  N   UNL     1       2.406  -3.272   4.037  0.00  0.00    -0.284 N 
ATOM     12  C   UNL     1       2.011  -1.915   3.882  0.00  0.00    +0.128 C 
ATOM     13  C   UNL     1       0.508  -1.881   3.515  0.00  0.00    +0.126 C 
ATOM     14  C   UNL     1       2.873  -3.656   5.242  0.00  0.00    +0.307 C 
ATOM     15  O   UNL     1       3.036  -2.832   6.121  0.00  0.00    -0.252 OA
ATOM     16  N   UNL     1       3.161  -4.952   5.471  0.00  0.00    -0.267 N 
ATOM     17  H   UNL     1       3.092  -5.599   4.751  0.00  0.00    +0.156 HD
ENDROOT
BRANCH  16  18
ATOM     18  C   UNL     1       3.559  -5.366   6.749  0.00  0.00    +0.070 A 
ATOM     19  C   UNL     1       3.310  -4.559   7.851  0.00  0.00    +0.027 A 
ATOM     20  C   UNL     1       3.704  -4.969   9.110  0.00  0.00    +0.022 A 
ATOM     21  C   UNL     1       4.346  -6.184   9.275  0.00  0.00    +0.044 A 
ATOM     22  C   UNL     1       4.596  -6.991   8.180  0.00  0.00    +0.060 A 
ATOM     23  C   UNL     1       4.199  -6.589   6.918  0.00  0.00    +0.146 A 
ATOM     24  F   UNL     1       4.437  -7.380   5.849  0.00  0.00    -0.203 F 
ATOM     25 CL   UNL     1       4.839  -6.694  10.859  0.00  0.00    -0.083 Cl
ENDBRANCH  16  18
TORSDOF 1
