REMARK  Name = ZINC08425740
REMARK  2 active torsions:
REMARK  status: ('A' for Active; 'I' for Inactive)
REMARK    1  A    between atoms: C_16  and  C_19
REMARK    2  A    between atoms: N_28  and  C_31
REMARK                            x       y       z     vdW  Elec       q    Type
REMARK                         _______ _______ _______ _____ _____    ______ ____
ROOT
ATOM      1  C   UNL     1      -0.048   1.388   0.221  0.00  0.00    +0.001 A 
ATOM      2  C   UNL     1       1.131   2.111   0.239  0.00  0.00    +0.001 A 
ATOM      3  C   UNL     1       2.350   1.463   0.195  0.00  0.00    +0.012 A 
ATOM      4  C   UNL     1       2.401   0.069   0.134  0.00  0.00    +0.031 A 
ATOM      5  C   UNL     1       1.200  -0.667   0.115  0.00  0.00    +0.031 A 
ATOM      6  C   UNL     1      -0.022   0.008   0.159  0.00  0.00    +0.012 A 
ATOM      7  C   UNL     1       1.500  -2.111   0.048  0.00  0.00    +0.204 C 
ATOM      8  O   UNL     1       0.692  -3.015   0.015  0.00  0.00    -0.288 OA
ATOM      9  C   UNL     1       2.997  -2.247   0.027  0.00  0.00    +0.206 C 
ATOM     10  C   UNL     1       3.553  -0.852   0.080  0.00  0.00    +0.204 C 
ATOM     11  O   UNL     1       4.724  -0.542   0.079  0.00  0.00    -0.288 OA
ATOM     12  C   UNL     1       3.489  -3.084   1.218  0.00  0.00    +0.138 C 
ATOM     13  C   UNL     1       3.664  -4.509   0.617  0.00  0.00    +0.125 C 
ATOM     14  C   UNL     1       3.228  -4.346  -0.856  0.00  0.00    +0.163 C 
ATOM     15  O   UNL     1       3.438  -2.940  -1.150  0.00  0.00    -0.348 OA
ATOM     16  C   UNL     1       5.156  -4.738   0.690  0.00  0.00    +0.233 C 
ATOM     17  O   UNL     1       5.731  -5.737   0.314  0.00  0.00    -0.274 OA
ATOM     18  N   UNL     1       5.744  -3.666   1.234  0.00  0.00    -0.210 N 
ATOM     19  C   UNL     1       4.897  -2.667   1.580  0.00  0.00    +0.234 C 
ATOM     20  O   UNL     1       5.205  -1.613   2.092  0.00  0.00    -0.274 OA
ENDROOT
BRANCH  18  21
ATOM     21  C   UNL     1       7.129  -3.583   1.438  0.00  0.00    +0.045 A 
ATOM     22  C   UNL     1       7.885  -2.669   0.716  0.00  0.00    +0.025 A 
ATOM     23  C   UNL     1       9.248  -2.589   0.918  0.00  0.00    +0.023 A 
ATOM     24  C   UNL     1       9.863  -3.418   1.840  0.00  0.00    +0.059 A 
ATOM     25  C   UNL     1       9.112  -4.331   2.562  0.00  0.00    +0.061 A 
ATOM     26  C   UNL     1       7.746  -4.411   2.366  0.00  0.00    +0.045 A 
ATOM     27 CL   UNL     1       9.885  -5.370   3.717  0.00  0.00    -0.082 Cl
ATOM     28 CL   UNL     1      11.577  -3.315   2.092  0.00  0.00    -0.082 Cl
ENDBRANCH  18  21
BRANCH  14  29
ATOM     29  C   UNL     1       4.097  -5.189  -1.754  0.00  0.00    -0.018 A 
ATOM     30  C   UNL     1       5.353  -4.742  -2.118  0.00  0.00    +0.009 A 
ATOM     31  C   UNL     1       6.151  -5.513  -2.941  0.00  0.00    +0.039 A 
ATOM     32  C   UNL     1       5.691  -6.735  -3.402  0.00  0.00    +0.123 A 
ATOM     33  C   UNL     1       4.432  -7.182  -3.038  0.00  0.00    +0.039 A 
ATOM     34  C   UNL     1       3.638  -6.411  -2.210  0.00  0.00    +0.009 A 
ATOM     35  F   UNL     1       6.469  -7.490  -4.208  0.00  0.00    -0.205 F 
ENDBRANCH  14  29
TORSDOF 2
