REMARK  Name = ZINC35933809
REMARK  2 active torsions:
REMARK  status: ('A' for Active; 'I' for Inactive)
REMARK    1  A    between atoms: C_6  and  N_7
REMARK    2  A    between atoms: C_14  and  C_16
REMARK                            x       y       z     vdW  Elec       q    Type
REMARK                         _______ _______ _______ _____ _____    ______ ____
ROOT
ATOM      1  C   UNL     1       0.170   0.833   0.344  0.00  0.00    +0.035 A 
ATOM      2  C   UNL     1       1.484   1.107   0.621  0.00  0.00    +0.031 A 
ATOM      3  C   UNL     1       2.261   1.887  -0.267  0.00  0.00    +0.080 A 
ATOM      4  C   UNL     1       1.604   2.350  -1.430  0.00  0.00    +0.043 A 
ATOM      5  C   UNL     1       0.287   2.071  -1.698  0.00  0.00    +0.050 A 
ATOM      6  C   UNL     1      -0.443   1.304  -0.807  0.00  0.00    +0.127 A 
ATOM      7  S   UNL     1       2.889   3.259  -2.254  0.00  0.00    -0.052 S 
ATOM      8  C   UNL     1       4.174   2.977  -1.045  0.00  0.00    +0.165 A 
ATOM      9  N   UNL     1       3.558   2.245  -0.146  0.00  0.00    -0.225 NA
ATOM     10  N   UNL     1       5.488   3.417  -1.054  0.00  0.00    -0.264 N 
ATOM     11  C   UNL     1       6.314   3.096  -0.039  0.00  0.00    +0.223 C 
ATOM     12  O   UNL     1       5.907   2.421   0.883  0.00  0.00    -0.275 OA
ATOM     13  H   UNL     1       5.813   3.957  -1.791  0.00  0.00    +0.157 HD
ENDROOT
BRANCH  11  14
ATOM     14  C   UNL     1       7.742   3.575  -0.049  0.00  0.00    +0.094 C 
ATOM     15  C   UNL     1       7.793   5.131  -0.125  0.00  0.00    +0.019 C 
ATOM     16  C   UNL     1       9.198   5.407   0.511  0.00  0.00    +0.013 C 
ATOM     17  C   UNL     1       8.963   4.605   1.829  0.00  0.00    +0.046 C 
ATOM     18  C   UNL     1       8.439   3.226   1.290  0.00  0.00    +0.116 C 
ATOM     19  C   UNL     1       7.344   2.898   2.293  0.00  0.00    +0.312 C 
ATOM     20  O   UNL     1       6.921   1.792   2.531  0.00  0.00    -0.250 OA
ATOM     21  O   UNL     1       6.922   4.031   2.873  0.00  0.00    -0.460 OA
ATOM     22  C   UNL     1       7.596   5.183   2.327  0.00  0.00    +0.194 C 
ATOM     23  C   UNL     1       6.838   5.595   1.017  0.00  0.00    +0.101 C 
ATOM     24 BR   UNL     1       5.105   4.677   0.874  0.00  0.00    -0.084 Br
ENDBRANCH  11  14
BRANCH   6  25
ATOM     25  N   UNL     1      -1.864   0.992  -1.079  0.00  0.00    +0.056 N 
ATOM     26  O   UNL     1      -2.496   0.323  -0.296  0.00  0.00    -0.126 OA
ATOM     27  O   UNL     1      -2.392   1.407  -2.085  0.00  0.00    -0.126 OA
ENDBRANCH   6  25
TORSDOF 2
