REMARK  Name = ZINC22008009
REMARK  18 active torsions:
REMARK  status: ('A' for Active; 'I' for Inactive)
REMARK    1  A    between atoms: C_1  and  C_2
REMARK    2  A    between atoms: C_2  and  C_3
REMARK    3  A    between atoms: C_3  and  C_4
REMARK    4  A    between atoms: C_4  and  C_5
REMARK    5  A    between atoms: C_5  and  C_7
REMARK    6  A    between atoms: C_5  and  C_9
REMARK    7  A    between atoms: C_7  and  C_8
REMARK    8  A    between atoms: C_9  and  C_10
REMARK    9  A    between atoms: C_10  and  C_12
REMARK   10  A    between atoms: C_21  and  C_23
REMARK   11  A    between atoms: C_23  and  C_25
REMARK   12  A    between atoms: C_25  and  C_26
REMARK   13  A    between atoms: C_26  and  C_28
REMARK   14  A    between atoms: C_26  and  C_30
REMARK   15  A    between atoms: C_28  and  C_29
REMARK   16  A    between atoms: C_30  and  C_31
REMARK   17  A    between atoms: C_31  and  C_32
REMARK   18  A    between atoms: C_32  and  C_33
REMARK                            x       y       z     vdW  Elec       q    Type
REMARK                         _______ _______ _______ _____ _____    ______ ____
ROOT
ATOM      1  C   UNL     1       3.647   4.841  -3.269  0.00  0.00    +0.068 C 
ATOM      2  C   UNL     1       4.844   5.673  -3.664  0.00  0.00    +0.046 C 
ATOM      3  C   UNL     1       6.160   4.973  -3.395  0.00  0.00    +0.148 C 
ATOM      4  C   UNL     1       6.217   3.807  -2.421  0.00  0.00    +0.148 C 
ATOM      5  O   UNL     1       6.371   3.650  -3.841  0.00  0.00    -0.368 OA
ATOM      6  C   UNL     1       4.942   3.235  -1.820  0.00  0.00    +0.046 C 
ATOM      7  C   UNL     1       3.782   4.205  -1.903  0.00  0.00    +0.068 C 
ENDROOT
BRANCH   1   8
ATOM      8  C   UNL     1       2.419   5.714  -3.279  0.00  0.00    +0.137 C 
ATOM      9  O   UNL     1       2.048   6.246  -2.260  0.00  0.00    -0.297 OA
BRANCH   8  10
ATOM     10  C   UNL     1       1.653   5.922  -4.560  0.00  0.00    +0.078 C 
BRANCH  10  11
ATOM     11  C   UNL     1       0.422   6.789  -4.283  0.00  0.00    -0.004 C 
BRANCH  11  12
ATOM     12  C   UNL     1      -0.443   6.862  -5.543  0.00  0.00    +0.000 C 
ATOM     13  C   UNL     1      -1.017   5.477  -5.848  0.00  0.00    +0.004 C 
ENDBRANCH  11  12
BRANCH  11  14
ATOM     14  C   UNL     1       0.870   8.198  -3.889  0.00  0.00    +0.004 C 
BRANCH  14  15
ATOM     15  C   UNL     1      -0.352   9.029  -3.492  0.00  0.00    +0.000 C 
BRANCH  15  17
ATOM     16  C   UNL     1      -1.127  11.269  -2.702  0.00  0.00    +0.004 C 
ATOM     17  C   UNL     1       0.095  10.438  -3.098  0.00  0.00    -0.003 C 
ENDBRANCH  15  17
ENDBRANCH  14  15
ENDBRANCH  11  14
ENDBRANCH  10  11
ENDBRANCH   8  10
ENDBRANCH   1   8
BRANCH   7  18
ATOM     18  C   UNL     1       2.508   3.468  -1.582  0.00  0.00    +0.137 C 
ATOM     19  O   UNL     1       1.861   2.966  -2.469  0.00  0.00    -0.297 OA
BRANCH  18  20
ATOM     20  C   UNL     1       2.041   3.357  -0.153  0.00  0.00    +0.078 C 
BRANCH  20  21
ATOM     21  C   UNL     1       0.732   2.567  -0.104  0.00  0.00    -0.004 C 
BRANCH  21  22
ATOM     22  C   UNL     1       0.988   1.128  -0.559  0.00  0.00    +0.000 C 
ATOM     23  C   UNL     1       2.070   0.500   0.322  0.00  0.00    +0.004 C 
ENDBRANCH  21  22
BRANCH  21  24
ATOM     24  C   UNL     1       0.193   2.560   1.328  0.00  0.00    +0.004 C 
BRANCH  24  25
ATOM     25  C   UNL     1      -1.190   1.907   1.349  0.00  0.00    +0.000 C 
BRANCH  25  26
ATOM     26  C   UNL     1      -1.784   2.016   2.755  0.00  0.00    -0.003 C 
ATOM     27  C   UNL     1      -3.167   1.363   2.777  0.00  0.00    +0.004 C 
ENDBRANCH  25  26
ENDBRANCH  24  25
ENDBRANCH  21  24
ENDBRANCH  20  21
ENDBRANCH  18  20
ENDBRANCH   7  18
TORSDOF 14
