REMARK  Name = ZINC28056423
REMARK  2 active torsions:
REMARK  status: ('A' for Active; 'I' for Inactive)
REMARK    1  A    between atoms: C_9  and  C_17
REMARK    2  A    between atoms: C_24  and  C_27
REMARK                            x       y       z     vdW  Elec       q    Type
REMARK                         _______ _______ _______ _____ _____    ______ ____
ROOT
ATOM      1  C   UNL     1       2.133   8.892  -3.727  0.00  0.00    +0.001 A 
ATOM      2  C   UNL     1       2.682   8.272  -4.835  0.00  0.00    +0.004 A 
ATOM      3  C   UNL     1       3.130   6.965  -4.759  0.00  0.00    +0.046 A 
ATOM      4  C   UNL     1       3.028   6.273  -3.567  0.00  0.00    +0.131 A 
ATOM      5  C   UNL     1       2.474   6.900  -2.443  0.00  0.00    +0.038 A 
ATOM      6  C   UNL     1       2.026   8.213  -2.528  0.00  0.00    +0.013 A 
ATOM      7  C   UNL     1       2.382   6.130  -1.180  0.00  0.00    +0.050 C 
ATOM      8  C   UNL     1       2.511   4.803  -1.234  0.00  0.00    +0.026 C 
ATOM      9  C   UNL     1       2.454   3.935  -0.001  0.00  0.00    +0.174 C 
ATOM     10  N   UNL     1       2.533   4.761   1.195  0.00  0.00    -0.201 N 
ATOM     11  C   UNL     1       2.397   6.110   1.198  0.00  0.00    +0.240 A 
ATOM     12  N   UNL     1       2.513   6.511   2.431  0.00  0.00    -0.092 NA
ATOM     13  N   UNL     1       2.721   5.505   3.210  0.00  0.00    -0.021 NA
ATOM     14  N   UNL     1       2.748   4.405   2.529  0.00  0.00    -0.042 NA
ATOM     15  N   UNL     1       2.179   6.813   0.025  0.00  0.00    -0.282 N 
ATOM     16  C   UNL     1       2.712   4.137  -2.576  0.00  0.00    +0.241 C 
ATOM     17  O   UNL     1       3.450   4.988  -3.453  0.00  0.00    -0.479 OA
ATOM     18  H   UNL     1       1.858   7.865   0.013  0.00  0.00    +0.155 HD
ENDROOT
BRANCH   9  19
ATOM     19  C   UNL     1       1.158   3.165   0.007  0.00  0.00    -0.016 A 
ATOM     20  C   UNL     1       1.175   1.783   0.000  0.00  0.00    +0.006 A 
ATOM     21  C   UNL     1      -0.013   1.076   0.008  0.00  0.00    +0.003 A 
ATOM     22  C   UNL     1      -1.219   1.750   0.017  0.00  0.00    +0.038 A 
ATOM     23  C   UNL     1      -1.237   3.135   0.030  0.00  0.00    +0.124 A 
ATOM     24  C   UNL     1      -0.047   3.842   0.022  0.00  0.00    +0.044 A 
ATOM     25  F   UNL     1      -2.416   3.795   0.044  0.00  0.00    -0.205 F 
ENDBRANCH   9  19
BRANCH  16  26
ATOM     26  C   UNL     1       1.368   3.838  -3.189  0.00  0.00    +0.034 A 
ATOM     27  C   UNL     1       0.645   2.693  -3.143  0.00  0.00    +0.015 A 
ATOM     28  C   UNL     1      -0.579   2.647  -3.786  0.00  0.00    +0.008 A 
ATOM     29  C   UNL     1      -1.018   3.748  -4.442  0.00  0.00    +0.045 A 
ATOM     30  S   UNL     1       0.311   4.904  -4.156  0.00  0.00    -0.098 S 
ENDBRANCH  16  26
TORSDOF 2
