REMARK  Name = ZINC08448474
REMARK  14 active torsions:
REMARK  status: ('A' for Active; 'I' for Inactive)
REMARK    1  A    between atoms: C_1  and  C_2
REMARK    2  A    between atoms: C_2  and  O_3
REMARK    3  A    between atoms: O_3  and  C_4
REMARK    4  A    between atoms: C_4  and  C_6
REMARK    5  A    between atoms: C_7  and  C_24
REMARK    6  A    between atoms: C_9  and  N_23
REMARK    7  A    between atoms: C_10  and  C_21
REMARK    8  A    between atoms: C_11  and  C_13
REMARK    9  A    between atoms: C_16  and  S_19
REMARK   10  A    between atoms: S_19  and  C_20
REMARK   11  A    between atoms: C_24  and  S_25
REMARK   12  A    between atoms: S_25  and  C_26
REMARK   13  A    between atoms: C_27  and  C_38
REMARK   14  A    between atoms: C_30  and  C_32
REMARK                            x       y       z     vdW  Elec       q    Type
REMARK                         _______ _______ _______ _____ _____    ______ ____
ROOT
ATOM      1  C   UNL     1       7.086  -0.252   1.086  0.00  0.00    +0.088 C 
ATOM      2  C   UNL     1       6.609   0.185  -0.086  0.00  0.00    +0.128 C 
ATOM      3  O   UNL     1       7.210  -0.091  -1.252  0.00  0.00    -0.444 OA
ATOM      4  C   UNL     1       8.086  -1.107  -1.320  0.00  0.00    +0.198 C 
ATOM      5  C   UNL     1       8.662  -1.630  -0.210  0.00  0.00    +0.098 C 
ATOM      6  C   UNL     1       8.339  -1.082   1.154  0.00  0.00    +0.105 C 
ENDROOT
BRANCH   6   7
ATOM      7  C   UNL     1       9.482  -0.225   1.633  0.00  0.00    -0.034 A 
ATOM      8  C   UNL     1       9.862   0.889   0.906  0.00  0.00    +0.005 A 
ATOM      9  C   UNL     1      10.905   1.679   1.344  0.00  0.00    +0.015 A 
ATOM     10  C   UNL     1      11.582   1.349   2.512  0.00  0.00    +0.008 A 
ATOM     11  C   UNL     1      11.201   0.226   3.238  0.00  0.00    +0.015 A 
ATOM     12  C   UNL     1      10.153  -0.557   2.796  0.00  0.00    +0.005 A 
BRANCH  10  13
ATOM     13  S   UNL     1      12.919   2.350   3.072  0.00  0.00    -0.129 S 
ATOM     14  C   UNL     1      13.035   3.663   1.826  0.00  0.00    +0.090 C 
ENDBRANCH  10  13
ENDBRANCH   6   7
BRANCH   4  15
ATOM     15  N   UNL     1       8.403  -1.634  -2.547  0.00  0.00    -0.328 N 
ATOM     16  H   UNL     1       9.031  -2.370  -2.612  0.00  0.00    +0.145 HD
ATOM     17  H   UNL     1       7.999  -1.270  -3.350  0.00  0.00    +0.145 HD
ENDBRANCH   4  15
BRANCH   1  18
ATOM     18  C   UNL     1       6.400   0.072   2.282  0.00  0.00    +0.339 C 
ATOM     19  O   UNL     1       5.676  -0.751   2.809  0.00  0.00    -0.245 OA
BRANCH  18  20
ATOM     20  O   UNL     1       6.548   1.293   2.835  0.00  0.00    -0.462 OA
BRANCH  20  22
ATOM     21  C   UNL     1       6.119   2.976   4.516  0.00  0.00    +0.048 C 
ATOM     22  C   UNL     1       5.826   1.551   4.041  0.00  0.00    +0.229 C 
ENDBRANCH  20  22
ENDBRANCH  18  20
ENDBRANCH   1  18
BRANCH   5  23
ATOM     23  C   UNL     1       9.588  -2.715  -0.337  0.00  0.00    +0.101 C 
ATOM     24  N   UNL     1      10.322  -3.575  -0.438  0.00  0.00    -0.191 NA
ENDBRANCH   5  23
BRANCH   2  25
ATOM     25  C   UNL     1       5.348   1.010  -0.096  0.00  0.00    +0.150 C 
BRANCH  25  26
ATOM     26  S   UNL     1       5.767   2.748  -0.380  0.00  0.00    -0.097 S 
BRANCH  26  27
ATOM     27  C   UNL     1       4.156   3.461  -0.344  0.00  0.00    +0.115 A 
ATOM     28  C   UNL     1       4.001   4.848  -0.529  0.00  0.00    +0.084 A 
ATOM     29  C   UNL     1       2.713   5.397  -0.497  0.00  0.00    +0.023 A 
ATOM     30  C   UNL     1       1.641   4.550  -0.289  0.00  0.00    +0.030 A 
ATOM     31  C   UNL     1       1.870   3.186  -0.108  0.00  0.00    +0.072 A 
ATOM     32  N   UNL     1       3.101   2.689  -0.143  0.00  0.00    -0.239 NA
BRANCH  31  33
ATOM     33  C   UNL     1       0.722   2.277   0.120  0.00  0.00    +0.000 A 
ATOM     34  C   UNL     1       0.935   0.911   0.297  0.00  0.00    +0.010 A 
ATOM     35  C   UNL     1      -0.138   0.070   0.509  0.00  0.00    +0.001 A 
ATOM     36  C   UNL     1      -1.423   0.579   0.541  0.00  0.00    +0.000 A 
ATOM     37  C   UNL     1      -1.641   1.934   0.371  0.00  0.00    +0.001 A 
ATOM     38  C   UNL     1      -0.576   2.785   0.159  0.00  0.00    +0.010 A 
ENDBRANCH  31  33
BRANCH  28  39
ATOM     39  C   UNL     1       5.143   5.684  -0.747  0.00  0.00    +0.102 C 
ATOM     40  N   UNL     1       6.048   6.348  -0.919  0.00  0.00    -0.191 NA
ENDBRANCH  28  39
ENDBRANCH  26  27
ENDBRANCH  25  26
ENDBRANCH   2  25
TORSDOF 12
