REMARK  Name = ZINC46127779
REMARK  9 active torsions:
REMARK  status: ('A' for Active; 'I' for Inactive)
REMARK    1  A    between atoms: C_1  and  C_2
REMARK    2  A    between atoms: C_2  and  C_3
REMARK    3  A    between atoms: C_7  and  N_9
REMARK    4  A    between atoms: N_11  and  C_12
REMARK    5  A    between atoms: C_12  and  C_13
REMARK    6  A    between atoms: N_19  and  C_20
REMARK    7  A    between atoms: C_20  and  C_22
REMARK    8  A    between atoms: C_25  and  C_29
REMARK    9  A    between atoms: C_26  and  C_28
REMARK                            x       y       z     vdW  Elec       q    Type
REMARK                         _______ _______ _______ _____ _____    ______ ____
ROOT
ATOM      1  N   UNL     1       4.105  -1.571  -2.283  0.00  0.00    -0.328 N 
ATOM      2  C   UNL     1       4.753  -1.802  -3.462  0.00  0.00    +0.194 C 
ATOM      3  N   UNL     1       4.037  -1.970  -4.612  0.00  0.00    -0.353 N 
ATOM      4  N   UNL     1       6.075  -1.864  -3.490  0.00  0.00    -0.143 NA
ATOM      5  H   UNL     1       4.486  -2.250  -5.425  0.00  0.00    +0.163 HD
ATOM      6  H   UNL     1       3.138  -1.630  -2.241  0.00  0.00    +0.169 HD
ENDROOT
BRANCH   1  11
ATOM      7  C   UNL     1       4.954  -0.243   1.039  0.00  0.00    -0.046 A 
ATOM      8  C   UNL     1       6.283  -0.614   1.137  0.00  0.00    +0.004 A 
ATOM      9  C   UNL     1       6.890  -1.302   0.102  0.00  0.00    +0.002 A 
ATOM     10  C   UNL     1       6.171  -1.621  -1.033  0.00  0.00    +0.026 A 
ATOM     11  C   UNL     1       4.836  -1.250  -1.135  0.00  0.00    +0.042 A 
ATOM     12  C   UNL     1       4.228  -0.564  -0.091  0.00  0.00    +0.029 A 
BRANCH   7  14
ATOM     13  C   UNL     1       3.686  -0.491   3.155  0.00  0.00    +0.009 C 
ATOM     14  C   UNL     1       4.296   0.506   2.169  0.00  0.00    +0.032 C 
ENDBRANCH   7  14
ENDBRANCH   1  11
BRANCH   4  15
ATOM     15  C   UNL     1       6.705  -2.243  -4.610  0.00  0.00    +0.270 C 
ATOM     16  O   UNL     1       6.080  -2.363  -5.649  0.00  0.00    -0.268 OA
BRANCH  15  17
ATOM     17  C   UNL     1       8.160  -2.517  -4.586  0.00  0.00    +0.039 A 
ATOM     18  C   UNL     1       8.877  -2.387  -3.396  0.00  0.00    +0.013 A 
ATOM     19  C   UNL     1      10.232  -2.644  -3.380  0.00  0.00    +0.004 A 
ATOM     20  C   UNL     1      10.880  -3.030  -4.540  0.00  0.00    -0.047 A 
ATOM     21  C   UNL     1      10.175  -3.161  -5.722  0.00  0.00    -0.047 A 
ATOM     22  C   UNL     1       8.818  -2.912  -5.750  0.00  0.00    +0.016 A 
ATOM     23  C   UNL     1      10.889  -3.581  -6.981  0.00  0.00    +0.044 C 
ATOM     24  C   UNL     1      12.361  -3.309  -4.514  0.00  0.00    +0.044 C 
ENDBRANCH  15  17
ENDBRANCH   4  15
BRANCH   3  25
ATOM     25  C   UNL     1       2.593  -1.727  -4.617  0.00  0.00    +0.152 C 
BRANCH  25  26
ATOM     26  C   UNL     1       2.028  -2.091  -5.966  0.00  0.00    -0.010 A 
ATOM     27  C   UNL     1       1.959  -1.145  -6.977  0.00  0.00    +0.008 A 
ATOM     28  C   UNL     1       1.431  -1.525  -8.202  0.00  0.00    +0.020 A 
ATOM     29  C   UNL     1       0.995  -2.825  -8.373  0.00  0.00    +0.111 A 
ATOM     30  N   UNL     1       1.075  -3.699  -7.388  0.00  0.00    -0.263 NA
ATOM     31  C   UNL     1       1.577  -3.374  -6.213  0.00  0.00    +0.116 A 
ENDBRANCH  25  26
ENDBRANCH   3  25
TORSDOF 6
