REMARK  Name = ZINC08790506
REMARK  9 active torsions:
REMARK  status: ('A' for Active; 'I' for Inactive)
REMARK    1  A    between atoms: C_1  and  C_2
REMARK    2  A    between atoms: C_7  and  C_8
REMARK    3  A    between atoms: C_17  and  C_19
REMARK    4  A    between atoms: C_19  and  C_20
REMARK    5  A    between atoms: C_20  and  S_21
REMARK    6  A    between atoms: S_21  and  C_22
REMARK    7  A    between atoms: N_25  and  C_28
REMARK    8  A    between atoms: C_28  and  C_29
REMARK    9  A    between atoms: C_29  and  C_30
REMARK                            x       y       z     vdW  Elec       q    Type
REMARK                         _______ _______ _______ _____ _____    ______ ____
ROOT
ATOM      1  C   UNL     1       5.095   8.165   1.246  0.00  0.00    +0.044 C 
ATOM      2  C   UNL     1       4.090   7.042   1.248  0.00  0.00    -0.046 A 
ATOM      3  C   UNL     1       4.457   5.789   0.790  0.00  0.00    +0.004 A 
ATOM      4  C   UNL     1       3.535   4.758   0.792  0.00  0.00    +0.005 A 
ATOM      5  C   UNL     1       2.254   4.980   1.247  0.00  0.00    -0.027 A 
ATOM      6  C   UNL     1       1.874   6.236   1.710  0.00  0.00    +0.039 A 
ATOM      7  C   UNL     1       2.808   7.268   1.705  0.00  0.00    -0.026 A 
ATOM      8  C   UNL     1       2.419   8.637   2.201  0.00  0.00    +0.046 C 
ATOM      9  N   UNL     1       0.538   6.215   2.120  0.00  0.00    -0.286 N 
ATOM     10  C   UNL     1      -0.023   5.001   1.960  0.00  0.00    +0.211 C 
ATOM     11  O   UNL     1      -1.164   4.690   2.231  0.00  0.00    -0.277 OA
ATOM     12  C   UNL     1       1.038   4.107   1.380  0.00  0.00    +0.050 C 
ATOM     13  C   UNL     1       0.607   3.532   0.025  0.00  0.00    +0.088 C 
ATOM     14  C   UNL     1       1.207   2.098   0.002  0.00  0.00    +0.073 C 
ATOM     15  C   UNL     1       1.950   1.957   1.347  0.00  0.00    -0.057 C 
ATOM     16  C   UNL     1      -0.014   1.208   0.009  0.00  0.00    +0.224 C 
ATOM     17  O   UNL     1       0.002  -0.004   0.002  0.00  0.00    -0.275 OA
ATOM     18  N   UNL     1      -1.117   1.966   0.018  0.00  0.00    -0.241 N 
ATOM     19  C   UNL     1      -0.885   3.284   0.031  0.00  0.00    +0.225 C 
ATOM     20  O   UNL     1      -1.738   4.145   0.042  0.00  0.00    -0.275 OA
ATOM     21  H   UNL     1       0.070   6.986   2.478  0.00  0.00    +0.155 HD
ATOM     22  N   UNL     1       1.307   2.948   2.213  0.00  0.00    +0.394 N 
ATOM     23  H   UNL     1       0.430   2.573   2.593  0.00  0.00    -0.083 HD
ATOM     24  H   UNL     1       1.933   3.204   2.986  0.00  0.00    -0.083 HD
ENDROOT
BRANCH  15  25
ATOM     25  C   UNL     1       1.782   0.540   1.901  0.00  0.00    -0.004 C 
BRANCH  25  26
ATOM     26  C   UNL     1       2.626   0.385   3.168  0.00  0.00    +0.067 C 
BRANCH  26  27
ATOM     27  S   UNL     1       2.427  -1.295   3.824  0.00  0.00    -0.164 S 
ATOM     28  C   UNL     1       3.477  -1.315   5.304  0.00  0.00    +0.084 C 
ENDBRANCH  26  27
ENDBRANCH  25  26
ENDBRANCH  15  25
BRANCH  18  29
ATOM     29  C   UNL     1      -2.468   1.400   0.016  0.00  0.00    +0.121 C 
BRANCH  29  30
ATOM     30  C   UNL     1      -2.935   1.192   1.458  0.00  0.00    +0.054 C 
BRANCH  30  31
ATOM     31  C   UNL     1      -4.325   0.609   1.457  0.00  0.00    -0.046 A 
ATOM     32  C   UNL     1      -5.425   1.446   1.472  0.00  0.00    +0.004 A 
ATOM     33  C   UNL     1      -6.700   0.911   1.466  0.00  0.00    +0.000 A 
ATOM     34  C   UNL     1      -6.874  -0.460   1.455  0.00  0.00    +0.000 A 
ATOM     35  C   UNL     1      -5.774  -1.297   1.446  0.00  0.00    +0.000 A 
ATOM     36  C   UNL     1      -4.499  -0.762   1.447  0.00  0.00    +0.004 A 
ENDBRANCH  30  31
ENDBRANCH  29  30
ENDBRANCH  18  29
TORSDOF 6
