REMARK  Name = ZINC02148810
REMARK  3 active torsions:
REMARK  status: ('A' for Active; 'I' for Inactive)
REMARK    1  A    between atoms: C_1  and  C_2
REMARK    2  A    between atoms: C_7  and  C_8
REMARK    3  A    between atoms: N_15  and  C_18
REMARK                            x       y       z     vdW  Elec       q    Type
REMARK                         _______ _______ _______ _____ _____    ______ ____
ROOT
ATOM      1  C   UNL     1       1.270  -5.184  -1.673  0.00  0.00    +0.264 C 
ATOM      2  O   UNL     1       1.255  -4.961  -2.868  0.00  0.00    -0.269 OA
ATOM      3  N   UNL     1       1.262  -4.160  -0.797  0.00  0.00    -0.150 N 
ATOM      4  C   UNL     1       1.277  -4.278   0.549  0.00  0.00    +0.317 C 
ATOM      5  O   UNL     1       1.299  -5.303   1.196  0.00  0.00    -0.264 OA
ATOM      6  C   UNL     1       1.265  -2.873   1.072  0.00  0.00    +0.314 C 
ATOM      7  O   UNL     1       1.277  -2.522   2.234  0.00  0.00    -0.264 OA
ATOM      8  N   UNL     1       1.237  -2.082  -0.021  0.00  0.00    -0.184 N 
ATOM      9  C   UNL     1       1.239  -2.856  -1.118  0.00  0.00    +0.329 C 
ATOM     10  O   UNL     1       1.221  -2.432  -2.256  0.00  0.00    -0.251 OA
ENDROOT
BRANCH   1  17
ATOM     11  C   UNL     1       3.826  -6.527  -1.211  0.00  0.00    +0.045 C 
ATOM     12  C   UNL     1       2.516  -7.228  -0.958  0.00  0.00    -0.033 A 
ATOM     13  C   UNL     1       2.487  -8.531  -0.497  0.00  0.00    +0.044 A 
ATOM     14  C   UNL     1       1.266  -9.145  -0.275  0.00  0.00    +0.131 A 
ATOM     15  N   UNL     1       0.131  -8.507  -0.496  0.00  0.00    -0.223 NA
ATOM     16  C   UNL     1       0.106  -7.262  -0.929  0.00  0.00    +0.143 A 
ATOM     17  C   UNL     1       1.297  -6.575  -1.183  0.00  0.00    +0.078 A 
ATOM     18 CL   UNL     1      -1.417  -6.473  -1.194  0.00  0.00    -0.061 Cl
ATOM     19 CL   UNL     1       1.226 -10.782   0.303  0.00  0.00    -0.062 Cl
ENDBRANCH   1  17
BRANCH   8  20
ATOM     20  C   UNL     1       1.214  -0.680  -0.013  0.00  0.00    +0.066 A 
ATOM     21  C   UNL     1       0.002  -0.004   0.002  0.00  0.00    +0.045 A 
ATOM     22  C   UNL     1      -0.017   1.378   0.010  0.00  0.00    +0.043 A 
ATOM     23  C   UNL     1       1.172   2.088   0.002  0.00  0.00    +0.021 A 
ATOM     24  C   UNL     1       2.380   1.417  -0.013  0.00  0.00    +0.023 A 
ATOM     25  C   UNL     1       2.405   0.035  -0.021  0.00  0.00    +0.063 A 
ATOM     26 CL   UNL     1       3.924  -0.806  -0.041  0.00  0.00    -0.082 Cl
ATOM     27 CL   UNL     1      -1.532   2.225   0.021  0.00  0.00    -0.083 Cl
ENDBRANCH   8  20
TORSDOF 2
