REMARK  Name = ZINC18191134
REMARK  10 active torsions:
REMARK  status: ('A' for Active; 'I' for Inactive)
REMARK    1  A    between atoms: C_1  and  C_2
REMARK    2  A    between atoms: C_2  and  C_3
REMARK    3  A    between atoms: C_3  and  O_4
REMARK    4  A    between atoms: O_4  and  C_5
REMARK    5  A    between atoms: C_10  and  N_11
REMARK    6  A    between atoms: N_11  and  C_12
REMARK    7  A    between atoms: N_13  and  C_14
REMARK    8  A    between atoms: N_16  and  C_17
REMARK    9  A    between atoms: C_27  and  C_32
REMARK   10  A    between atoms: C_29  and  C_31
REMARK                            x       y       z     vdW  Elec       q    Type
REMARK                         _______ _______ _______ _____ _____    ______ ____
ROOT
ATOM      1  C   UNL     1      -1.311  -6.814   0.888  0.00  0.00    +0.224 C 
ATOM      2  N   UNL     1      -0.349  -7.113   0.030  0.00  0.00    -0.127 NA
ATOM      3  N   UNL     1      -2.074  -7.809   1.436  0.00  0.00    -0.295 N 
ATOM      4  C   UNL     1      -3.160  -7.489   2.239  0.00  0.00    +0.231 A 
ATOM      5  N   UNL     1      -3.512  -6.220   2.374  0.00  0.00    -0.217 NA
ATOM      6  C   UNL     1      -4.543  -5.881   3.131  0.00  0.00    +0.044 A 
ATOM      7  C   UNL     1      -5.255  -6.873   3.786  0.00  0.00    +0.046 A 
ATOM      8  C   UNL     1      -4.859  -8.191   3.622  0.00  0.00    +0.044 A 
ATOM      9  N   UNL     1      -3.823  -8.461   2.846  0.00  0.00    -0.217 NA
ATOM     10  C   UNL     1      -5.604  -9.303   4.316  0.00  0.00    +0.066 C 
ATOM     11  C   UNL     1      -4.936  -4.434   3.280  0.00  0.00    +0.066 C 
ATOM     12  H   UNL     1      -1.855  -8.738   1.263  0.00  0.00    +0.172 HD
ENDROOT
BRANCH   2  13
ATOM     13  C   UNL     1      -0.296  -8.336  -0.517  0.00  0.00    +0.330 C 
ATOM     14  O   UNL     1      -1.206  -9.125  -0.334  0.00  0.00    -0.250 OA
ATOM     15  N   UNL     1       0.764  -8.692  -1.268  0.00  0.00    -0.268 N 
ATOM     16  H   UNL     1       1.533  -8.104  -1.332  0.00  0.00    +0.156 HD
BRANCH  15  17
ATOM     17  C   UNL     1       0.757  -9.910  -1.957  0.00  0.00    +0.035 A 
ATOM     18  C   UNL     1      -0.420 -10.380  -2.525  0.00  0.00    +0.025 A 
ATOM     19  C   UNL     1      -0.425 -11.583  -3.204  0.00  0.00    +0.022 A 
ATOM     20  C   UNL     1       0.741 -12.319  -3.318  0.00  0.00    +0.041 A 
ATOM     21  C   UNL     1       1.915 -11.853  -2.753  0.00  0.00    +0.022 A 
ATOM     22  C   UNL     1       1.927 -10.648  -2.078  0.00  0.00    +0.025 A 
ATOM     23 CL   UNL     1       0.731 -13.831  -4.172  0.00  0.00    -0.084 Cl
ENDBRANCH  15  17
ENDBRANCH   2  13
BRANCH   1  24
ATOM     24  N   UNL     1      -1.542  -5.512   1.228  0.00  0.00    -0.211 NA
BRANCH  24  30
ATOM     25  C   UNL     1      -1.423  -3.168   0.632  0.00  0.00    +0.146 A 
ATOM     26  C   UNL     1      -1.334  -2.181  -0.336  0.00  0.00    +0.048 A 
ATOM     27  C   UNL     1      -1.288  -2.526  -1.674  0.00  0.00    +0.004 A 
ATOM     28  C   UNL     1      -1.330  -3.856  -2.051  0.00  0.00    +0.002 A 
ATOM     29  C   UNL     1      -1.417  -4.847  -1.092  0.00  0.00    +0.031 A 
ATOM     30  C   UNL     1      -1.459  -4.509   0.253  0.00  0.00    +0.109 A 
BRANCH  25  31
ATOM     31  O   UNL     1      -1.468  -2.831   1.948  0.00  0.00    -0.490 OA
BRANCH  31  32
ATOM     32  C   UNL     1      -1.427  -1.437   2.262  0.00  0.00    +0.229 C 
BRANCH  32  34
ATOM     33  C   UNL     1      -1.444   0.237   4.116  0.00  0.00    +0.007 C 
ATOM     34  C   UNL     1      -1.488  -1.254   3.780  0.00  0.00    +0.038 C 
ENDBRANCH  32  34
ENDBRANCH  31  32
ENDBRANCH  25  31
ENDBRANCH  24  30
ENDBRANCH   1  24
TORSDOF 7
