REMARK  Name = ZINC39940426
REMARK  8 active torsions:
REMARK  status: ('A' for Active; 'I' for Inactive)
REMARK    1  A    between atoms: C_1  and  C_2
REMARK    2  A    between atoms: C_3  and  C_32
REMARK    3  A    between atoms: C_4  and  C_23
REMARK    4  A    between atoms: C_10  and  C_11
REMARK    5  A    between atoms: C_28  and  O_29
REMARK    6  A    between atoms: O_29  and  C_30
REMARK    7  A    between atoms: C_32  and  O_34
REMARK    8  A    between atoms: O_34  and  C_35
REMARK                            x       y       z     vdW  Elec       q    Type
REMARK                         _______ _______ _______ _____ _____    ______ ____
ROOT
ATOM      1  C   UNL     1      -0.208   1.552  -0.123  0.00  0.00    +0.066 C 
ATOM      2  C   UNL     1      -0.111   0.049  -0.065  0.00  0.00    +0.053 C 
ATOM      3  C   UNL     1      -1.250  -0.703  -0.044  0.00  0.00    +0.085 C 
ATOM      4  C   UNL     1      -1.109  -2.206   0.014  0.00  0.00    +0.165 C 
ATOM      5  N   UNL     1       0.275  -2.759   0.044  0.00  0.00    -0.275 N 
ATOM      6  C   UNL     1       0.601  -4.057   0.096  0.00  0.00    +0.268 A 
ATOM      7  O   UNL     1      -0.255  -4.919   0.122  0.00  0.00    -0.266 OA
ATOM      8  C   UNL     1       2.037  -4.405   0.118  0.00  0.00    +0.080 A 
ATOM      9  C   UNL     1       2.638  -5.647   0.169  0.00  0.00    +0.026 C 
ATOM     10  S   UNL     1       2.784  -2.784   0.062  0.00  0.00    -0.046 S 
ATOM     11  C   UNL     1       1.284  -1.823   0.016  0.00  0.00    +0.178 A 
ATOM     12  N   UNL     1       1.083  -0.532  -0.040  0.00  0.00    -0.228 NA
ENDROOT
BRANCH   9  13
ATOM     13  C   UNL     1       4.031  -5.749   0.182  0.00  0.00    -0.018 C 
ATOM     14  C   UNL     1       4.791  -6.917   0.226  0.00  0.00    +0.003 A 
ATOM     15  C   UNL     1       4.440  -8.284   0.269  0.00  0.00    +0.010 A 
ATOM     16  C   UNL     1       5.414  -9.228   0.306  0.00  0.00    +0.001 A 
ATOM     17  C   UNL     1       6.770  -8.884   0.304  0.00  0.00    +0.002 A 
ATOM     18  C   UNL     1       7.181  -7.595   0.265  0.00  0.00    +0.026 A 
ATOM     19  C   UNL     1       6.219  -6.548   0.223  0.00  0.00    +0.043 A 
ATOM     20  N   UNL     1       6.356  -5.242   0.181  0.00  0.00    -0.380 N 
ATOM     21  C   UNL     1       5.032  -4.615   0.146  0.00  0.00    +0.149 C 
ATOM     22  H   UNL     1       7.202  -4.767   0.171  0.00  0.00    +0.160 HD
ENDBRANCH   9  13
BRANCH   4  23
ATOM     23  C   UNL     1      -1.829  -2.692   1.246  0.00  0.00    +0.023 A 
ATOM     24  C   UNL     1      -3.040  -3.346   1.126  0.00  0.00    +0.029 A 
ATOM     25  C   UNL     1      -3.701  -3.792   2.256  0.00  0.00    +0.042 A 
ATOM     26  C   UNL     1      -3.150  -3.585   3.509  0.00  0.00    +0.023 A 
ATOM     27  C   UNL     1      -1.940  -2.932   3.633  0.00  0.00    +0.047 A 
ATOM     28  C   UNL     1      -1.272  -2.489   2.500  0.00  0.00    +0.126 A 
ATOM     29 CL   UNL     1      -5.223  -4.612   2.103  0.00  0.00    -0.084 Cl
BRANCH  28  30
ATOM     30  O   UNL     1      -0.078  -1.851   2.619  0.00  0.00    -0.495 OA
ATOM     31  C   UNL     1       0.435  -1.676   3.941  0.00  0.00    +0.277 C 
ENDBRANCH  28  30
ENDBRANCH   4  23
BRANCH   3  32
ATOM     32  C   UNL     1      -2.519  -0.096  -0.076  0.00  0.00    +0.339 C 
ATOM     33  O   UNL     1      -2.615   1.117  -0.017  0.00  0.00    -0.245 OA
BRANCH  32  34
ATOM     34  O   UNL     1      -3.630  -0.857  -0.171  0.00  0.00    -0.465 OA
ATOM     35  C   UNL     1      -4.885  -0.174  -0.198  0.00  0.00    +0.280 C 
ENDBRANCH  32  34
ENDBRANCH   3  32
TORSDOF 5
