REMARK  Name = ZINC39479800
REMARK  5 active torsions:
REMARK  status: ('A' for Active; 'I' for Inactive)
REMARK    1  A    between atoms: C_1  and  C_2
REMARK    2  A    between atoms: C_2  and  O_3
REMARK    3  A    between atoms: O_3  and  C_4
REMARK    4  A    between atoms: C_6  and  O_23
REMARK    5  A    between atoms: N_10  and  C_22
REMARK                            x       y       z     vdW  Elec       q    Type
REMARK                         _______ _______ _______ _____ _____    ______ ____
ROOT
ATOM      1  C   UNL     1       0.981  -1.615  -1.153  0.00  0.00    +0.145 A 
ATOM      2  C   UNL     1       0.595  -2.375  -0.051  0.00  0.00    +0.093 A 
ATOM      3  C   UNL     1       0.699  -3.761  -0.064  0.00  0.00    +0.121 A 
ATOM      4  C   UNL     1       1.062  -4.420  -1.241  0.00  0.00    +0.051 A 
ATOM      5  C   UNL     1       1.366  -3.667  -2.316  0.00  0.00    -0.013 A 
ATOM      6  C   UNL     1       1.498  -2.289  -2.241  0.00  0.00    +0.081 A 
ATOM      7  N   UNL     1       2.543  -1.796  -3.017  0.00  0.00    -0.283 N 
ATOM      8  C   UNL     1       2.721  -0.582  -3.612  0.00  0.00    +0.156 A 
ATOM      9  C   UNL     1       2.696  -0.965  -5.040  0.00  0.00    +0.142 A 
ATOM     10  C   UNL     1       2.829   0.020  -5.959  0.00  0.00    +0.160 A 
ATOM     11  N   UNL     1       2.984   1.276  -5.536  0.00  0.00    -0.222 NA
ATOM     12  C   UNL     1       3.011   1.573  -4.251  0.00  0.00    +0.225 A 
ATOM     13  N   UNL     1       2.881   0.649  -3.304  0.00  0.00    -0.218 NA
ATOM     14 CL   UNL     1       2.798  -0.345  -7.656  0.00  0.00    -0.060 Cl
ATOM     15  N   UNL     1       2.546  -2.314  -5.068  0.00  0.00    -0.238 NA
ATOM     16  C   UNL     1       1.509  -2.781  -4.471  0.00  0.00    +0.089 C 
ATOM     17  C   UNL     1       1.382  -4.139  -3.794  0.00  0.00    +0.100 C 
ATOM     18 BR   UNL     1      -0.013  -1.659  -4.427  0.00  0.00    -0.033 Br
ATOM     19  C   UNL     1       3.640  -2.744  -3.231  0.00  0.00    +0.137 C 
ENDROOT
BRANCH   3  20
ATOM     20  O   UNL     1       0.450  -4.473   1.067  0.00  0.00    -0.507 OA
ATOM     21  H   UNL     1      -0.473  -4.742   1.167  0.00  0.00    +0.292 HD
ENDBRANCH   3  20
BRANCH   1  22
ATOM     22  O   UNL     1       0.849  -0.262  -1.159  0.00  0.00    -0.490 OA
BRANCH  22  24
ATOM     23  C   UNL     1       0.232   1.858  -0.176  0.00  0.00    +0.048 C 
ATOM     24  C   UNL     1       0.303   0.342   0.016  0.00  0.00    +0.226 C 
ENDBRANCH  22  24
ENDBRANCH   1  22
TORSDOF 3
