REMARK  Name = ZINC66922076
REMARK  3 active torsions:
REMARK  status: ('A' for Active; 'I' for Inactive)
REMARK    1  A    between atoms: C_4  and  N_7
REMARK    2  A    between atoms: N_10  and  C_11
REMARK    3  A    between atoms: C_17  and  C_19
REMARK                            x       y       z     vdW  Elec       q    Type
REMARK                         _______ _______ _______ _____ _____    ______ ____
ROOT
ATOM      1  C   UNL     1       4.691  -3.409  -3.603  0.00  0.00    +0.077 C 
ATOM      2  C   UNL     1       3.650  -4.474  -3.954  0.00  0.00    +0.041 C 
ATOM      3  C   UNL     1       4.310  -5.856  -3.931  0.00  0.00    +0.109 C 
ATOM      4  N   UNL     1       5.478  -5.837  -4.823  0.00  0.00    -0.301 N 
ATOM      5  C   UNL     1       6.497  -4.796  -4.630  0.00  0.00    +0.109 C 
ATOM      6  C   UNL     1       5.812  -3.426  -4.646  0.00  0.00    +0.041 C 
ATOM      7  C   UNL     1       5.612  -6.757  -5.799  0.00  0.00    +0.221 C 
ATOM      8  O   UNL     1       4.763  -7.611  -5.947  0.00  0.00    -0.275 OA
ENDROOT
BRANCH   1  12
ATOM      9  N   UNL     1       2.839  -0.440  -2.473  0.00  0.00    -0.297 N 
ATOM     10  C   UNL     1       3.424  -1.655  -2.483  0.00  0.00    +0.300 C 
ATOM     11  O   UNL     1       3.383  -2.358  -1.492  0.00  0.00    -0.253 OA
ATOM     12  N   UNL     1       4.055  -2.089  -3.592  0.00  0.00    -0.296 N 
ATOM     13  H   UNL     1       2.872   0.121  -3.264  0.00  0.00    +0.151 HD
ATOM     14  H   UNL     1       4.088  -1.528  -4.383  0.00  0.00    +0.151 HD
BRANCH   9  18
ATOM     15  C   UNL     1      -0.019   1.526   0.010  0.00  0.00    +0.000 C 
ATOM     16  C   UNL     1       1.417   2.055  -0.000  0.00  0.00    +0.002 C 
ATOM     17  C   UNL     1       2.133   1.562  -1.259  0.00  0.00    +0.022 C 
ATOM     18  C   UNL     1       2.154   0.032  -1.268  0.00  0.00    +0.074 C 
ATOM     19  C   UNL     1       0.718  -0.497  -1.257  0.00  0.00    +0.022 C 
ATOM     20  C   UNL     1       0.002  -0.004   0.002  0.00  0.00    +0.002 C 
ENDBRANCH   9  18
ENDBRANCH   1  12
BRANCH   7  21
ATOM     21  C   UNL     1       6.815  -6.724  -6.705  0.00  0.00    +0.103 C 
ATOM     22  C   UNL     1       6.768  -7.901  -7.710  0.00  0.00    +0.043 C 
ATOM     23  C   UNL     1       8.249  -8.356  -7.746  0.00  0.00    +0.160 C 
ATOM     24  O   UNL     1       8.685  -8.191  -6.379  0.00  0.00    -0.379 OA
ATOM     25  C   UNL     1       8.105  -6.963  -5.898  0.00  0.00    +0.172 C 
ENDBRANCH   7  21
TORSDOF 3
