REMARK  Name = ZINC35427313
REMARK  7 active torsions:
REMARK  status: ('A' for Active; 'I' for Inactive)
REMARK    1  A    between atoms: C_1  and  C_2
REMARK    2  A    between atoms: C_2  and  C_3
REMARK    3  A    between atoms: C_8  and  N_9
REMARK    4  A    between atoms: C_24  and  C_26
REMARK    5  A    between atoms: C_30  and  O_32
REMARK    6  A    between atoms: O_32  and  C_33
REMARK    7  A    between atoms: N_35  and  C_38
REMARK                            x       y       z     vdW  Elec       q    Type
REMARK                         _______ _______ _______ _____ _____    ______ ____
ROOT
ATOM      1  N   UNL     1      -2.271  -0.604  -2.321  0.00  0.00    -0.269 N 
ATOM      2  C   UNL     1      -2.669  -0.697  -3.605  0.00  0.00    +0.308 C 
ATOM      3  O   UNL     1      -3.815  -1.009  -3.865  0.00  0.00    -0.252 OA
ATOM      4  N   UNL     1      -1.797  -0.445  -4.601  0.00  0.00    -0.268 N 
ATOM      5  C   UNL     1      -0.398  -0.070  -4.327  0.00  0.00    +0.148 C 
ATOM      6  C   UNL     1       0.579  -0.712  -5.286  0.00  0.00    +0.004 A 
ATOM      7  C   UNL     1       1.489  -1.715  -4.904  0.00  0.00    -0.034 A 
ATOM      8  C   UNL     1       2.336  -2.200  -5.852  0.00  0.00    -0.021 A 
ATOM      9  S   UNL     1       1.898  -1.296  -7.313  0.00  0.00    -0.077 S 
ATOM     10  C   UNL     1       0.608  -0.327  -6.592  0.00  0.00    +0.090 A 
ATOM     11  N   UNL     1      -0.251   0.615  -7.146  0.00  0.00    -0.312 N 
ATOM     12  C   UNL     1      -0.019   1.664  -7.968  0.00  0.00    +0.092 A 
ATOM     13  C   UNL     1      -1.191   2.313  -8.158  0.00  0.00    +0.020 A 
ATOM     14  C   UNL     1      -2.184   1.617  -7.435  0.00  0.00    +0.025 A 
ATOM     15  C   UNL     1      -1.592   0.570  -6.844  0.00  0.00    +0.049 A 
ATOM     16  C   UNL     1      -2.197  -0.537  -6.026  0.00  0.00    +0.155 C 
ATOM     17  C   UNL     1       3.381  -3.251  -5.668  0.00  0.00    -0.036 C 
ATOM     18  N   UNL     1       3.608  -3.430  -4.222  0.00  0.00    +0.381 N 
ATOM     19  C   UNL     1       2.318  -3.606  -3.542  0.00  0.00    -0.074 C 
ATOM     20  C   UNL     1       1.562  -2.275  -3.485  0.00  0.00    +0.018 C 
ATOM     21  C   UNL     1       4.444  -4.618  -4.001  0.00  0.00    -0.096 C 
ATOM     22  H   UNL     1      -1.377  -0.291  -2.112  0.00  0.00    +0.156 HD
ATOM     23  H   UNL     1       4.076  -2.616  -3.852  0.00  0.00    -0.082 HD
ENDROOT
BRANCH   1  29
ATOM     24  C   UNL     1      -2.647  -1.440  -0.086  0.00  0.00    -0.026 A 
ATOM     25  C   UNL     1      -3.514  -1.784   0.932  0.00  0.00    +0.005 A 
ATOM     26  C   UNL     1      -4.879  -1.655   0.753  0.00  0.00    +0.000 A 
ATOM     27  C   UNL     1      -5.380  -1.182  -0.446  0.00  0.00    +0.002 A 
ATOM     28  C   UNL     1      -4.519  -0.836  -1.468  0.00  0.00    +0.023 A 
ATOM     29  C   UNL     1      -3.147  -0.959  -1.289  0.00  0.00    +0.038 A 
BRANCH  24  31
ATOM     30  C   UNL     1      -0.577  -0.244   0.571  0.00  0.00    +0.009 C 
ATOM     31  C   UNL     1      -1.159  -1.581   0.110  0.00  0.00    +0.033 C 
ENDBRANCH  24  31
ENDBRANCH   1  29
BRANCH  16  32
ATOM     32  C   UNL     1      -1.745  -1.865  -6.578  0.00  0.00    -0.018 A 
ATOM     33  C   UNL     1      -1.591  -2.948  -5.732  0.00  0.00    +0.006 A 
ATOM     34  C   UNL     1      -1.177  -4.167  -6.235  0.00  0.00    +0.004 A 
ATOM     35  C   UNL     1      -0.916  -4.306  -7.585  0.00  0.00    +0.045 A 
ATOM     36  C   UNL     1      -1.070  -3.221  -8.435  0.00  0.00    +0.120 A 
ATOM     37  C   UNL     1      -1.492  -2.000  -7.929  0.00  0.00    +0.051 A 
BRANCH  36  38
ATOM     38  O   UNL     1      -0.815  -3.356  -9.763  0.00  0.00    -0.495 OA
ATOM     39  C   UNL     1      -0.390  -4.644 -10.215  0.00  0.00    +0.277 C 
ENDBRANCH  36  38
ENDBRANCH  16  32
TORSDOF 4
