REMARK  Name = ZINC35746032
REMARK  6 active torsions:
REMARK  status: ('A' for Active; 'I' for Inactive)
REMARK    1  A    between atoms: C_1  and  C_2
REMARK    2  A    between atoms: C_3  and  C_30
REMARK    3  A    between atoms: C_4  and  C_13
REMARK    4  A    between atoms: C_16  and  N_19
REMARK    5  A    between atoms: N_22  and  C_23
REMARK    6  A    between atoms: N_32  and  C_33
REMARK                            x       y       z     vdW  Elec       q    Type
REMARK                         _______ _______ _______ _____ _____    ______ ____
ROOT
ATOM      1  C   UNL     1      -0.694   1.851  -0.624  0.00  0.00    +0.064 C 
ATOM      2  C   UNL     1      -0.645   0.344  -0.607  0.00  0.00    +0.025 C 
ATOM      3  C   UNL     1      -1.659  -0.354  -0.026  0.00  0.00    +0.058 C 
ATOM      4  C   UNL     1      -1.577  -1.859   0.046  0.00  0.00    +0.142 C 
ATOM      5  N   UNL     1      -0.723  -2.337  -1.058  0.00  0.00    -0.300 N 
ATOM      6  C   UNL     1      -1.120  -3.542  -1.763  0.00  0.00    +0.109 C 
ATOM      7  C   UNL     1      -0.003  -4.410  -2.288  0.00  0.00    +0.030 C 
ATOM      8  C   UNL     1       0.944  -3.630  -3.204  0.00  0.00    +0.078 C 
ATOM      9  S   UNL     1       1.750  -2.351  -2.187  0.00  0.00    -0.092 S 
ATOM     10  C   UNL     1       0.367  -1.586  -1.397  0.00  0.00    +0.135 C 
ATOM     11  N   UNL     1       0.387  -0.285  -1.167  0.00  0.00    -0.341 N 
ATOM     12  H   UNL     1       1.176   0.224  -1.409  0.00  0.00    +0.167 HD
ENDROOT
BRANCH   4  13
ATOM     13  C   UNL     1      -0.980  -2.271   1.367  0.00  0.00    -0.022 A 
ATOM     14  C   UNL     1       0.389  -2.219   1.552  0.00  0.00    +0.007 A 
ATOM     15  C   UNL     1       0.939  -2.595   2.762  0.00  0.00    +0.024 A 
ATOM     16  C   UNL     1       0.115  -3.027   3.793  0.00  0.00    +0.035 A 
ATOM     17  C   UNL     1      -1.260  -3.079   3.604  0.00  0.00    +0.024 A 
ATOM     18  C   UNL     1      -1.804  -2.696   2.393  0.00  0.00    +0.007 A 
BRANCH  16  19
ATOM     19  N   UNL     1       0.669  -3.410   5.019  0.00  0.00    -0.269 N 
ATOM     20  C   UNL     1       1.784  -2.804   5.474  0.00  0.00    +0.308 C 
ATOM     21  O   UNL     1       2.252  -1.859   4.868  0.00  0.00    -0.252 OA
ATOM     22  N   UNL     1       2.379  -3.244   6.600  0.00  0.00    -0.267 N 
ATOM     23  H   UNL     1       0.251  -4.112   5.543  0.00  0.00    +0.156 HD
ATOM     24  H   UNL     1       2.052  -4.044   7.040  0.00  0.00    +0.156 HD
BRANCH  22  25
ATOM     25  C   UNL     1       3.470  -2.546   7.135  0.00  0.00    +0.070 A 
ATOM     26  C   UNL     1       3.666  -1.210   6.813  0.00  0.00    +0.026 A 
ATOM     27  C   UNL     1       4.742  -0.525   7.342  0.00  0.00    +0.002 A 
ATOM     28  C   UNL     1       5.625  -1.167   8.191  0.00  0.00    +0.003 A 
ATOM     29  C   UNL     1       5.434  -2.498   8.514  0.00  0.00    +0.040 A 
ATOM     30  C   UNL     1       4.355  -3.189   7.993  0.00  0.00    +0.145 A 
ATOM     31  F   UNL     1       4.164  -4.487   8.313  0.00  0.00    -0.204 F 
ENDBRANCH  22  25
ENDBRANCH  16  19
ENDBRANCH   4  13
BRANCH   3  32
ATOM     32  C   UNL     1      -2.773   0.322   0.505  0.00  0.00    +0.248 C 
ATOM     33  O   UNL     1      -2.833   1.537   0.445  0.00  0.00    -0.270 OA
ATOM     34  N   UNL     1      -3.773  -0.375   1.079  0.00  0.00    -0.282 N 
ATOM     35  H   UNL     1      -3.694  -1.336   1.189  0.00  0.00    +0.155 HD
BRANCH  34  36
ATOM     36  C   UNL     1      -4.925   0.286   1.517  0.00  0.00    +0.034 A 
ATOM     37  C   UNL     1      -6.166  -0.326   1.399  0.00  0.00    +0.023 A 
ATOM     38  C   UNL     1      -7.301   0.330   1.832  0.00  0.00    +0.002 A 
ATOM     39  C   UNL     1      -7.204   1.595   2.382  0.00  0.00    +0.000 A 
ATOM     40  C   UNL     1      -5.970   2.208   2.499  0.00  0.00    +0.002 A 
ATOM     41  C   UNL     1      -4.829   1.554   2.075  0.00  0.00    +0.023 A 
ENDBRANCH  34  36
ENDBRANCH   3  32
TORSDOF 5
