REMARK  Name = ZINC35666139
REMARK  10 active torsions:
REMARK  status: ('A' for Active; 'I' for Inactive)
REMARK    1  A    between atoms: C_1  and  N_2
REMARK    2  A    between atoms: C_8  and  C_10
REMARK    3  A    between atoms: C_13  and  C_16
REMARK    4  A    between atoms: C_16  and  S_17
REMARK    5  A    between atoms: S_17  and  C_18
REMARK    6  A    between atoms: C_20  and  C_33
REMARK    7  A    between atoms: C_22  and  N_24
REMARK    8  A    between atoms: N_24  and  C_25
REMARK    9  A    between atoms: N_24  and  C_26
REMARK   10  A    between atoms: C_26  and  C_27
REMARK                            x       y       z     vdW  Elec       q    Type
REMARK                         _______ _______ _______ _____ _____    ______ ____
ROOT
ATOM      1  C   UNL     1       4.530  -7.451   6.795  0.00  0.00    +0.191 A 
ATOM      2  N   UNL     1       5.560  -6.724   7.200  0.00  0.00    -0.222 NA
ATOM      3  C   UNL     1       6.236  -7.052   8.301  0.00  0.00    +0.077 A 
ATOM      4  C   UNL     1       5.845  -8.176   9.025  0.00  0.00    +0.072 A 
ATOM      5  C   UNL     1       4.756  -8.916   8.566  0.00  0.00    +0.126 A 
ATOM      6  N   UNL     1       4.127  -8.523   7.462  0.00  0.00    -0.207 NA
ENDROOT
BRANCH   3   7
ATOM      7  C   UNL     1       7.389  -6.233   8.748  0.00  0.00    +0.001 A 
ATOM      8  C   UNL     1       8.094  -6.586   9.897  0.00  0.00    +0.010 A 
ATOM      9  C   UNL     1       9.166  -5.820  10.307  0.00  0.00    +0.001 A 
ATOM     10  C   UNL     1       9.540  -4.703   9.582  0.00  0.00    +0.000 A 
ATOM     11  C   UNL     1       8.843  -4.348   8.441  0.00  0.00    +0.001 A 
ATOM     12  C   UNL     1       7.774  -5.110   8.018  0.00  0.00    +0.010 A 
ENDBRANCH   3   7
BRANCH   5  13
ATOM     13  N   UNL     1       4.332 -10.041   9.254  0.00  0.00    -0.314 N 
ATOM     14  C   UNL     1       4.957 -10.400  10.529  0.00  0.00    +0.131 C 
BRANCH  13  15
ATOM     15  C   UNL     1       3.258 -10.873   8.705  0.00  0.00    +0.141 C 
BRANCH  15  16
ATOM     16  C   UNL     1       3.851 -11.943   7.825  0.00  0.00    -0.030 A 
ATOM     17  C   UNL     1       4.045 -11.702   6.478  0.00  0.00    +0.005 A 
ATOM     18  C   UNL     1       4.589 -12.684   5.671  0.00  0.00    +0.000 A 
ATOM     19  C   UNL     1       4.939 -13.907   6.212  0.00  0.00    +0.000 A 
ATOM     20  C   UNL     1       4.746 -14.148   7.559  0.00  0.00    +0.000 A 
ATOM     21  C   UNL     1       4.206 -13.165   8.367  0.00  0.00    +0.005 A 
ENDBRANCH  15  16
ENDBRANCH  13  15
ENDBRANCH   5  13
BRANCH   1  22
ATOM     22  S   UNL     1       3.667  -6.976   5.334  0.00  0.00    -0.081 S 
BRANCH  22  23
ATOM     23  C   UNL     1       4.545  -5.492   4.769  0.00  0.00    +0.112 C 
BRANCH  23  27
ATOM     24  C   UNL     1       2.714  -4.029   1.192  0.00  0.00    +0.037 A 
ATOM     25  C   UNL     1       2.275  -3.580   2.438  0.00  0.00    +0.013 A 
ATOM     26  C   UNL     1       2.869  -4.057   3.588  0.00  0.00    +0.005 A 
ATOM     27  C   UNL     1       3.899  -4.977   3.508  0.00  0.00    -0.037 A 
ATOM     28  C   UNL     1       4.340  -5.425   2.276  0.00  0.00    +0.005 A 
ATOM     29  C   UNL     1       3.750  -4.962   1.118  0.00  0.00    +0.013 A 
BRANCH  24  37
ATOM     30  C   UNL     1       3.228   1.583  -1.423  0.00  0.00    -0.096 C 
ATOM     31  N   UNL     1       2.438   0.456  -0.910  0.00  0.00    +0.380 N 
ATOM     32  C   UNL     1       2.271  -0.546  -1.971  0.00  0.00    -0.060 C 
ATOM     33  C   UNL     1       1.352  -1.667  -1.474  0.00  0.00    +0.089 C 
ATOM     34  N   UNL     1       1.903  -2.199  -0.217  0.00  0.00    -0.301 N 
ATOM     35  C   UNL     1       2.254  -1.243   0.845  0.00  0.00    +0.089 C 
ATOM     36  C   UNL     1       3.130  -0.142   0.238  0.00  0.00    -0.060 C 
ATOM     37  C   UNL     1       2.081  -3.523  -0.045  0.00  0.00    +0.246 C 
ATOM     38  O   UNL     1       1.721  -4.302  -0.906  0.00  0.00    -0.270 OA
ATOM     39  H   UNL     1       1.530   0.788  -0.619  0.00  0.00    -0.082 HD
ENDBRANCH  24  37
ENDBRANCH  23  27
ENDBRANCH  22  23
ENDBRANCH   1  22
TORSDOF 8
