REMARK  Name = ZINC24504548
REMARK  7 active torsions:
REMARK  status: ('A' for Active; 'I' for Inactive)
REMARK    1  A    between atoms: C_1  and  C_2
REMARK    2  A    between atoms: C_2  and  C_29
REMARK    3  A    between atoms: N_5  and  C_9
REMARK    4  A    between atoms: C_9  and  C_10
REMARK    5  A    between atoms: N_12  and  C_13
REMARK    6  A    between atoms: C_18  and  C_19
REMARK    7  A    between atoms: N_21  and  C_22
REMARK                            x       y       z     vdW  Elec       q    Type
REMARK                         _______ _______ _______ _____ _____    ______ ____
ROOT
ATOM      1  C   UNL     1      -6.333   0.845   2.312  0.00  0.00    +0.235 C 
ATOM      2  O   UNL     1      -6.412   0.255   1.256  0.00  0.00    -0.274 OA
ATOM      3  N   UNL     1      -7.443   1.072   3.042  0.00  0.00    -0.284 N 
ATOM      4  H   UNL     1      -7.362   1.541   4.034  0.00  0.00    +0.155 HD
ENDROOT
BRANCH   3   5
ATOM      5  C   UNL     1      -8.692   0.712   2.542  0.00  0.00    +0.046 A 
ATOM      6  C   UNL     1      -8.829  -0.430   1.764  0.00  0.00    +0.024 A 
ATOM      7  C   UNL     1     -10.069  -0.788   1.274  0.00  0.00    +0.002 A 
ATOM      8  C   UNL     1     -11.181  -0.007   1.542  0.00  0.00    +0.001 A 
ATOM      9  C   UNL     1     -11.063   1.133   2.308  0.00  0.00    +0.015 A 
ATOM     10  C   UNL     1      -9.816   1.505   2.816  0.00  0.00    +0.058 A 
BRANCH  10  11
ATOM     11  C   UNL     1      -9.683   2.724   3.636  0.00  0.00    +0.250 C 
ATOM     12  O   UNL     1      -8.583   3.097   3.995  0.00  0.00    -0.270 OA
ATOM     13  N   UNL     1     -10.780   3.423   3.987  0.00  0.00    -0.281 N 
ATOM     14  H   UNL     1     -11.767   3.128   3.602  0.00  0.00    +0.155 HD
BRANCH  13  15
ATOM     15  C   UNL     1     -10.664   4.524   4.843  0.00  0.00    +0.034 A 
ATOM     16  C   UNL     1     -11.669   4.802   5.759  0.00  0.00    +0.026 A 
ATOM     17  C   UNL     1     -11.550   5.886   6.607  0.00  0.00    +0.040 A 
ATOM     18  C   UNL     1     -10.434   6.702   6.535  0.00  0.00    +0.124 A 
ATOM     19  C   UNL     1      -9.432   6.430   5.619  0.00  0.00    +0.040 A 
ATOM     20  C   UNL     1      -9.545   5.344   4.773  0.00  0.00    +0.026 A 
ATOM     21  F   UNL     1     -10.321   7.765   7.361  0.00  0.00    -0.205 F 
ENDBRANCH  13  15
ENDBRANCH  10  11
ENDBRANCH   3   5
BRANCH   1  22
ATOM     22  C   UNL     1      -4.993   1.326   2.808  0.00  0.00    +0.214 C 
BRANCH  22  27
ATOM     23  C   UNL     1      -2.903   0.660  -1.348  0.00  0.00    +0.047 C 
ATOM     24  C   UNL     1      -2.485   0.961   0.093  0.00  0.00    +0.135 C 
ATOM     25  C   UNL     1      -3.570   1.738   0.812  0.00  0.00    +0.251 C 
ATOM     26  O   UNL     1      -4.001   2.833   0.520  0.00  0.00    -0.272 OA
ATOM     27  N   UNL     1      -3.955   0.959   1.841  0.00  0.00    -0.215 N 
ATOM     28  C   UNL     1      -3.272  -0.191   1.873  0.00  0.00    +0.310 C 
ATOM     29  O   UNL     1      -3.442  -1.055   2.710  0.00  0.00    -0.252 OA
ATOM     30  N   UNL     1      -2.374  -0.283   0.875  0.00  0.00    -0.281 N 
ATOM     31  H   UNL     1      -1.649  -1.056   0.580  0.00  0.00    +0.152 HD
BRANCH  24  32
ATOM     32  C   UNL     1      -1.183   1.720   0.118  0.00  0.00    -0.013 A 
ATOM     33  C   UNL     1       0.017   1.034   0.112  0.00  0.00    +0.009 A 
ATOM     34  C   UNL     1       1.212   1.728   0.130  0.00  0.00    +0.041 A 
ATOM     35  C   UNL     1       1.208   3.111   0.159  0.00  0.00    +0.158 A 
ATOM     36  C   UNL     1       0.005   3.800   0.171  0.00  0.00    +0.159 A 
ATOM     37  C   UNL     1      -1.190   3.102   0.153  0.00  0.00    +0.047 A 
ATOM     38  F   UNL     1      -0.002   5.151   0.199  0.00  0.00    -0.202 F 
ATOM     39  F   UNL     1       2.376   3.791   0.177  0.00  0.00    -0.202 F 
ENDBRANCH  24  32
ENDBRANCH  22  27
ENDBRANCH   1  22
TORSDOF 6
