REMARK  Name = ZINC05528894
REMARK  7 active torsions:
REMARK  status: ('A' for Active; 'I' for Inactive)
REMARK    1  A    between atoms: C_1  and  C_2
REMARK    2  A    between atoms: C_2  and  C_4
REMARK    3  A    between atoms: C_2  and  C_6
REMARK    4  A    between atoms: C_4  and  O_5
REMARK    5  A    between atoms: C_12  and  C_31
REMARK    6  A    between atoms: C_20  and  O_30
REMARK    7  A    between atoms: C_23  and  C_29
REMARK                            x       y       z     vdW  Elec       q    Type
REMARK                         _______ _______ _______ _____ _____    ______ ____
ROOT
ATOM      1  C   UNL     1      -2.396   0.626  -3.503  0.00  0.00    +0.000 C 
ATOM      2  C   UNL     1      -2.388  -0.638  -2.618  0.00  0.00    +0.005 C 
ATOM      3  C   UNL     1      -0.919  -0.885  -2.215  0.00  0.00    +0.004 C 
ATOM      4  C   UNL     1      -0.246   0.512  -2.363  0.00  0.00    -0.001 C 
ATOM      5  C   UNL     1      -0.929   1.052  -3.636  0.00  0.00    -0.026 C 
ATOM      6  C   UNL     1      -0.757   2.542  -3.807  0.00  0.00    +0.007 C 
ATOM      7  C   UNL     1      -1.199   3.319  -2.563  0.00  0.00    +0.005 C 
ATOM      8  C   UNL     1      -0.402   2.816  -1.366  0.00  0.00    -0.001 C 
ATOM      9  C   UNL     1      -0.681   1.335  -1.149  0.00  0.00    -0.001 C 
ATOM     10  C   UNL     1       0.041   0.847   0.104  0.00  0.00    +0.036 C 
ATOM     11  C   UNL     1      -0.673   1.416   1.330  0.00  0.00    +0.122 C 
ATOM     12  C   UNL     1      -1.281   2.776   1.008  0.00  0.00    +0.005 C 
ATOM     13  C   UNL     1      -0.641   3.628  -0.102  0.00  0.00    -0.021 C 
ATOM     14  C   UNL     1      -1.694   4.732  -0.374  0.00  0.00    +0.008 C 
ATOM     15  C   UNL     1      -3.049   4.008  -0.187  0.00  0.00    +0.005 C 
ATOM     16  C   UNL     1      -2.792   3.018   0.971  0.00  0.00    -0.001 C 
ATOM     17  C   UNL     1      -1.973   3.523   2.162  0.00  0.00    +0.014 C 
ATOM     18  C   UNL     1       0.677   4.250   0.389  0.00  0.00    +0.012 C 
ATOM     19  C   UNL     1      -0.325   0.352  -4.857  0.00  0.00    +0.012 C 
ENDROOT
BRANCH   1  21
ATOM     20  C   UNL     1      -3.053   1.578  -5.718  0.00  0.00    +0.010 C 
ATOM     21  C   UNL     1      -2.981   0.301  -4.878  0.00  0.00    +0.015 C 
BRANCH  21  22
ATOM     22  C   UNL     1      -4.387  -0.279  -4.710  0.00  0.00    +0.159 C 
BRANCH  22  23
ATOM     23  O   UNL     1      -4.888  -0.691  -5.984  0.00  0.00    -0.395 OA
ATOM     24  H   UNL     1      -5.777  -1.069  -5.953  0.00  0.00    +0.209 HD
ENDBRANCH  22  23
ENDBRANCH  21  22
ENDBRANCH   1  21
BRANCH  11  25
ATOM     25  O   UNL     1      -1.711   0.518   1.734  0.00  0.00    -0.391 OA
ATOM     26  H   UNL     1      -1.397  -0.366   1.970  0.00  0.00    +0.210 HD
ENDBRANCH  11  25
TORSDOF 4
