REMARK  Name = ZINC34749335
REMARK  7 active torsions:
REMARK  status: ('A' for Active; 'I' for Inactive)
REMARK    1  A    between atoms: C_1  and  C_2
REMARK    2  A    between atoms: C_2  and  C_3
REMARK    3  A    between atoms: C_4  and  C_33
REMARK    4  A    between atoms: N_10  and  C_25
REMARK    5  A    between atoms: N_16  and  C_19
REMARK    6  A    between atoms: C_19  and  C_20
REMARK    7  A    between atoms: C_25  and  C_26
REMARK                            x       y       z     vdW  Elec       q    Type
REMARK                         _______ _______ _______ _____ _____    ______ ____
ROOT
ATOM      1  C   UNL     1       0.771  -0.171  -1.223  0.00  0.00    -0.023 A 
ATOM      2  C   UNL     1       0.146  -0.012  -2.398  0.00  0.00    -0.007 A 
ATOM      3  S   UNL     1       1.403  -0.424  -3.594  0.00  0.00    -0.073 S 
ATOM      4  C   UNL     1       2.732  -0.797  -2.480  0.00  0.00    +0.117 A 
ATOM      5  C   UNL     1       2.163  -0.586  -1.210  0.00  0.00    +0.076 A 
ATOM      6  C   UNL     1       3.030  -0.813  -0.095  0.00  0.00    +0.264 A 
ATOM      7  O   UNL     1       2.624  -0.660   1.045  0.00  0.00    -0.267 OA
ATOM      8  N   UNL     1       4.300  -1.198  -0.320  0.00  0.00    -0.276 N 
ATOM      9  C   UNL     1       4.772  -1.375  -1.587  0.00  0.00    +0.202 A 
ATOM     10  N   UNL     1       3.993  -1.183  -2.631  0.00  0.00    -0.208 NA
ATOM     11  N   UNL     1       6.073  -1.768  -1.776  0.00  0.00    -0.304 N 
ATOM     12  C   UNL     1       6.402  -2.894  -2.663  0.00  0.00    +0.089 C 
ATOM     13  C   UNL     1       7.498  -2.443  -3.635  0.00  0.00    -0.059 C 
ATOM     14  N   UNL     1       8.639  -1.918  -2.874  0.00  0.00    +0.387 N 
ATOM     15  C   UNL     1       8.238  -0.710  -2.142  0.00  0.00    -0.059 C 
ATOM     16  C   UNL     1       7.179  -1.071  -1.101  0.00  0.00    +0.089 C 
ATOM     17  C   UNL     1      -1.278   0.412  -2.649  0.00  0.00    +0.052 C 
ATOM     18  H   UNL     1       8.955  -2.618  -2.219  0.00  0.00    -0.081 HD
ENDROOT
BRANCH   1  20
ATOM     19  C   UNL     1       0.204   1.552   0.468  0.00  0.00    +0.009 C 
ATOM     20  C   UNL     1       0.040   0.084   0.070  0.00  0.00    +0.033 C 
ENDBRANCH   1  20
BRANCH  14  21
ATOM     21  C   UNL     1       9.731  -1.589  -3.799  0.00  0.00    +0.019 C 
BRANCH  21  22
ATOM     22  C   UNL     1      10.945  -1.166  -3.012  0.00  0.00    +0.199 C 
ATOM     23  O   UNL     1      10.904  -1.142  -1.801  0.00  0.00    -0.278 OA
ATOM     24  N   UNL     1      12.076  -0.815  -3.656  0.00  0.00    -0.300 N 
ATOM     25  C   UNL     1      12.782  -0.616  -4.924  0.00  0.00    +0.126 C 
ATOM     26  C   UNL     1      13.466  -0.357  -3.580  0.00  0.00    +0.126 C 
ENDBRANCH  21  22
ENDBRANCH  14  21
BRANCH   8  27
ATOM     27  C   UNL     1       5.192  -1.432   0.818  0.00  0.00    +0.163 C 
BRANCH  27  28
ATOM     28  C   UNL     1       5.114  -2.880   1.229  0.00  0.00    -0.027 A 
ATOM     29  C   UNL     1       4.111  -3.303   2.082  0.00  0.00    +0.007 A 
ATOM     30  C   UNL     1       4.039  -4.631   2.459  0.00  0.00    +0.020 A 
ATOM     31  C   UNL     1       4.969  -5.537   1.982  0.00  0.00    +0.041 A 
ATOM     32  C   UNL     1       5.972  -5.113   1.128  0.00  0.00    +0.020 A 
ATOM     33  C   UNL     1       6.040  -3.786   0.748  0.00  0.00    +0.007 A 
ATOM     34 CL   UNL     1       4.879  -7.205   2.456  0.00  0.00    -0.084 Cl
ENDBRANCH  27  28
ENDBRANCH   8  27
TORSDOF 5
