REMARK  Name = ZINC09420065
REMARK  3 active torsions:
REMARK  status: ('A' for Active; 'I' for Inactive)
REMARK    1  A    between atoms: C_6  and  C_7
REMARK    2  A    between atoms: C_7  and  N_9
REMARK    3  A    between atoms: N_11  and  C_22
REMARK                            x       y       z     vdW  Elec       q    Type
REMARK                         _______ _______ _______ _____ _____    ______ ____
ROOT
ATOM      1  N   UNL     1       2.694   3.147  -2.200  0.00  0.00    -0.155 NA
ATOM      2  C   UNL     1       1.689   2.515  -1.611  0.00  0.00    +0.154 C 
ATOM      3  N   UNL     1       0.433   2.334  -2.100  0.00  0.00    -0.276 N 
ATOM      4  C   UNL     1      -0.572   1.659  -1.303  0.00  0.00    +0.116 C 
ATOM      5  C   UNL     1      -1.793   2.594  -1.129  0.00  0.00    +0.190 C 
ATOM      6  S   UNL     1      -2.380   2.140   0.559  0.00  0.00    -0.028 S 
ATOM      7  O   UNL     1      -2.872   3.301   1.215  0.00  0.00    -0.174 OA
ATOM      8  O   UNL     1      -3.192   0.977   0.478  0.00  0.00    -0.174 OA
ATOM      9  C   UNL     1      -0.729   1.671   1.279  0.00  0.00    +0.182 C 
ATOM     10  C   UNL     1      -0.028   1.118   0.023  0.00  0.00    +0.097 C 
ATOM     11  S   UNL     1       1.700   1.725  -0.015  0.00  0.00    -0.086 S 
ENDROOT
BRANCH   3  12
ATOM     12  C   UNL     1       0.110   2.800  -3.381  0.00  0.00    +0.039 A 
ATOM     13  C   UNL     1      -0.174   1.898  -4.397  0.00  0.00    +0.027 A 
ATOM     14  C   UNL     1      -0.497   2.358  -5.659  0.00  0.00    +0.051 A 
ATOM     15  C   UNL     1      -0.528   3.720  -5.918  0.00  0.00    +0.162 A 
ATOM     16  C   UNL     1      -0.241   4.625  -4.903  0.00  0.00    +0.164 A 
ATOM     17  C   UNL     1       0.078   4.164  -3.635  0.00  0.00    +0.073 A 
ATOM     18  O   UNL     1      -0.275   5.966  -5.136  0.00  0.00    -0.485 OA
ATOM     19  C   UNL     1      -0.235   6.384  -6.505  0.00  0.00    +0.270 C 
ATOM     20  C   UNL     1      -1.230   5.526  -7.298  0.00  0.00    +0.270 C 
ATOM     21  O   UNL     1      -0.839   4.154  -7.171  0.00  0.00    -0.485 OA
ENDBRANCH   3  12
BRANCH   1  22
ATOM     22  C   UNL     1       3.879   3.241  -1.582  0.00  0.00    +0.269 C 
ATOM     23  O   UNL     1       4.032   2.745  -0.480  0.00  0.00    -0.268 OA
BRANCH  22  29
ATOM     24  C   UNL     1       4.831   4.511  -3.504  0.00  0.00    +0.014 A 
ATOM     25  C   UNL     1       5.879   5.173  -4.109  0.00  0.00    +0.021 A 
ATOM     26  C   UNL     1       7.103   5.268  -3.468  0.00  0.00    +0.041 A 
ATOM     27  C   UNL     1       7.280   4.706  -2.215  0.00  0.00    +0.021 A 
ATOM     28  C   UNL     1       6.237   4.047  -1.599  0.00  0.00    +0.014 A 
ATOM     29  C   UNL     1       5.002   3.947  -2.239  0.00  0.00    +0.039 A 
ATOM     30 CL   UNL     1       8.420   6.096  -4.239  0.00  0.00    -0.084 Cl
ENDBRANCH  22  29
ENDBRANCH   1  22
TORSDOF 3
