REMARK  Name = ZINC17040060
REMARK  9 active torsions:
REMARK  status: ('A' for Active; 'I' for Inactive)
REMARK    1  A    between atoms: C_1  and  C_2
REMARK    2  A    between atoms: C_2  and  C_27
REMARK    3  A    between atoms: N_7  and  C_8
REMARK    4  A    between atoms: C_12  and  O_14
REMARK    5  A    between atoms: O_14  and  C_15
REMARK    6  A    between atoms: C_15  and  C_16
REMARK    7  A    between atoms: C_16  and  O_17
REMARK    8  A    between atoms: O_17  and  C_18
REMARK    9  A    between atoms: C_23  and  N_24
REMARK                            x       y       z     vdW  Elec       q    Type
REMARK                         _______ _______ _______ _____ _____    ______ ____
ROOT
ATOM      1  C   UNL     1       6.902   3.412   2.714  0.00  0.00    +0.042 A 
ATOM      2  C   UNL     1       7.492   3.821   1.524  0.00  0.00    +0.024 A 
ATOM      3  C   UNL     1       7.355   3.051   0.385  0.00  0.00    +0.005 A 
ATOM      4  C   UNL     1       6.636   1.872   0.426  0.00  0.00    +0.046 A 
ATOM      5  C   UNL     1       6.040   1.462   1.611  0.00  0.00    +0.122 A 
ATOM      6  C   UNL     1       6.175   2.231   2.756  0.00  0.00    +0.069 A 
ENDROOT
BRANCH   1  13
ATOM      7  C   UNL     1       8.851   2.670   4.521  0.00  0.00    +0.056 C 
ATOM      8  C   UNL     1       8.201   4.034   4.758  0.00  0.00    +0.109 C 
ATOM      9  N   UNL     1       7.739   4.127   6.144  0.00  0.00    -0.337 N 
ATOM     10  C   UNL     1       6.661   4.804   6.437  0.00  0.00    +0.191 C 
ATOM     11  N   UNL     1       5.916   5.403   5.492  0.00  0.00    -0.187 NA
ATOM     12  C   UNL     1       6.093   5.127   4.213  0.00  0.00    +0.189 C 
ATOM     13  N   UNL     1       7.040   4.191   3.868  0.00  0.00    -0.250 N 
ATOM     14  N   UNL     1       5.351   5.758   3.254  0.00  0.00    -0.331 N 
ATOM     15  N   UNL     1       6.275   4.908   7.759  0.00  0.00    -0.329 N 
ATOM     16  C   UNL     1       9.216   5.145   4.482  0.00  0.00    +0.056 C 
ATOM     17  H   UNL     1       5.508   5.519   2.192  0.00  0.00    +0.145 HD
ATOM     18  H   UNL     1       4.598   6.505   3.544  0.00  0.00    +0.145 HD
ATOM     19  H   UNL     1       5.370   5.474   8.025  0.00  0.00    +0.145 HD
ATOM     20  H   UNL     1       6.873   4.424   8.546  0.00  0.00    +0.145 HD
ATOM     21  H   UNL     1       8.305   3.622   6.940  0.00  0.00    +0.164 HD
ENDBRANCH   1  13
BRANCH   5  22
ATOM     22  O   UNL     1       5.330   0.304   1.649  0.00  0.00    -0.489 OA
BRANCH  22  23
ATOM     23  C   UNL     1       5.232  -0.438   0.432  0.00  0.00    +0.270 C 
BRANCH  23  24
ATOM     24  C   UNL     1       4.401  -1.700   0.669  0.00  0.00    +0.270 C 
BRANCH  24  25
ATOM     25  O   UNL     1       3.059  -1.333   0.996  0.00  0.00    -0.487 OA
BRANCH  25  26
ATOM     26  C   UNL     1       2.184  -2.345   1.239  0.00  0.00    +0.141 A 
ATOM     27  C   UNL     1       2.607  -3.662   1.164  0.00  0.00    +0.047 A 
ATOM     28  C   UNL     1       1.716  -4.690   1.412  0.00  0.00    +0.004 A 
ATOM     29  C   UNL     1       0.401  -4.408   1.735  0.00  0.00    +0.002 A 
ATOM     30  C   UNL     1      -0.028  -3.096   1.816  0.00  0.00    +0.026 A 
ATOM     31  C   UNL     1       0.860  -2.060   1.564  0.00  0.00    +0.067 A 
BRANCH  31  32
ATOM     32  N   UNL     1       0.426  -0.731   1.641  0.00  0.00    -0.355 N 
ATOM     33  H   UNL     1      -0.620  -0.507   1.897  0.00  0.00    +0.142 HD
ATOM     34  H   UNL     1       1.132   0.090   1.445  0.00  0.00    +0.142 HD
ENDBRANCH  31  32
ENDBRANCH  25  26
ENDBRANCH  24  25
ENDBRANCH  23  24
ENDBRANCH  22  23
ENDBRANCH   5  22
TORSDOF 7
