REMARK  Name = ZINC63137671
REMARK  10 active torsions:
REMARK  status: ('A' for Active; 'I' for Inactive)
REMARK    1  A    between atoms: C_1  and  O_2
REMARK    2  A    between atoms: O_2  and  C_3
REMARK    3  A    between atoms: C_7  and  C_9
REMARK    4  A    between atoms: N_28  and  C_31
REMARK    5  A    between atoms: C_31  and  C_32
REMARK    6  A    between atoms: C_32  and  C_33
REMARK    7  A    between atoms: C_36  and  O_41
REMARK    8  A    between atoms: C_37  and  O_39
REMARK    9  A    between atoms: O_39  and  C_40
REMARK   10  A    between atoms: O_41  and  C_42
REMARK                            x       y       z     vdW  Elec       q    Type
REMARK                         _______ _______ _______ _____ _____    ______ ____
ROOT
ATOM      1  C   UNL     1       1.389  -4.130   2.211  0.00  0.00    +0.134 C 
ATOM      2  C   UNL     1       2.754  -4.587   1.699  0.00  0.00    +0.131 C 
ATOM      3  C   UNL     1       3.743  -4.287   2.823  0.00  0.00    -0.034 C 
ATOM      4  C   UNL     1       4.627  -3.428   2.335  0.00  0.00    -0.001 A 
ATOM      5  C   UNL     1       5.818  -2.803   2.933  0.00  0.00    +0.010 A 
ATOM      6  C   UNL     1       6.511  -1.948   2.136  0.00  0.00    +0.001 A 
ATOM      7  C   UNL     1       6.143  -1.655   0.819  0.00  0.00    +0.002 A 
ATOM      8  C   UNL     1       5.064  -2.184   0.189  0.00  0.00    +0.026 A 
ATOM      9  C   UNL     1       4.257  -3.100   0.925  0.00  0.00    +0.043 A 
ATOM     10  N   UNL     1       3.178  -3.763   0.559  0.00  0.00    -0.375 N 
ATOM     11  C   UNL     1       3.588  -4.909   4.184  0.00  0.00    +0.065 C 
ATOM     12  C   UNL     1       2.134  -4.915   4.580  0.00  0.00    +0.167 C 
ATOM     13  N   UNL     1       1.150  -4.561   3.580  0.00  0.00    -0.279 N 
ATOM     14  C   UNL     1      -0.156  -4.597   4.005  0.00  0.00    +0.234 C 
ATOM     15  O   UNL     1      -1.077  -4.387   3.244  0.00  0.00    -0.274 OA
ATOM     16  C   UNL     1      -0.392  -4.911   5.467  0.00  0.00    +0.203 C 
ATOM     17  N   UNL     1       0.572  -4.139   6.273  0.00  0.00    -0.291 N 
ATOM     18  C   UNL     1       1.865  -4.146   5.849  0.00  0.00    +0.237 C 
ATOM     19  O   UNL     1       2.745  -3.572   6.455  0.00  0.00    -0.274 OA
ATOM     20  H   UNL     1       2.734  -3.718  -0.302  0.00  0.00    +0.160 HD
ENDROOT
BRANCH   1  25
ATOM     21  C   UNL     1       0.626  -0.618   1.042  0.00  0.00    +0.120 A 
ATOM     22  C   UNL     1       1.202   0.139   2.051  0.00  0.00    +0.045 A 
ATOM     23  C   UNL     1       1.835  -0.488   3.107  0.00  0.00    +0.004 A 
ATOM     24  C   UNL     1       1.895  -1.869   3.158  0.00  0.00    +0.006 A 
ATOM     25  C   UNL     1       1.321  -2.625   2.153  0.00  0.00    -0.021 A 
ATOM     26  C   UNL     1       0.682  -2.003   1.097  0.00  0.00    +0.051 A 
BRANCH  21  28
ATOM     27  C   UNL     1      -0.017   1.425   0.010  0.00  0.00    +0.277 C 
ATOM     28  O   UNL     1       0.002  -0.004   0.002  0.00  0.00    -0.495 OA
ENDBRANCH  21  28
ENDBRANCH   1  25
BRANCH  17  29
ATOM     29  C   UNL     1       0.157  -3.400   7.468  0.00  0.00    +0.113 C 
BRANCH  29  30
ATOM     30  C   UNL     1       0.271  -4.309   8.694  0.00  0.00    +0.054 C 
BRANCH  30  31
ATOM     31  C   UNL     1      -0.156  -3.549   9.923  0.00  0.00    -0.042 A 
ATOM     32  C   UNL     1       0.777  -2.831  10.649  0.00  0.00    +0.007 A 
ATOM     33  C   UNL     1       0.391  -2.133  11.778  0.00  0.00    +0.049 A 
ATOM     34  C   UNL     1      -0.933  -2.150  12.184  0.00  0.00    +0.161 A 
ATOM     35  C   UNL     1      -1.873  -2.872  11.453  0.00  0.00    +0.162 A 
ATOM     36  C   UNL     1      -1.480  -3.566  10.320  0.00  0.00    +0.053 A 
BRANCH  35  37
ATOM     37  O   UNL     1      -3.174  -2.892  11.848  0.00  0.00    -0.491 OA
ATOM     38  C   UNL     1      -4.082  -3.654  11.050  0.00  0.00    +0.277 C 
ENDBRANCH  35  37
BRANCH  34  39
ATOM     39  O   UNL     1      -1.315  -1.464  13.294  0.00  0.00    -0.491 OA
ATOM     40  C   UNL     1      -0.297  -0.746  13.995  0.00  0.00    +0.277 C 
ENDBRANCH  34  39
ENDBRANCH  30  31
ENDBRANCH  29  30
ENDBRANCH  17  29
TORSDOF 7
