REMARK  Name = ZINC16533503
REMARK  4 active torsions:
REMARK  status: ('A' for Active; 'I' for Inactive)
REMARK    1  A    between atoms: C_1  and  C_2
REMARK    2  A    between atoms: C_7  and  C_10
REMARK    3  A    between atoms: C_15  and  C_17
REMARK    4  A    between atoms: N_29  and  C_30
REMARK                            x       y       z     vdW  Elec       q    Type
REMARK                         _______ _______ _______ _____ _____    ______ ____
ROOT
ATOM      1  C   UNL     1       8.018   2.425   5.051  0.00  0.00    +0.039 C 
ATOM      2  C   UNL     1       7.065   2.940   3.971  0.00  0.00    +0.133 C 
ATOM      3  C   UNL     1       6.996   1.928   2.824  0.00  0.00    +0.138 C 
ATOM      4  N   UNL     1       6.139   2.463   1.756  0.00  0.00    -0.310 N 
ATOM      5  C   UNL     1       6.661   3.747   1.264  0.00  0.00    +0.138 C 
ATOM      6  C   UNL     1       6.733   4.741   2.426  0.00  0.00    +0.133 C 
ATOM      7  O   UNL     1       7.544   4.191   3.468  0.00  0.00    -0.371 OA
ATOM      8  C   UNL     1       5.324   5.006   2.961  0.00  0.00    +0.039 C 
ATOM      9  C   UNL     1       6.009   1.551   0.721  0.00  0.00    +0.130 A 
ATOM     10  C   UNL     1       4.760   0.991   0.423  0.00  0.00    +0.031 A 
ATOM     11  C   UNL     1       4.667   0.098  -0.617  0.00  0.00    +0.053 A 
ATOM     12  N   UNL     1       5.769  -0.213  -1.296  0.00  0.00    -0.232 NA
ATOM     13  C   UNL     1       6.938   0.326  -0.992  0.00  0.00    +0.162 A 
ATOM     14  N   UNL     1       7.065   1.198  -0.001  0.00  0.00    -0.212 NA
ATOM     15  C   UNL     1       3.372  -0.547  -1.028  0.00  0.00    +0.075 C 
ATOM     16  C   UNL     1       2.350  -0.481   0.107  0.00  0.00    +0.116 C 
ATOM     17  N   UNL     1       2.342   0.894   0.634  0.00  0.00    -0.281 N 
ATOM     18  C   UNL     1       3.576   1.383   1.260  0.00  0.00    +0.149 C 
ATOM     19  C   UNL     1       1.247   1.674   0.539  0.00  0.00    +0.307 C 
ATOM     20  O   UNL     1       1.295   2.835   0.898  0.00  0.00    -0.252 OA
ATOM     21  N   UNL     1       0.099   1.167   0.048  0.00  0.00    -0.268 N 
ATOM     22  H   UNL     1       0.080   0.265  -0.307  0.00  0.00    +0.156 HD
ENDROOT
BRANCH  21  23
ATOM     23  C   UNL     1      -1.065   1.945   0.045  0.00  0.00    +0.055 A 
ATOM     24  C   UNL     1      -0.978   3.327  -0.049  0.00  0.00    +0.025 A 
ATOM     25  C   UNL     1      -2.127   4.093  -0.056  0.00  0.00    +0.003 A 
ATOM     26  C   UNL     1      -3.366   3.485   0.041  0.00  0.00    +0.021 A 
ATOM     27  C   UNL     1      -3.458   2.108   0.140  0.00  0.00    +0.061 A 
ATOM     28  C   UNL     1      -2.310   1.335   0.142  0.00  0.00    +0.080 A 
ATOM     29 CL   UNL     1      -2.425  -0.392   0.267  0.00  0.00    -0.080 Cl
ATOM     30 CL   UNL     1      -5.014   1.348   0.260  0.00  0.00    -0.082 Cl
ENDBRANCH  21  23
BRANCH  13  31
ATOM     31  C   UNL     1       8.137  -0.054  -1.778  0.00  0.00    +0.019 A 
ATOM     32  C   UNL     1       9.377   0.506  -1.478  0.00  0.00    +0.011 A 
ATOM     33  C   UNL     1      10.490   0.144  -2.210  0.00  0.00    +0.001 A 
ATOM     34  C   UNL     1      10.374  -0.764  -3.247  0.00  0.00    +0.000 A 
ATOM     35  C   UNL     1       9.145  -1.319  -3.553  0.00  0.00    +0.001 A 
ATOM     36  C   UNL     1       8.026  -0.969  -2.824  0.00  0.00    +0.011 A 
ENDBRANCH  13  31
TORSDOF 2
