REMARK  Name = ZINC01410759
REMARK  6 active torsions:
REMARK  status: ('A' for Active; 'I' for Inactive)
REMARK    1  A    between atoms: C_1  and  C_2
REMARK    2  A    between atoms: C_2  and  O_3
REMARK    3  A    between atoms: O_3  and  C_4
REMARK    4  A    between atoms: C_6  and  C_12
REMARK    5  A    between atoms: C_9  and  O_10
REMARK    6  A    between atoms: N_13  and  N_14
REMARK                            x       y       z     vdW  Elec       q    Type
REMARK                         _______ _______ _______ _____ _____    ______ ____
ROOT
ATOM      1  C   UNL     1       0.777  -1.811  -1.336  0.00  0.00    +0.163 A 
ATOM      2  C   UNL     1       0.244  -2.666  -0.389  0.00  0.00    +0.059 A 
ATOM      3  C   UNL     1       0.355  -4.048  -0.559  0.00  0.00    -0.001 A 
ATOM      4  C   UNL     1       1.003  -4.560  -1.685  0.00  0.00    +0.027 A 
ATOM      5  C   UNL     1       1.532  -3.701  -2.627  0.00  0.00    +0.059 A 
ATOM      6  C   UNL     1       1.417  -2.328  -2.460  0.00  0.00    +0.172 A 
ATOM      7  I   UNL     1       2.504  -4.471  -4.315  0.00  0.00    -0.040 I 
ENDROOT
BRANCH   6   8
ATOM      8  O   UNL     1       1.935  -1.486  -3.393  0.00  0.00    -0.503 OA
ATOM      9  H   UNL     1       2.854  -1.235  -3.229  0.00  0.00    +0.292 HD
ENDBRANCH   6   8
BRANCH   3  10
ATOM     10  C   UNL     1      -0.211  -4.964   0.449  0.00  0.00    +0.140 C 
ATOM     11  N   UNL     1      -0.108  -6.247   0.289  0.00  0.00    -0.179 NA
BRANCH  11  12
ATOM     12  N   UNL     1      -0.645  -7.118   1.246  0.00  0.00    -0.249 N 
ATOM     13  C   UNL     1      -0.536  -8.473   1.078  0.00  0.00    +0.187 C 
ATOM     14  N   UNL     1      -1.048  -9.300   1.989  0.00  0.00    -0.370 N 
ATOM     15  N   UNL     1       0.081  -8.963   0.004  0.00  0.00    -0.370 N 
ATOM     16  H   UNL     1      -1.095  -6.761   2.028  0.00  0.00    +0.192 HD
ATOM     17  H   UNL     1      -1.497  -8.944   2.771  0.00  0.00    +0.159 HD
ATOM     18  H   UNL     1       0.454  -8.361  -0.659  0.00  0.00    +0.159 HD
ATOM     19  H   UNL     1       0.159  -9.923  -0.115  0.00  0.00    +0.159 HD
ATOM     20  H   UNL     1      -0.970 -10.260   1.869  0.00  0.00    +0.159 HD
ENDBRANCH  11  12
ENDBRANCH   3  10
BRANCH   1  21
ATOM     21  O   UNL     1       0.671  -0.465  -1.174  0.00  0.00    -0.489 OA
BRANCH  21  23
ATOM     22  C   UNL     1      -0.019   1.526   0.010  0.00  0.00    +0.048 C 
ATOM     23  C   UNL     1       0.002  -0.004   0.002  0.00  0.00    +0.226 C 
ENDBRANCH  21  23
ENDBRANCH   1  21
TORSDOF 5
