REMARK  Name = ZINC53169987
REMARK  2 active torsions:
REMARK  status: ('A' for Active; 'I' for Inactive)
REMARK    1  A    between atoms: C_3  and  C_8
REMARK    2  A    between atoms: C_8  and  N_9
REMARK                            x       y       z     vdW  Elec       q    Type
REMARK                         _______ _______ _______ _____ _____    ______ ____
ROOT
ATOM      1  N   UNL     1       4.105   2.426   1.356  0.00  0.00    -0.305 N 
ATOM      2  C   UNL     1       3.772   3.518   2.143  0.00  0.00    +0.109 A 
ATOM      3  C   UNL     1       4.412   3.321   3.376  0.00  0.00    +0.094 A 
ATOM      4  C   UNL     1       4.262   4.270   4.390  0.00  0.00    +0.033 A 
ATOM      5  C   UNL     1       3.490   5.389   4.172  0.00  0.00    +0.043 A 
ATOM      6  C   UNL     1       2.857   5.582   2.951  0.00  0.00    +0.161 A 
ATOM      7  C   UNL     1       2.997   4.651   1.937  0.00  0.00    +0.184 A 
ATOM      8  F   UNL     1       2.380   4.844   0.751  0.00  0.00    -0.200 F 
ATOM      9  F   UNL     1       2.103   6.684   2.752  0.00  0.00    -0.202 F 
ATOM     10  N   UNL     1       5.091   2.146   3.291  0.00  0.00    -0.215 NA
ATOM     11  C   UNL     1       4.907   1.616   2.108  0.00  0.00    +0.194 A 
ATOM     12  N   UNL     1       5.446   0.420   1.682  0.00  0.00    -0.329 N 
ATOM     13  H   UNL     1       5.264   0.097   0.786  0.00  0.00    +0.145 HD
ATOM     14  H   UNL     1       6.008  -0.099   2.279  0.00  0.00    +0.145 HD
ENDROOT
BRANCH   1  15
ATOM     15  C   UNL     1       3.672   2.183  -0.022  0.00  0.00    +0.160 C 
BRANCH  15  18
ATOM     16  C   UNL     1      -0.017   1.378   0.010  0.00  0.00    +0.001 A 
ATOM     17  C   UNL     1       1.171   2.086   0.002  0.00  0.00    +0.005 A 
ATOM     18  C   UNL     1       2.378   1.411  -0.013  0.00  0.00    -0.027 A 
ATOM     19  C   UNL     1       2.397   0.029  -0.022  0.00  0.00    +0.020 A 
ATOM     20  C   UNL     1       1.210  -0.679  -0.014  0.00  0.00    +0.018 A 
ATOM     21  C   UNL     1       0.002  -0.004   0.002  0.00  0.00    +0.015 A 
ATOM     22 BR   UNL     1       1.236  -2.570  -0.025  0.00  0.00    -0.050 Br
ENDBRANCH  15  18
ENDBRANCH   1  15
TORSDOF 2
