REMARK  Name = ZINC60604221
REMARK  4 active torsions:
REMARK  status: ('A' for Active; 'I' for Inactive)
REMARK    1  A    between atoms: C_5  and  C_7
REMARK    2  A    between atoms: C_7  and  C_8
REMARK    3  A    between atoms: C_8  and  N_9
REMARK    4  A    between atoms: C_10  and  C_12
REMARK                            x       y       z     vdW  Elec       q    Type
REMARK                         _______ _______ _______ _____ _____    ______ ____
ROOT
ATOM      1  N   UNL     1       1.394  -4.168   1.402  0.00  0.00    -0.311 N 
ATOM      2  C   UNL     1       1.516  -4.847   2.560  0.00  0.00    +0.244 C 
ATOM      3  O   UNL     1       1.610  -4.244   3.611  0.00  0.00    -0.270 OA
ATOM      4  H   UNL     1       1.319  -4.649   0.563  0.00  0.00    +0.149 HD
ENDROOT
BRANCH   2   5
ATOM      5  C   UNL     1       1.536  -6.328   2.551  0.00  0.00    +0.039 A 
ATOM      6  C   UNL     1       1.433  -7.017   1.333  0.00  0.00    +0.014 A 
ATOM      7  C   UNL     1       1.449  -8.378   1.299  0.00  0.00    +0.016 A 
ATOM      8  C   UNL     1       1.569  -9.106   2.492  0.00  0.00    +0.065 A 
ATOM      9  C   UNL     1       1.674  -8.421   3.731  0.00  0.00    +0.080 A 
ATOM     10  C   UNL     1       1.662  -7.019   3.745  0.00  0.00    +0.041 A 
ATOM     11  N   UNL     1       1.789  -9.132   4.862  0.00  0.00    -0.223 NA
ATOM     12  C   UNL     1       1.805 -10.456   4.831  0.00  0.00    +0.180 A 
ATOM     13  N   UNL     1       1.709 -11.150   3.685  0.00  0.00    -0.301 N 
ATOM     14  H   UNL     1       1.726 -12.120   3.711  0.00  0.00    +0.171 HD
ATOM     15  C   UNL     1       1.590 -10.517   2.498  0.00  0.00    +0.260 A 
ATOM     16  O   UNL     1       1.494 -11.213   1.352  0.00  0.00    -0.267 OA
ATOM     17  S   UNL     1       1.954 -11.313   6.306  0.00  0.00    -0.011 S 
ENDBRANCH   2   5
BRANCH   1  18
ATOM     18  C   UNL     1       1.375  -2.703   1.411  0.00  0.00    +0.109 C 
BRANCH  18  19
ATOM     19  C   UNL     1       1.228  -2.186  -0.022  0.00  0.00    +0.056 C 
BRANCH  19  24
ATOM     20  C   UNL     1      -0.017   1.378   0.010  0.00  0.00    +0.000 A 
ATOM     21  C   UNL     1       1.171   2.087   0.002  0.00  0.00    +0.003 A 
ATOM     22  C   UNL     1       2.377   1.414  -0.013  0.00  0.00    +0.038 A 
ATOM     23  C   UNL     1       2.397   0.029  -0.021  0.00  0.00    +0.127 A 
ATOM     24  C   UNL     1       1.208  -0.679  -0.013  0.00  0.00    -0.011 A 
ATOM     25  C   UNL     1       0.002  -0.004   0.002  0.00  0.00    +0.006 A 
ATOM     26  F   UNL     1       3.577  -0.630  -0.036  0.00  0.00    -0.205 F 
ENDBRANCH  19  24
ENDBRANCH  18  19
ENDBRANCH   1  18
TORSDOF 4
