REMARK  Name = ZINC12796072
REMARK  3 active torsions:
REMARK  status: ('A' for Active; 'I' for Inactive)
REMARK    1  A    between atoms: C_8  and  C_12
REMARK    2  A    between atoms: N_17  and  S_20
REMARK    3  A    between atoms: S_20  and  C_23
REMARK                            x       y       z     vdW  Elec       q    Type
REMARK                         _______ _______ _______ _____ _____    ______ ____
ROOT
ATOM      1  C   UNL     1      -0.382   3.193   2.455  0.00  0.00    +0.254 C 
ATOM      2  O   UNL     1      -0.636   4.362   2.234  0.00  0.00    -0.270 OA
ATOM      3  N   UNL     1      -0.884   2.231   1.655  0.00  0.00    -0.295 N 
ATOM      4  C   UNL     1      -0.656   0.812   1.964  0.00  0.00    +0.125 C 
ATOM      5  C   UNL     1      -0.017   0.141   0.742  0.00  0.00    +0.128 C 
ATOM      6  N   UNL     1      -0.797   0.494  -0.453  0.00  0.00    -0.174 NA
ATOM      7  C   UNL     1      -1.021   1.913  -0.760  0.00  0.00    +0.128 C 
ATOM      8  C   UNL     1      -1.664   2.583   0.461  0.00  0.00    +0.125 C 
ENDROOT
BRANCH   1  16
ATOM      9  C   UNL     1       1.313   0.370   7.641  0.00  0.00    +0.001 A 
ATOM     10  C   UNL     1       2.563   0.966   7.742  0.00  0.00    +0.004 A 
ATOM     11  C   UNL     1       2.987   1.874   6.795  0.00  0.00    +0.047 A 
ATOM     12  C   UNL     1       2.160   2.200   5.725  0.00  0.00    +0.139 A 
ATOM     13  C   UNL     1       0.894   1.595   5.625  0.00  0.00    +0.018 A 
ATOM     14  C   UNL     1       0.483   0.674   6.601  0.00  0.00    +0.011 A 
ATOM     15  C   UNL     1       0.035   1.921   4.545  0.00  0.00    +0.031 A 
ATOM     16  C   UNL     1       0.474   2.829   3.597  0.00  0.00    +0.122 A 
ATOM     17  C   UNL     1       1.804   3.427   3.754  0.00  0.00    +0.350 A 
ATOM     18  O   UNL     1       2.208   4.232   2.935  0.00  0.00    -0.244 OA
ATOM     19  O   UNL     1       2.577   3.089   4.799  0.00  0.00    -0.422 OA
ENDBRANCH   1  16
BRANCH   6  20
ATOM     20  S   UNL     1      -1.414  -0.688  -1.435  0.00  0.00    +0.062 S 
ATOM     21  O   UNL     1      -1.719  -1.795  -0.597  0.00  0.00    -0.153 OA
ATOM     22  O   UNL     1      -2.390  -0.064  -2.258  0.00  0.00    -0.153 OA
BRANCH  20  23
ATOM     23  C   UNL     1      -0.113  -1.209  -2.504  0.00  0.00    +0.119 A 
ATOM     24  C   UNL     1       0.400  -2.488  -2.396  0.00  0.00    +0.029 A 
ATOM     25  C   UNL     1       1.417  -2.898  -3.237  0.00  0.00    +0.002 A 
ATOM     26  C   UNL     1       1.929  -2.026  -4.180  0.00  0.00    +0.001 A 
ATOM     27  C   UNL     1       1.421  -0.745  -4.284  0.00  0.00    +0.017 A 
ATOM     28  C   UNL     1       0.399  -0.336  -3.446  0.00  0.00    +0.044 A 
ATOM     29 BR   UNL     1      -0.296   1.417  -3.588  0.00  0.00    -0.048 Br
ENDBRANCH  20  23
ENDBRANCH   6  20
TORSDOF 3
