REMARK  Name = ZINC19994040
REMARK  5 active torsions:
REMARK  status: ('A' for Active; 'I' for Inactive)
REMARK    1  A    between atoms: C_3  and  N_9
REMARK    2  A    between atoms: C_6  and  C_7
REMARK    3  A    between atoms: N_9  and  S_10
REMARK    4  A    between atoms: S_10  and  C_13
REMARK    5  A    between atoms: C_15  and  N_20
REMARK                            x       y       z     vdW  Elec       q    Type
REMARK                         _______ _______ _______ _____ _____    ______ ____
ROOT
ATOM      1  S   UNL     1       2.623   3.932   0.013  0.00  0.00    +0.093 S 
ATOM      2  O   UNL     1       3.502   3.356  -0.943  0.00  0.00    -0.148 OA
ATOM      3  O   UNL     1       2.132   5.260  -0.106  0.00  0.00    -0.148 OA
ENDROOT
BRANCH   1   4
ATOM      4  C   UNL     1       1.211   2.880   0.096  0.00  0.00    +0.130 A 
ATOM      5  C   UNL     1      -0.057   3.419   0.011  0.00  0.00    +0.053 A 
ATOM      6  C   UNL     1      -1.169   2.590   0.077  0.00  0.00    +0.027 A 
ATOM      7  C   UNL     1      -1.002   1.218   0.223  0.00  0.00    +0.024 A 
ATOM      8  C   UNL     1       0.269   0.685   0.312  0.00  0.00    +0.024 A 
ATOM      9  C   UNL     1       1.375   1.514   0.246  0.00  0.00    +0.068 A 
ATOM     10 CL   UNL     1       2.971   0.839   0.353  0.00  0.00    -0.082 Cl
BRANCH   6  11
ATOM     11  N   UNL     1      -2.454   3.132  -0.009  0.00  0.00    -0.358 N 
ATOM     12  H   UNL     1      -3.334   2.474   0.043  0.00  0.00    +0.142 HD
ATOM     13  H   UNL     1      -2.585   4.218  -0.128  0.00  0.00    +0.142 HD
ENDBRANCH   6  11
ENDBRANCH   1   4
BRANCH   1  14
ATOM     14  N   UNL     1       3.389   3.839   1.478  0.00  0.00    -0.098 NA
BRANCH  14  17
ATOM     15  C   UNL     1       2.126   3.838   4.922  0.00  0.00    +0.021 A 
ATOM     16  C   UNL     1       2.778   3.444   3.775  0.00  0.00    +0.028 A 
ATOM     17  C   UNL     1       2.728   4.241   2.635  0.00  0.00    +0.074 A 
ATOM     18  C   UNL     1       2.025   5.441   2.652  0.00  0.00    +0.028 A 
ATOM     19  C   UNL     1       1.367   5.839   3.793  0.00  0.00    +0.021 A 
ATOM     20  C   UNL     1       1.414   5.041   4.940  0.00  0.00    +0.052 A 
BRANCH  20  21
ATOM     21  C   UNL     1       0.734   5.454   6.131  0.00  0.00    +0.099 C 
ATOM     22  N   UNL     1       0.195   5.782   7.075  0.00  0.00    -0.191 NA
ENDBRANCH  20  21
ENDBRANCH  14  17
ENDBRANCH   1  14
TORSDOF 5
