REMARK  Name = ZINC11498299
REMARK  9 active torsions:
REMARK  status: ('A' for Active; 'I' for Inactive)
REMARK    1  A    between atoms: C_1  and  C_2
REMARK    2  A    between atoms: C_2  and  C_3
REMARK    3  A    between atoms: C_2  and  C_4
REMARK    4  A    between atoms: C_4  and  C_6
REMARK    5  A    between atoms: C_4  and  N_13
REMARK    6  A    between atoms: C_14  and  C_16
REMARK    7  A    between atoms: C_16  and  N_61
REMARK    8  A    between atoms: N_20  and  S_23
REMARK    9  A    between atoms: S_23  and  C_26
REMARK                            x       y       z     vdW  Elec       q    Type
REMARK                         _______ _______ _______ _____ _____    ______ ____
ROOT
ATOM      1  C   UNL     1      -0.432  -3.557   3.681  0.00  0.00    -0.077 C 
ATOM      2  C   UNL     1      -0.393  -4.590   4.734  0.00  0.00    -0.001 C 
ATOM      3  C   UNL     1      -0.376  -5.997   4.086  0.00  0.00    +0.107 C 
ATOM      4  N   UNL     1      -1.659  -6.262   3.471  0.00  0.00    -0.178 NA
ATOM      5  C   UNL     1      -1.970  -5.897   2.074  0.00  0.00    +0.091 C 
ATOM      6  C   UNL     1      -1.426  -4.501   1.718  0.00  0.00    -0.061 C 
ATOM      7  N   UNL     1      -1.646  -3.610   2.848  0.00  0.00    +0.386 N 
ATOM      8  H   UNL     1      -2.424  -3.972   3.413  0.00  0.00    -0.081 HD
ENDROOT
BRANCH   4   9
ATOM      9  S   UNL     1      -2.830  -7.007   4.374  0.00  0.00    +0.061 S 
ATOM     10  O   UNL     1      -3.712  -7.637   3.455  0.00  0.00    -0.153 OA
ATOM     11  O   UNL     1      -2.157  -7.727   5.398  0.00  0.00    -0.153 OA
BRANCH   9  12
ATOM     12  C   UNL     1      -3.756  -5.740   5.174  0.00  0.00    +0.106 A 
ATOM     13  C   UNL     1      -3.374  -5.290   6.425  0.00  0.00    +0.031 A 
ATOM     14  C   UNL     1      -4.097  -4.293   7.051  0.00  0.00    +0.040 A 
ATOM     15  C   UNL     1      -5.210  -3.751   6.431  0.00  0.00    +0.124 A 
ATOM     16  C   UNL     1      -5.595  -4.206   5.181  0.00  0.00    +0.040 A 
ATOM     17  C   UNL     1      -4.867  -5.200   4.554  0.00  0.00    +0.031 A 
ATOM     18  F   UNL     1      -5.920  -2.779   7.044  0.00  0.00    -0.205 F 
ENDBRANCH   9  12
ENDBRANCH   4   9
BRANCH   7  19
ATOM     19  C   UNL     1      -1.991  -2.257   2.370  0.00  0.00    +0.019 C 
BRANCH  19  21
ATOM     20  N   UNL     1      -1.041  -0.511   0.897  0.00  0.00    -0.310 N 
ATOM     21  C   UNL     1      -0.918  -1.735   1.449  0.00  0.00    +0.197 C 
ATOM     22  O   UNL     1       0.055  -2.416   1.205  0.00  0.00    -0.278 OA
ATOM     23  H   UNL     1      -1.819   0.033   1.093  0.00  0.00    +0.149 HD
BRANCH  20  24
ATOM     24  C   UNL     1       0.002  -0.004   0.002  0.00  0.00    +0.106 C 
BRANCH  24  25
ATOM     25  C   UNL     1      -0.018   1.503   0.010  0.00  0.00    -0.027 A 
ATOM     26  C   UNL     1      -1.225   2.177   0.020  0.00  0.00    +0.008 A 
ATOM     27  C   UNL     1      -1.245   3.559   0.033  0.00  0.00    +0.038 A 
ATOM     28  C   UNL     1      -0.056   4.268   0.025  0.00  0.00    +0.123 A 
ATOM     29  C   UNL     1       1.152   3.591   0.010  0.00  0.00    +0.038 A 
ATOM     30  C   UNL     1       1.170   2.210   0.003  0.00  0.00    +0.008 A 
ATOM     31  F   UNL     1      -0.074   5.619   0.032  0.00  0.00    -0.205 F 
ENDBRANCH  24  25
BRANCH  24  33
ATOM     32  C   UNL     1       0.834   0.020  -2.354  0.00  0.00    +0.009 C 
ATOM     33  C   UNL     1      -0.255  -0.510  -1.419  0.00  0.00    +0.008 C 
ATOM     34  C   UNL     1      -0.234  -2.040  -1.427  0.00  0.00    +0.009 C 
ENDBRANCH  24  33
ENDBRANCH  20  24
ENDBRANCH  19  21
ENDBRANCH   7  19
TORSDOF 7
