REMARK  Name = ZINC04275813
REMARK  4 active torsions:
REMARK  status: ('A' for Active; 'I' for Inactive)
REMARK    1  A    between atoms: C_1  and  N_2
REMARK    2  A    between atoms: C_3  and  C_5
REMARK    3  A    between atoms: C_9  and  N_10
REMARK    4  A    between atoms: C_11  and  C_13
REMARK                            x       y       z     vdW  Elec       q    Type
REMARK                         _______ _______ _______ _____ _____    ______ ____
ROOT
ATOM      1  N   UNL     1      -3.612  -2.441   0.023  0.00  0.00    -0.275 N 
ATOM      2  C   UNL     1      -4.637  -3.316   0.029  0.00  0.00    +0.255 C 
ATOM      3  O   UNL     1      -4.417  -4.512   0.020  0.00  0.00    -0.270 OA
ATOM      4  H   UNL     1      -3.787  -1.487   0.030  0.00  0.00    +0.156 HD
ENDROOT
BRANCH   2   5
ATOM      5  C   UNL     1      -6.024  -2.823   0.044  0.00  0.00    +0.119 A 
ATOM      6  C   UNL     1      -7.080  -3.691   0.056  0.00  0.00    +0.212 A 
ATOM      7  O   UNL     1      -8.345  -3.283   0.086  0.00  0.00    -0.462 OA
ATOM      8  C   UNL     1      -8.692  -2.013  -0.198  0.00  0.00    +0.138 A 
ATOM      9  C   UNL     1     -10.017  -1.685  -0.468  0.00  0.00    +0.047 A 
ATOM     10  C   UNL     1     -10.360  -0.380  -0.751  0.00  0.00    +0.004 A 
ATOM     11  C   UNL     1      -9.398   0.619  -0.771  0.00  0.00    +0.001 A 
ATOM     12  C   UNL     1      -8.079   0.316  -0.509  0.00  0.00    +0.015 A 
ATOM     13  C   UNL     1      -7.720  -0.999  -0.225  0.00  0.00    +0.065 A 
ATOM     14  C   UNL     1      -6.317  -1.375   0.055  0.00  0.00    +0.205 A 
ATOM     15  O   UNL     1      -5.456  -0.542   0.276  0.00  0.00    -0.286 OA
ENDBRANCH   2   5
BRANCH   1  20
ATOM     16  C   UNL     1      -1.136  -2.160   0.001  0.00  0.00    +0.065 A 
ATOM     17  C   UNL     1       0.103  -2.903  -0.008  0.00  0.00    +0.022 A 
ATOM     18  C   UNL     1      -0.016  -4.243  -0.015  0.00  0.00    +0.048 A 
ATOM     19  S   UNL     1      -1.777  -4.497  -0.008  0.00  0.00    -0.081 S 
ATOM     20  C   UNL     1      -2.306  -2.905   0.009  0.00  0.00    +0.084 A 
BRANCH  16  23
ATOM     21  C   UNL     1      -0.018   1.461   0.010  0.00  0.00    +0.128 C 
ATOM     22  N   UNL     1       0.002  -0.004   0.002  0.00  0.00    -0.314 N 
ATOM     23  C   UNL     1      -1.156  -0.694   0.009  0.00  0.00    +0.246 C 
ATOM     24  O   UNL     1      -2.218  -0.100   0.023  0.00  0.00    -0.270 OA
ATOM     25  H   UNL     1       0.849  -0.478  -0.009  0.00  0.00    +0.149 HD
ENDBRANCH  16  23
ENDBRANCH   1  20
TORSDOF 3
