REMARK  Name = ZINC40008668
REMARK  5 active torsions:
REMARK  status: ('A' for Active; 'I' for Inactive)
REMARK    1  A    between atoms: C_1  and  C_2
REMARK    2  A    between atoms: C_16  and  C_18
REMARK    3  A    between atoms: C_29  and  C_31
REMARK    4  A    between atoms: C_31  and  C_32
REMARK    5  A    between atoms: C_31  and  C_33
REMARK                            x       y       z     vdW  Elec       q    Type
REMARK                         _______ _______ _______ _____ _____    ______ ____
ROOT
ATOM      1  C   UNL     1      -0.018   1.503   0.010  0.00  0.00    +0.044 C 
ATOM      2  C   UNL     1       0.002  -0.004   0.002  0.00  0.00    -0.050 A 
ATOM      3  C   UNL     1       0.006  -0.689  -1.205  0.00  0.00    +0.007 A 
ATOM      4  C   UNL     1       0.022  -2.065  -1.235  0.00  0.00    +0.047 A 
ATOM      5  C   UNL     1       0.035  -2.790  -0.043  0.00  0.00    +0.139 A 
ATOM      6  C   UNL     1       0.037  -2.086   1.172  0.00  0.00    +0.065 A 
ATOM      7  C   UNL     1       0.023  -0.692   1.183  0.00  0.00    +0.018 A 
ATOM      8  C   UNL     1       0.067  -2.849   2.446  0.00  0.00    +0.199 A 
ATOM      9  O   UNL     1      -0.098  -2.332   3.537  0.00  0.00    -0.287 OA
ATOM     10  C   UNL     1       0.313  -4.283   2.266  0.00  0.00    +0.072 A 
ATOM     11  C   UNL     1       0.294  -4.850   1.023  0.00  0.00    +0.199 A 
ATOM     12  O   UNL     1       0.043  -4.142  -0.096  0.00  0.00    -0.450 OA
ATOM     13  C   UNL     1       0.582  -6.287   1.166  0.00  0.00    +0.289 C 
ATOM     14  O   UNL     1       0.643  -7.080   0.247  0.00  0.00    -0.266 OA
ATOM     15  N   UNL     1       0.769  -6.595   2.466  0.00  0.00    -0.230 N 
ATOM     16  C   UNL     1       0.613  -5.362   3.254  0.00  0.00    +0.152 C 
ATOM     17  C   UNL     1       1.059  -7.856   2.972  0.00  0.00    +0.191 A 
ATOM     18  N   UNL     1       1.251  -8.249   4.223  0.00  0.00    -0.125 NA
ATOM     19  N   UNL     1       1.508  -9.450   4.511  0.00  0.00    -0.144 NA
ATOM     20  C   UNL     1       1.603 -10.388   3.590  0.00  0.00    +0.106 A 
ATOM     21  S   UNL     1       1.272  -9.417   2.122  0.00  0.00    -0.035 S 
ENDROOT
BRANCH  16  22
ATOM     22  C   UNL     1       1.889  -5.051   3.992  0.00  0.00    -0.021 A 
ATOM     23  C   UNL     1       3.111  -5.308   3.398  0.00  0.00    +0.007 A 
ATOM     24  C   UNL     1       4.283  -5.024   4.073  0.00  0.00    +0.022 A 
ATOM     25  C   UNL     1       4.234  -4.482   5.345  0.00  0.00    +0.059 A 
ATOM     26  C   UNL     1       3.010  -4.223   5.940  0.00  0.00    +0.060 A 
ATOM     27  C   UNL     1       1.839  -4.504   5.260  0.00  0.00    +0.027 A 
ATOM     28 CL   UNL     1       2.947  -3.543   7.536  0.00  0.00    -0.082 Cl
ATOM     29 CL   UNL     1       5.705  -4.125   6.195  0.00  0.00    -0.082 Cl
ENDBRANCH  16  22
BRANCH  20  30
ATOM     30  C   UNL     1       1.898 -11.859   3.732  0.00  0.00    +0.040 C 
ATOM     31  C   UNL     1       3.271 -12.043   4.381  0.00  0.00    +0.014 C 
ATOM     32  C   UNL     1       0.828 -12.512   4.608  0.00  0.00    +0.014 C 
ENDBRANCH  20  30
TORSDOF 2
