REMARK  Name = ZINC09482122
REMARK  6 active torsions:
REMARK  status: ('A' for Active; 'I' for Inactive)
REMARK    1  A    between atoms: C_3  and  C_11
REMARK    2  A    between atoms: C_5  and  C_7
REMARK    3  A    between atoms: C_11  and  O_27
REMARK    4  A    between atoms: C_16  and  C_17
REMARK    5  A    between atoms: C_16  and  N_48
REMARK    6  A    between atoms: N_19  and  C_20
REMARK                            x       y       z     vdW  Elec       q    Type
REMARK                         _______ _______ _______ _____ _____    ______ ____
ROOT
ATOM      1  C   UNL     1       4.935   3.313   2.367  0.00  0.00    +0.088 C 
ATOM      2  C   UNL     1       5.454   2.262   1.382  0.00  0.00    +0.021 C 
ATOM      3  C   UNL     1       4.382   1.190   1.175  0.00  0.00    -0.075 C 
ATOM      4  C   UNL     1       2.615   2.792   1.604  0.00  0.00    -0.075 C 
ATOM      5  C   UNL     1       3.635   3.912   1.824  0.00  0.00    +0.021 C 
ATOM      6  N   UNL     1       3.165   1.828   0.628  0.00  0.00    +0.386 N 
ATOM      7  H   UNL     1       3.411   2.329  -0.234  0.00  0.00    -0.081 HD
ENDROOT
BRANCH   1  10
ATOM      8  C   UNL     1       7.756   5.713   1.635  0.00  0.00    +0.001 A 
ATOM      9  C   UNL     1       6.815   4.711   1.487  0.00  0.00    +0.006 A 
ATOM     10  C   UNL     1       5.963   4.402   2.531  0.00  0.00    -0.016 A 
ATOM     11  C   UNL     1       6.059   5.088   3.727  0.00  0.00    +0.018 A 
ATOM     12  C   UNL     1       7.003   6.087   3.877  0.00  0.00    +0.055 A 
ATOM     13  C   UNL     1       7.851   6.399   2.831  0.00  0.00    +0.012 A 
BRANCH  12  14
ATOM     14  C   UNL     1       7.107   6.835   5.181  0.00  0.00    +0.417 C 
ATOM     15  F   UNL     1       8.009   6.179   6.025  0.00  0.00    -0.166 F 
ATOM     16  F   UNL     1       7.559   8.137   4.937  0.00  0.00    -0.166 F 
ATOM     17  F   UNL     1       5.849   6.885   5.792  0.00  0.00    -0.166 F 
ENDBRANCH  12  14
ENDBRANCH   1  10
BRANCH   1  18
ATOM     18  O   UNL     1       4.685   2.698   3.633  0.00  0.00    -0.384 OA
ATOM     19  H   UNL     1       4.353   3.307   4.307  0.00  0.00    +0.211 HD
ENDBRANCH   1  18
BRANCH   6  20
ATOM     20  C   UNL     1       2.154   0.797   0.312  0.00  0.00    +0.019 C 
BRANCH  20  21
ATOM     21  C   UNL     1       2.648  -0.026  -0.850  0.00  0.00    +0.201 C 
ATOM     22  O   UNL     1       3.678   0.277  -1.414  0.00  0.00    -0.278 OA
ATOM     23  N   UNL     1       1.944  -1.099  -1.262  0.00  0.00    -0.287 N 
ATOM     24  H   UNL     1       1.163  -1.387  -0.765  0.00  0.00    +0.155 HD
BRANCH  23  25
ATOM     25  C   UNL     1       2.345  -1.802  -2.404  0.00  0.00    +0.033 A 
ATOM     26  C   UNL     1       2.940  -1.128  -3.462  0.00  0.00    +0.024 A 
ATOM     27  C   UNL     1       3.340  -1.825  -4.586  0.00  0.00    +0.017 A 
ATOM     28  C   UNL     1       3.137  -3.191  -4.662  0.00  0.00    +0.018 A 
ATOM     29  C   UNL     1       2.539  -3.864  -3.612  0.00  0.00    +0.017 A 
ATOM     30  C   UNL     1       2.143  -3.173  -2.484  0.00  0.00    +0.024 A 
ATOM     31 BR   UNL     1       3.679  -4.141  -6.205  0.00  0.00    -0.050 Br
ENDBRANCH  23  25
ENDBRANCH  20  21
ENDBRANCH   6  20
TORSDOF 6
