REMARK  Name = ZINC11204531
REMARK  5 active torsions:
REMARK  status: ('A' for Active; 'I' for Inactive)
REMARK    1  A    between atoms: C_1  and  C_2
REMARK    2  A    between atoms: C_8  and  C_10
REMARK    3  A    between atoms: C_11  and  C_27
REMARK    4  A    between atoms: N_12  and  C_26
REMARK    5  A    between atoms: C_16  and  C_18
REMARK                            x       y       z     vdW  Elec       q    Type
REMARK                         _______ _______ _______ _____ _____    ______ ____
ROOT
ATOM      1  C   UNL     1      -0.553   2.184   3.603  0.00  0.00    +0.056 C 
ATOM      2  C   UNL     1       0.112   1.808   2.490  0.00  0.00    +0.019 C 
ATOM      3  N   UNL     1      -0.539   1.643   1.301  0.00  0.00    -0.289 N 
ATOM      4  C   UNL     1      -1.854   1.840   1.141  0.00  0.00    +0.137 C 
ATOM      5  S   UNL     1      -2.545   1.604  -0.407  0.00  0.00    -0.018 S 
ATOM      6  N   UNL     1      -2.652   2.212   2.161  0.00  0.00    -0.315 N 
ATOM      7  C   UNL     1      -2.046   2.417   3.487  0.00  0.00    +0.145 C 
ATOM      8  C   UNL     1       0.245   1.233   0.134  0.00  0.00    +0.137 C 
ATOM      9  C   UNL     1       1.598   1.565   2.560  0.00  0.00    +0.061 C 
ATOM     10  H   UNL     1      -3.603   2.346   2.024  0.00  0.00    +0.149 HD
ENDROOT
BRANCH   1  18
ATOM     11  C   UNL     1       3.036   3.231   9.381  0.00  0.00    +0.089 C 
ATOM     12  C   UNL     1       2.393   2.315   8.372  0.00  0.00    +0.136 A 
ATOM     13  C   UNL     1       1.689   2.685   7.278  0.00  0.00    +0.091 A 
ATOM     14  C   UNL     1       1.312   1.452   6.681  0.00  0.00    +0.168 A 
ATOM     15  N   UNL     1       1.801   0.511   7.446  0.00  0.00    -0.063 NA
ATOM     16  O   UNL     1       2.408   0.974   8.384  0.00  0.00    -0.358 OA
ATOM     17  N   UNL     1       0.565   1.280   5.517  0.00  0.00    -0.264 N 
ATOM     18  C   UNL     1       0.122   2.356   4.836  0.00  0.00    +0.249 C 
ATOM     19  O   UNL     1       0.302   3.475   5.280  0.00  0.00    -0.270 OA
ATOM     20  H   UNL     1       0.364   0.387   5.197  0.00  0.00    +0.157 HD
ENDBRANCH   1  18
BRANCH   7  21
ATOM     21  C   UNL     1      -2.736   1.496   4.461  0.00  0.00    +0.048 A 
ATOM     22  C   UNL     1      -2.842   0.145   4.180  0.00  0.00    +0.131 A 
ATOM     23  C   UNL     1      -3.471  -0.701   5.078  0.00  0.00    +0.039 A 
ATOM     24  C   UNL     1      -4.004  -0.194   6.248  0.00  0.00    +0.006 A 
ATOM     25  C   UNL     1      -3.903   1.156   6.527  0.00  0.00    +0.039 A 
ATOM     26  C   UNL     1      -3.269   2.003   5.633  0.00  0.00    +0.131 A 
ATOM     27  F   UNL     1      -3.171   3.322   5.907  0.00  0.00    -0.205 F 
ATOM     28  F   UNL     1      -2.327  -0.349   3.033  0.00  0.00    -0.205 F 
ENDBRANCH   7  21
TORSDOF 2
