REMARK  Name = ZINC15685966
REMARK  3 active torsions:
REMARK  status: ('A' for Active; 'I' for Inactive)
REMARK    1  A    between atoms: N_9  and  C_24
REMARK    2  A    between atoms: C_11  and  C_12
REMARK    3  A    between atoms: C_29  and  N_30
REMARK                            x       y       z     vdW  Elec       q    Type
REMARK                         _______ _______ _______ _____ _____    ______ ____
ROOT
ATOM      1  C   UNL     1       5.591  -6.840   4.645  0.00  0.00    +0.001 A 
ATOM      2  C   UNL     1       6.790  -6.175   4.436  0.00  0.00    +0.002 A 
ATOM      3  C   UNL     1       6.897  -5.206   3.460  0.00  0.00    +0.024 A 
ATOM      4  C   UNL     1       5.794  -4.892   2.677  0.00  0.00    +0.044 A 
ATOM      5  C   UNL     1       4.577  -5.567   2.888  0.00  0.00    +0.059 A 
ATOM      6  C   UNL     1       4.484  -6.543   3.878  0.00  0.00    +0.015 A 
ATOM      7  C   UNL     1       3.424  -5.212   2.042  0.00  0.00    +0.258 C 
ATOM      8  O   UNL     1       2.352  -5.766   2.186  0.00  0.00    -0.269 OA
ATOM      9  N   UNL     1       3.589  -4.255   1.103  0.00  0.00    -0.221 N 
ATOM     10  C   UNL     1       4.784  -3.634   0.940  0.00  0.00    +0.102 C 
ATOM     11  C   UNL     1       4.901  -2.638  -0.061  0.00  0.00    +0.053 C 
ATOM     12  N   UNL     1       5.861  -3.927   1.689  0.00  0.00    -0.302 N 
ATOM     13  H   UNL     1       6.695  -3.455   1.535  0.00  0.00    +0.153 HD
ENDROOT
BRANCH  11  14
ATOM     14  C   UNL     1       6.049  -1.915  -0.171  0.00  0.00    +0.049 C 
ATOM     15  C   UNL     1       7.430  -2.421  -0.307  0.00  0.00    +0.009 A 
ATOM     16  C   UNL     1       7.985  -3.694  -0.365  0.00  0.00    +0.025 A 
ATOM     17  C   UNL     1       9.354  -3.839  -0.499  0.00  0.00    +0.019 A 
ATOM     18  C   UNL     1      10.169  -2.721  -0.575  0.00  0.00    +0.017 A 
ATOM     19  C   UNL     1       9.633  -1.450  -0.519  0.00  0.00    +0.025 A 
ATOM     20  C   UNL     1       8.254  -1.277  -0.384  0.00  0.00    +0.042 A 
ATOM     21  N   UNL     1       7.486  -0.156  -0.306  0.00  0.00    -0.281 N 
ATOM     22  C   UNL     1       6.202  -0.428  -0.188  0.00  0.00    +0.249 C 
ATOM     23  O   UNL     1       5.298   0.388  -0.104  0.00  0.00    -0.270 OA
ATOM     24 BR   UNL     1      10.116  -5.569  -0.579  0.00  0.00    -0.050 Br
ATOM     25  H   UNL     1       7.845   0.745  -0.338  0.00  0.00    +0.155 HD
ENDBRANCH  11  14
BRANCH   9  26
ATOM     26  C   UNL     1       2.511  -3.899   0.287  0.00  0.00    +0.073 A 
ATOM     27  C   UNL     1       1.651  -2.879   0.675  0.00  0.00    +0.026 A 
ATOM     28  C   UNL     1       0.587  -2.530  -0.133  0.00  0.00    +0.002 A 
ATOM     29  C   UNL     1       0.378  -3.194  -1.328  0.00  0.00    +0.002 A 
ATOM     30  C   UNL     1       1.232  -4.210  -1.718  0.00  0.00    +0.034 A 
ATOM     31  C   UNL     1       2.301  -4.560  -0.917  0.00  0.00    +0.148 A 
BRANCH  31  32
ATOM     32  N   UNL     1       3.218  -5.643  -1.337  0.00  0.00    +0.058 N 
ATOM     33  O   UNL     1       3.035  -6.218  -2.385  0.00  0.00    -0.126 OA
ATOM     34  O   UNL     1       4.151  -5.952  -0.633  0.00  0.00    -0.126 OA
ENDBRANCH  31  32
ENDBRANCH   9  26
TORSDOF 3
