REMARK  Name = ZINC31047373
REMARK  10 active torsions:
REMARK  status: ('A' for Active; 'I' for Inactive)
REMARK    1  A    between atoms: C_1  and  C_2
REMARK    2  A    between atoms: C_2  and  C_3
REMARK    3  A    between atoms: C_3  and  C_5
REMARK    4  A    between atoms: C_3  and  N_13
REMARK    5  A    between atoms: C_8  and  C_12
REMARK    6  A    between atoms: C_10  and  C_11
REMARK    7  A    between atoms: C_14  and  C_16
REMARK    8  A    between atoms: N_21  and  C_23
REMARK    9  A    between atoms: C_23  and  C_24
REMARK   10  A    between atoms: C_26  and  C_29
REMARK                            x       y       z     vdW  Elec       q    Type
REMARK                         _______ _______ _______ _____ _____    ______ ____
ROOT
ATOM      1  C   UNL     1      -1.780   1.929   8.331  0.00  0.00    +0.058 C 
ATOM      2  C   UNL     1      -0.781   3.038   8.672  0.00  0.00    +0.009 C 
ATOM      3  C   UNL     1      -0.019   2.655   9.944  0.00  0.00    -0.018 C 
ATOM      4  C   UNL     1      -1.018   2.426  11.081  0.00  0.00    -0.078 C 
ATOM      5  N   UNL     1      -1.951   1.356  10.706  0.00  0.00    +0.386 N 
ATOM      6  C   UNL     1      -2.727   1.721   9.514  0.00  0.00    -0.065 C 
ATOM      7  H   UNL     1      -1.356   0.464  10.459  0.00  0.00    -0.081 HD
ENDROOT
BRANCH   1   9
ATOM      8  N   UNL     1      -1.945   2.565   5.946  0.00  0.00    -0.308 N 
ATOM      9  C   UNL     1      -2.575   2.324   7.113  0.00  0.00    +0.215 C 
ATOM     10  O   UNL     1      -3.781   2.426   7.184  0.00  0.00    -0.276 OA
ATOM     11  H   UNL     1      -0.850   2.472   5.882  0.00  0.00    +0.149 HD
BRANCH   8  12
ATOM     12  C   UNL     1      -2.718   2.949   4.763  0.00  0.00    +0.103 C 
BRANCH  12  13
ATOM     13  C   UNL     1      -3.191   1.710   4.047  0.00  0.00    -0.024 A 
ATOM     14  C   UNL     1      -2.492   0.525   4.182  0.00  0.00    +0.006 A 
ATOM     15  C   UNL     1      -2.927  -0.612   3.527  0.00  0.00    +0.004 A 
ATOM     16  C   UNL     1      -4.060  -0.564   2.736  0.00  0.00    -0.050 A 
ATOM     17  C   UNL     1      -4.755   0.623   2.597  0.00  0.00    +0.007 A 
ATOM     18  C   UNL     1      -4.323   1.759   3.256  0.00  0.00    -0.045 A 
ATOM     19  C   UNL     1      -5.084   3.051   3.108  0.00  0.00    +0.044 C 
ATOM     20  C   UNL     1      -4.534  -1.803   2.021  0.00  0.00    +0.044 C 
ENDBRANCH  12  13
BRANCH  12  22
ATOM     21  C   UNL     1      -1.457   5.091   4.505  0.00  0.00    +0.006 C 
ATOM     22  C   UNL     1      -1.835   3.775   3.824  0.00  0.00    +0.024 C 
ENDBRANCH  12  22
ENDBRANCH   8  12
ENDBRANCH   1   9
BRANCH   5  23
ATOM     23  C   UNL     1      -2.837   1.014  11.827  0.00  0.00    +0.022 C 
BRANCH  23  24
ATOM     24  C   UNL     1      -3.737   2.183  12.131  0.00  0.00    +0.211 A 
ATOM     25  N   UNL     1      -4.914   2.417  11.605  0.00  0.00    -0.193 NA
ATOM     26  C   UNL     1      -5.344   3.566  12.174  0.00  0.00    +0.202 A 
ATOM     27  N   UNL     1      -4.409   3.963  12.997  0.00  0.00    -0.056 NA
ATOM     28  O   UNL     1      -3.482   3.181  12.984  0.00  0.00    -0.340 OA
BRANCH  26  29
ATOM     29  C   UNL     1      -6.634   4.250  11.909  0.00  0.00    +0.023 A 
ATOM     30  C   UNL     1      -7.537   3.711  10.996  0.00  0.00    +0.013 A 
ATOM     31  C   UNL     1      -8.738   4.348  10.758  0.00  0.00    +0.021 A 
ATOM     32  C   UNL     1      -9.040   5.528  11.415  0.00  0.00    +0.041 A 
ATOM     33  C   UNL     1      -8.143   6.071  12.319  0.00  0.00    +0.021 A 
ATOM     34  C   UNL     1      -6.943   5.438  12.569  0.00  0.00    +0.013 A 
ATOM     35 CL   UNL     1     -10.549   6.329  11.106  0.00  0.00    -0.084 Cl
ENDBRANCH  26  29
ENDBRANCH  23  24
ENDBRANCH   5  23
TORSDOF 7
