REMARK  Name = ZINC04237258
REMARK  6 active torsions:
REMARK  status: ('A' for Active; 'I' for Inactive)
REMARK    1  A    between atoms: C_1  and  C_2
REMARK    2  A    between atoms: N_4  and  C_5
REMARK    3  A    between atoms: C_8  and  S_11
REMARK    4  A    between atoms: S_11  and  N_14
REMARK    5  A    between atoms: C_25  and  C_30
REMARK    6  A    between atoms: C_31  and  C_32
REMARK                            x       y       z     vdW  Elec       q    Type
REMARK                         _______ _______ _______ _____ _____    ______ ____
ROOT
ATOM      1  N   UNL     1      -5.719   2.770  -2.342  0.00  0.00    -0.176 NA
ATOM      2  C   UNL     1      -6.623   1.844  -1.649  0.00  0.00    +0.114 C 
ATOM      3  C   UNL     1      -6.396   1.912  -0.145  0.00  0.00    +0.025 C 
ATOM      4  C   UNL     1      -6.415   3.359   0.349  0.00  0.00    +0.017 C 
ATOM      5  C   UNL     1      -5.311   4.131  -0.377  0.00  0.00    +0.052 C 
ATOM      6  C   UNL     1      -5.650   4.164  -1.877  0.00  0.00    +0.119 C 
ATOM      7  C   UNL     1      -3.993   3.408  -0.220  0.00  0.00    +0.026 A 
ATOM      8  C   UNL     1      -2.859   4.157  -0.317  0.00  0.00    +0.022 A 
ATOM      9  C   UNL     1      -1.601   3.559  -0.286  0.00  0.00    +0.015 A 
ATOM     10  C   UNL     1      -1.524   2.174  -0.174  0.00  0.00    +0.040 A 
ATOM     11  C   UNL     1      -2.727   1.436  -0.059  0.00  0.00    +0.259 A 
ATOM     12  O   UNL     1      -2.685   0.219   0.009  0.00  0.00    -0.267 OA
ATOM     13  N   UNL     1      -3.926   2.070  -0.025  0.00  0.00    -0.311 N 
ATOM     14  C   UNL     1      -5.098   1.244   0.267  0.00  0.00    +0.130 C 
ENDROOT
BRANCH   1  15
ATOM     15  S   UNL     1      -4.796   2.256  -3.617  0.00  0.00    +0.061 S 
ATOM     16  O   UNL     1      -3.749   3.204  -3.769  0.00  0.00    -0.153 OA
ATOM     17  O   UNL     1      -4.547   0.873  -3.407  0.00  0.00    -0.153 OA
BRANCH  15  21
ATOM     18  C   UNL     1      -7.364   2.556  -7.335  0.00  0.00    +0.033 A 
ATOM     19  C   UNL     1      -6.507   3.595  -6.996  0.00  0.00    +0.025 A 
ATOM     20  C   UNL     1      -5.725   3.500  -5.861  0.00  0.00    +0.030 A 
ATOM     21  C   UNL     1      -5.795   2.373  -5.064  0.00  0.00    +0.106 A 
ATOM     22  C   UNL     1      -6.644   1.335  -5.402  0.00  0.00    +0.030 A 
ATOM     23  C   UNL     1      -7.432   1.425  -6.532  0.00  0.00    +0.025 A 
BRANCH  18  27
ATOM     24  C   UNL     1      -8.585   3.487 -10.772  0.00  0.00    +0.109 C 
ATOM     25  C   UNL     1      -7.688   3.278  -9.579  0.00  0.00    +0.214 C 
ATOM     26  O   UNL     1      -6.542   3.676  -9.605  0.00  0.00    -0.276 OA
ATOM     27  N   UNL     1      -8.158   2.650  -8.483  0.00  0.00    -0.286 N 
ATOM     28  H   UNL     1      -9.047   2.262  -8.491  0.00  0.00    +0.155 HD
ENDBRANCH  18  27
ENDBRANCH  15  21
ENDBRANCH   1  15
BRANCH  10  29
ATOM     29  C   UNL     1      -0.222   1.492  -0.168  0.00  0.00    +0.014 C 
ATOM     30  C   UNL     1      -0.167   0.148  -0.172  0.00  0.00    +0.008 C 
BRANCH  30  31
ATOM     31  C   UNL     1       1.133  -0.535  -0.287  0.00  0.00    -0.025 A 
ATOM     32  C   UNL     1       2.318   0.207  -0.293  0.00  0.00    +0.009 A 
ATOM     33  C   UNL     1       3.532  -0.440  -0.395  0.00  0.00    +0.020 A 
ATOM     34  C   UNL     1       3.578  -1.819  -0.504  0.00  0.00    +0.041 A 
ATOM     35  C   UNL     1       2.408  -2.560  -0.505  0.00  0.00    +0.020 A 
ATOM     36  C   UNL     1       1.188  -1.927  -0.398  0.00  0.00    +0.009 A 
ATOM     37 CL   UNL     1       5.110  -2.625  -0.640  0.00  0.00    -0.084 Cl
ENDBRANCH  30  31
ENDBRANCH  10  29
TORSDOF 5
