REMARK  Name = ZINC16557812
REMARK  10 active torsions:
REMARK  status: ('A' for Active; 'I' for Inactive)
REMARK    1  A    between atoms: C_1  and  C_2
REMARK    2  A    between atoms: C_2  and  N_52
REMARK    3  A    between atoms: C_3  and  C_4
REMARK    4  A    between atoms: C_3  and  N_52
REMARK    5  A    between atoms: N_6  and  C_7
REMARK    6  A    between atoms: C_12  and  C_13
REMARK    7  A    between atoms: C_15  and  C_16
REMARK    8  A    between atoms: C_15  and  N_52
REMARK    9  A    between atoms: N_18  and  C_19
REMARK   10  A    between atoms: C_20  and  C_27
REMARK                            x       y       z     vdW  Elec       q    Type
REMARK                         _______ _______ _______ _____ _____    ______ ____
ROOT
ATOM      1  N   UNL     1       3.139   7.404   0.054  0.00  0.00    +0.391 N 
ATOM      2  H   UNL     1       2.492   7.604   0.826  0.00  0.00    -0.080 HD
ENDROOT
BRANCH   1   4
ATOM      3  C   UNL     1       1.040   7.366  -1.200  0.00  0.00    -0.017 C 
ATOM      4  C   UNL     1       2.505   7.808  -1.219  0.00  0.00    -0.081 C 
ENDBRANCH   1   4
BRANCH   1   5
ATOM      5  C   UNL     1       3.432   5.955   0.035  0.00  0.00    +0.020 C 
BRANCH   5   6
ATOM      6  C   UNL     1       3.871   5.530   1.413  0.00  0.00    +0.201 C 
ATOM      7  O   UNL     1       3.854   6.327   2.328  0.00  0.00    -0.278 OA
ATOM      8  N   UNL     1       4.282   4.265   1.629  0.00  0.00    -0.287 N 
ATOM      9  H   UNL     1       4.377   3.652   0.883  0.00  0.00    +0.155 HD
BRANCH   8  10
ATOM     10  C   UNL     1       4.572   3.836   2.929  0.00  0.00    +0.038 A 
ATOM     11  C   UNL     1       3.984   4.467   4.017  0.00  0.00    +0.043 A 
ATOM     12  C   UNL     1       4.273   4.040   5.300  0.00  0.00    +0.043 A 
ATOM     13  C   UNL     1       5.142   2.982   5.499  0.00  0.00    +0.020 A 
ATOM     14  C   UNL     1       5.732   2.356   4.417  0.00  0.00    +0.006 A 
ATOM     15  C   UNL     1       5.448   2.778   3.133  0.00  0.00    -0.029 A 
ATOM     16  C   UNL     1       6.087   2.090   1.954  0.00  0.00    +0.045 C 
ATOM     17 CL   UNL     1       3.538   4.828   6.662  0.00  0.00    -0.083 Cl
ENDBRANCH   8  10
ENDBRANCH   5   6
ENDBRANCH   1   5
BRANCH   1  18
ATOM     18  C   UNL     1       4.386   8.169   0.263  0.00  0.00    +0.020 C 
BRANCH  18  19
ATOM     19  C   UNL     1       4.035   9.616   0.498  0.00  0.00    +0.201 C 
ATOM     20  O   UNL     1       2.875   9.970   0.476  0.00  0.00    -0.278 OA
ATOM     21  N   UNL     1       5.010  10.516   0.733  0.00  0.00    -0.281 N 
ATOM     22  H   UNL     1       5.938  10.233   0.750  0.00  0.00    +0.155 HD
BRANCH  21  23
ATOM     23  C   UNL     1       4.687  11.849   0.949  0.00  0.00    +0.090 A 
ATOM     24  C   UNL     1       5.538  12.908   1.209  0.00  0.00    +0.084 A 
ATOM     25  C   UNL     1       4.938  14.228   1.397  0.00  0.00    -0.018 A 
ATOM     26  C   UNL     1       3.596  14.265   1.303  0.00  0.00    -0.004 A 
ATOM     27  S   UNL     1       3.122  12.587   0.966  0.00  0.00    -0.077 S 
ATOM     28  C   UNL     1       3.054  15.653   1.511  0.00  0.00    +0.043 C 
ATOM     29  C   UNL     1       4.275  16.580   1.322  0.00  0.00    +0.010 C 
ATOM     30  C   UNL     1       5.442  15.642   1.691  0.00  0.00    +0.037 C 
BRANCH  24  31
ATOM     31  C   UNL     1       6.955  12.720   1.287  0.00  0.00    +0.102 C 
ATOM     32  N   UNL     1       8.079  12.570   1.348  0.00  0.00    -0.191 NA
ENDBRANCH  24  31
ENDBRANCH  21  23
ENDBRANCH  18  19
ENDBRANCH   1  18
TORSDOF 8
