REMARK  Name = ZINC34643824
REMARK  7 active torsions:
REMARK  status: ('A' for Active; 'I' for Inactive)
REMARK    1  A    between atoms: C_1  and  C_2
REMARK    2  A    between atoms: C_2  and  C_3
REMARK    3  A    between atoms: C_2  and  C_4
REMARK    4  A    between atoms: C_2  and  N_22
REMARK    5  A    between atoms: N_6  and  C_7
REMARK    6  A    between atoms: C_16  and  C_19
REMARK    7  A    between atoms: C_31  and  C_34
REMARK                            x       y       z     vdW  Elec       q    Type
REMARK                         _______ _______ _______ _____ _____    ______ ____
ROOT
ATOM      1  C   UNL     1       0.110   1.805  -0.239  0.00  0.00    -0.000 C 
ATOM      2  C   UNL     1       0.199   0.292  -0.029  0.00  0.00    +0.007 C 
ATOM      3  C   UNL     1       1.079  -0.003   1.187  0.00  0.00    -0.000 C 
ENDROOT
BRANCH   2   4
ATOM      4  N   UNL     1       0.785  -0.334  -1.222  0.00  0.00    +0.391 N 
ATOM      5  C   UNL     1       0.860  -1.787  -1.023  0.00  0.00    -0.058 C 
ATOM      6  C   UNL     1       1.365  -2.452  -2.308  0.00  0.00    +0.088 C 
ATOM      7  N   UNL     1       2.640  -1.824  -2.688  0.00  0.00    -0.319 N 
ATOM      8  C   UNL     1       2.698  -0.356  -2.753  0.00  0.00    +0.088 C 
ATOM      9  C   UNL     1       2.131   0.210  -1.447  0.00  0.00    -0.058 C 
ATOM     10  C   UNL     1       3.758  -2.597  -2.979  0.00  0.00    +0.121 A 
ATOM     11  C   UNL     1       3.625  -3.974  -3.125  0.00  0.00    +0.044 A 
ATOM     12  C   UNL     1       4.745  -4.731  -3.415  0.00  0.00    +0.017 A 
ATOM     13  C   UNL     1       5.966  -4.083  -3.549  0.00  0.00    +0.073 A 
ATOM     14  C   UNL     1       6.026  -2.713  -3.391  0.00  0.00    +0.125 A 
ATOM     15  N   UNL     1       4.939  -2.016  -3.120  0.00  0.00    -0.240 NA
ATOM     16  H   UNL     1       0.206  -0.136  -2.024  0.00  0.00    -0.080 HD
BRANCH  13  17
ATOM     17  C   UNL     1       7.214  -4.868  -3.864  0.00  0.00    +0.419 C 
ATOM     18  F   UNL     1       7.374  -4.952  -5.251  0.00  0.00    -0.166 F 
ATOM     19  F   UNL     1       8.323  -4.224  -3.304  0.00  0.00    -0.166 F 
ATOM     20  F   UNL     1       7.103  -6.155  -3.328  0.00  0.00    -0.166 F 
ENDBRANCH  13  17
ENDBRANCH   2   4
BRANCH   2  21
ATOM     21  C   UNL     1      -1.182  -0.265   0.203  0.00  0.00    +0.202 C 
ATOM     22  O   UNL     1      -1.589  -0.424   1.334  0.00  0.00    -0.277 OA
ATOM     23  N   UNL     1      -1.964  -0.587  -0.847  0.00  0.00    -0.313 N 
ATOM     24  H   UNL     1      -1.638  -0.460  -1.751  0.00  0.00    +0.149 HD
BRANCH  23  25
ATOM     25  C   UNL     1      -3.306  -1.129  -0.621  0.00  0.00    +0.079 C 
ATOM     26  C   UNL     1      -3.217  -2.641  -0.411  0.00  0.00    +0.011 C 
ATOM     27  C   UNL     1      -2.606  -3.293  -1.653  0.00  0.00    +0.009 C 
ATOM     28  C   UNL     1      -3.486  -2.998  -2.869  0.00  0.00    -0.009 C 
ATOM     29  C   UNL     1      -3.576  -1.485  -3.079  0.00  0.00    +0.009 C 
ATOM     30  C   UNL     1      -4.187  -0.833  -1.837  0.00  0.00    +0.011 C 
ATOM     31  C   UNL     1      -5.588  -1.399  -1.601  0.00  0.00    +0.021 C 
ATOM     32  C   UNL     1      -5.499  -2.912  -1.391  0.00  0.00    +0.048 C 
ATOM     33  C   UNL     1      -4.619  -3.207  -0.175  0.00  0.00    +0.021 C 
ATOM     34  C   UNL     1      -4.888  -3.564  -2.633  0.00  0.00    +0.019 C 
BRANCH  32  35
ATOM     35  C   UNL     1      -6.880  -3.469  -1.159  0.00  0.00    +0.217 C 
ATOM     36  O   UNL     1      -7.841  -2.729  -1.161  0.00  0.00    -0.275 OA
ATOM     37  N   UNL     1      -7.047  -4.790  -0.949  0.00  0.00    -0.329 N 
ATOM     38  H   UNL     1      -6.279  -5.382  -0.947  0.00  0.00    +0.145 HD
ATOM     39  H   UNL     1      -7.936  -5.149  -0.799  0.00  0.00    +0.145 HD
ENDBRANCH  32  35
ENDBRANCH  23  25
ENDBRANCH   2  21
TORSDOF 5
