REMARK  Name = ZINC63362274
REMARK  13 active torsions:
REMARK  status: ('A' for Active; 'I' for Inactive)
REMARK    1  A    between atoms: C_1  and  C_2
REMARK    2  A    between atoms: C_2  and  C_3
REMARK    3  A    between atoms: C_3  and  C_4
REMARK    4  A    between atoms: C_4  and  O_5
REMARK    5  A    between atoms: O_5  and  C_6
REMARK    6  A    between atoms: C_6  and  C_7
REMARK    7  A    between atoms: C_7  and  C_8
REMARK    8  A    between atoms: C_8  and  N_9
REMARK    9  A    between atoms: C_10  and  C_12
REMARK   10  A    between atoms: C_17  and  N_18
REMARK   11  A    between atoms: C_21  and  C_39
REMARK   12  A    between atoms: C_27  and  O_32
REMARK   13  A    between atoms: O_32  and  C_33
REMARK                            x       y       z     vdW  Elec       q    Type
REMARK                         _______ _______ _______ _____ _____    ______ ____
ROOT
ATOM      1  N   UNL     1       3.212 -10.418   6.080  0.00  0.00    -0.192 N 
ATOM      2  C   UNL     1       2.042 -11.089   6.037  0.00  0.00    +0.253 C 
ATOM      3  O   UNL     1       1.089 -10.946   6.771  0.00  0.00    -0.272 OA
ATOM      4  C   UNL     1       2.169 -12.055   4.879  0.00  0.00    +0.137 C 
ATOM      5  C   UNL     1       1.998 -13.495   5.360  0.00  0.00    +0.139 C 
ATOM      6  C   UNL     1       3.354 -14.177   5.238  0.00  0.00    -0.034 C 
ATOM      7  C   UNL     1       3.642 -14.650   6.448  0.00  0.00    +0.003 A 
ATOM      8  C   UNL     1       4.772 -15.450   6.944  0.00  0.00    +0.055 A 
ATOM      9  C   UNL     1       4.764 -15.762   8.269  0.00  0.00    +0.121 A 
ATOM     10  C   UNL     1       3.756 -15.367   9.161  0.00  0.00    +0.047 A 
ATOM     11  C   UNL     1       2.670 -14.632   8.810  0.00  0.00    +0.029 A 
ATOM     12  C   UNL     1       2.563 -14.238   7.399  0.00  0.00    +0.043 A 
ATOM     13  N   UNL     1       1.629 -13.557   6.776  0.00  0.00    -0.375 N 
ATOM     14  C   UNL     1       4.170 -14.194   3.970  0.00  0.00    +0.052 C 
ATOM     15  C   UNL     1       4.269 -12.736   3.478  0.00  0.00    +0.115 C 
ATOM     16  N   UNL     1       3.572 -11.886   4.448  0.00  0.00    -0.268 N 
ATOM     17  C   UNL     1       4.066 -10.851   5.142  0.00  0.00    +0.317 C 
ATOM     18  O   UNL     1       5.162 -10.364   4.946  0.00  0.00    -0.252 OA
ATOM     19  C   UNL     1       1.192 -11.707   3.754  0.00  0.00    +0.044 C 
ATOM     20  H   UNL     1       0.838 -13.161   7.173  0.00  0.00    +0.160 HD
ENDROOT
BRANCH   1  26
ATOM     21  C   UNL     1       3.250  -8.059   6.641  0.00  0.00    +0.059 A 
ATOM     22  C   UNL     1       3.534  -7.045   7.558  0.00  0.00    +0.015 A 
ATOM     23  C   UNL     1       4.058  -7.362   8.793  0.00  0.00    +0.001 A 
ATOM     24  C   UNL     1       4.306  -8.682   9.129  0.00  0.00    +0.002 A 
ATOM     25  C   UNL     1       4.030  -9.695   8.232  0.00  0.00    +0.025 A 
ATOM     26  C   UNL     1       3.497  -9.395   6.987  0.00  0.00    +0.058 A 
BRANCH  21  28
ATOM     27  N   UNL     1       2.536  -6.437   4.955  0.00  0.00    -0.311 N 
ATOM     28  C   UNL     1       2.688  -7.726   5.317  0.00  0.00    +0.246 C 
ATOM     29  O   UNL     1       2.363  -8.615   4.554  0.00  0.00    -0.270 OA
ATOM     30  H   UNL     1       2.726  -5.729   5.589  0.00  0.00    +0.149 HD
BRANCH  27  31
ATOM     31  C   UNL     1       2.081  -6.106   3.602  0.00  0.00    +0.107 C 
BRANCH  31  32
ATOM     32  C   UNL     1       2.110  -4.588   3.412  0.00  0.00    +0.047 C 
BRANCH  32  33
ATOM     33  C   UNL     1       1.525  -4.234   2.043  0.00  0.00    +0.161 C 
BRANCH  33  34
ATOM     34  O   UNL     1       1.449  -2.814   1.910  0.00  0.00    -0.380 OA
BRANCH  34  35
ATOM     35  C   UNL     1       0.913  -2.375   0.660  0.00  0.00    +0.160 C 
BRANCH  35  36
ATOM     36  C   UNL     1       0.879  -0.845   0.629  0.00  0.00    +0.028 C 
BRANCH  36  38
ATOM     37  C   UNL     1       0.271   1.154  -0.741  0.00  0.00    +0.004 C 
ATOM     38  C   UNL     1       0.306  -0.375  -0.710  0.00  0.00    -0.001 C 
ENDBRANCH  36  38
ENDBRANCH  35  36
ENDBRANCH  34  35
ENDBRANCH  33  34
ENDBRANCH  32  33
ENDBRANCH  31  32
ENDBRANCH  27  31
ENDBRANCH  21  28
ENDBRANCH   1  26
BRANCH   9  39
ATOM     39  O   UNL     1       5.795 -16.500   8.757  0.00  0.00    -0.495 OA
ATOM     40  C   UNL     1       5.719 -16.894  10.129  0.00  0.00    +0.277 C 
ENDBRANCH   9  39
TORSDOF 10
