REMARK  Name = ZINC35862878
REMARK  12 active torsions:
REMARK  status: ('A' for Active; 'I' for Inactive)
REMARK    1  A    between atoms: C_1  and  C_2
REMARK    2  A    between atoms: C_6  and  C_8
REMARK    3  A    between atoms: C_12  and  O_26
REMARK    4  A    between atoms: C_19  and  C_21
REMARK    5  A    between atoms: O_26  and  C_27
REMARK    6  A    between atoms: C_27  and  C_28
REMARK    7  A    between atoms: C_30  and  C_33
REMARK    8  A    between atoms: N_35  and  C_36
REMARK    9  A    between atoms: C_36  and  C_37
REMARK   10  A    between atoms: C_37  and  N_38
REMARK   11  A    between atoms: N_38  and  C_39
REMARK   12  A    between atoms: N_38  and  C_40
REMARK                            x       y       z     vdW  Elec       q    Type
REMARK                         _______ _______ _______ _____ _____    ______ ____
ROOT
ATOM      1  C   UNL     1       0.054  -2.845   2.489  0.00  0.00    +0.137 C 
ATOM      2  C   UNL     1      -1.357  -3.221   2.867  0.00  0.00    -0.016 A 
ATOM      3  C   UNL     1      -2.204  -2.208   3.292  0.00  0.00    +0.051 A 
ATOM      4  C   UNL     1      -3.514  -2.489   3.643  0.00  0.00    +0.122 A 
ATOM      5  C   UNL     1      -3.978  -3.795   3.568  0.00  0.00    +0.046 A 
ATOM      6  C   UNL     1      -3.132  -4.799   3.150  0.00  0.00    +0.007 A 
ATOM      7  C   UNL     1      -1.815  -4.518   2.803  0.00  0.00    -0.040 A 
ATOM      8  C   UNL     1      -0.944  -5.673   2.382  0.00  0.00    +0.054 C 
ATOM      9  C   UNL     1       0.268  -5.180   1.593  0.00  0.00    +0.113 C 
ATOM     10  N   UNL     1       0.864  -4.058   2.334  0.00  0.00    -0.290 N 
ATOM     11  C   UNL     1       2.106  -4.141   2.851  0.00  0.00    +0.219 C 
ATOM     12  O   UNL     1       2.575  -3.201   3.457  0.00  0.00    -0.275 OA
ENDROOT
BRANCH   1  18
ATOM     13  C   UNL     1       1.245   1.227  -0.167  0.00  0.00    +0.044 C 
ATOM     14  C   UNL     1       0.607  -0.136  -0.083  0.00  0.00    -0.050 A 
ATOM     15  C   UNL     1       0.006  -0.688  -1.199  0.00  0.00    +0.003 A 
ATOM     16  C   UNL     1      -0.579  -1.938  -1.121  0.00  0.00    +0.001 A 
ATOM     17  C   UNL     1      -0.564  -2.636   0.072  0.00  0.00    +0.006 A 
ATOM     18  C   UNL     1       0.037  -2.084   1.188  0.00  0.00    -0.022 A 
ATOM     19  C   UNL     1       0.627  -0.836   1.109  0.00  0.00    +0.009 A 
ENDBRANCH   1  18
BRANCH  11  20
ATOM     20  C   UNL     1       2.912  -5.402   2.675  0.00  0.00    +0.075 C 
ATOM     21  C   UNL     1       2.207  -6.582   3.374  0.00  0.00    +0.013 C 
ATOM     22  C   UNL     1       3.367  -7.423   3.963  0.00  0.00    +0.001 C 
ATOM     23  C   UNL     1       4.368  -6.340   4.437  0.00  0.00    +0.001 C 
ATOM     24  C   UNL     1       4.286  -5.248   3.350  0.00  0.00    +0.013 C 
ENDBRANCH  11  20
BRANCH   4  25
ATOM     25  O   UNL     1      -4.338  -1.493   4.060  0.00  0.00    -0.483 OA
BRANCH  25  26
ATOM     26  C   UNL     1      -5.676  -1.860   4.406  0.00  0.00    +0.324 C 
BRANCH  26  27
ATOM     27  C   UNL     1      -6.436  -0.634   4.841  0.00  0.00    +0.234 A 
ATOM     28  N   UNL     1      -7.125   0.141   4.058  0.00  0.00    -0.206 NA
ATOM     29  C   UNL     1      -7.668   1.139   4.808  0.00  0.00    +0.164 A 
ATOM     30  C   UNL     1      -7.274   0.933   6.094  0.00  0.00    +0.230 A 
ATOM     31  O   UNL     1      -6.514  -0.174   6.098  0.00  0.00    -0.444 OA
BRANCH  29  32
ATOM     32  C   UNL     1      -8.521   2.237   4.319  0.00  0.00    +0.265 C 
ATOM     33  O   UNL     1      -8.944   3.071   5.096  0.00  0.00    -0.268 OA
ATOM     34  N   UNL     1      -8.832   2.317   3.010  0.00  0.00    -0.312 N 
ATOM     35  H   UNL     1      -8.494   1.652   2.390  0.00  0.00    +0.149 HD
BRANCH  34  36
ATOM     36  C   UNL     1      -9.680   3.408   2.524  0.00  0.00    +0.086 C 
BRANCH  36  37
ATOM     37  C   UNL     1      -9.878   3.266   1.013  0.00  0.00    -0.061 C 
BRANCH  37  38
ATOM     38  N   UNL     1     -10.728   4.360   0.526  0.00  0.00    +0.377 N 
ATOM     39  C   UNL     1     -10.032   5.640   0.708  0.00  0.00    -0.097 C 
ATOM     40  C   UNL     1     -11.017   4.158  -0.901  0.00  0.00    -0.097 C 
ATOM     41  H   UNL     1     -11.593   4.371   1.045  0.00  0.00    -0.083 HD
ENDBRANCH  37  38
ENDBRANCH  36  37
ENDBRANCH  34  36
ENDBRANCH  29  32
ENDBRANCH  26  27
ENDBRANCH  25  26
ENDBRANCH   4  25
TORSDOF 9
