REMARK  Name = ZINC13098182
REMARK  5 active torsions:
REMARK  status: ('A' for Active; 'I' for Inactive)
REMARK    1  A    between atoms: C_3  and  N_17
REMARK    2  A    between atoms: C_6  and  C_7
REMARK    3  A    between atoms: C_18  and  C_20
REMARK    4  A    between atoms: C_22  and  S_27
REMARK    5  A    between atoms: S_27  and  N_30
REMARK                            x       y       z     vdW  Elec       q    Type
REMARK                         _______ _______ _______ _____ _____    ______ ____
ROOT
ATOM      1  N   UNL     1      -3.751  -0.722   3.188  0.00  0.00    -0.281 N 
ATOM      2  C   UNL     1      -4.046   0.590   3.103  0.00  0.00    +0.250 C 
ATOM      3  O   UNL     1      -5.115   1.001   3.513  0.00  0.00    -0.270 OA
ATOM      4  H   UNL     1      -2.933  -1.061   2.793  0.00  0.00    +0.155 HD
ENDROOT
BRANCH   2   5
ATOM      5  C   UNL     1      -3.072   1.530   2.510  0.00  0.00    +0.057 A 
ATOM      6  C   UNL     1      -1.844   1.062   2.038  0.00  0.00    +0.043 A 
ATOM      7  C   UNL     1      -0.940   1.944   1.486  0.00  0.00    +0.106 A 
ATOM      8  C   UNL     1      -1.244   3.292   1.404  0.00  0.00    +0.030 A 
ATOM      9  C   UNL     1      -2.459   3.763   1.864  0.00  0.00    +0.022 A 
ATOM     10  C   UNL     1      -3.376   2.891   2.420  0.00  0.00    +0.053 A 
ATOM     11 CL   UNL     1      -4.899   3.484   3.003  0.00  0.00    -0.083 Cl
BRANCH   7  12
ATOM     12  S   UNL     1       0.610   1.355   0.890  0.00  0.00    +0.056 S 
ATOM     13  O   UNL     1       0.878   0.143   1.582  0.00  0.00    -0.153 OA
ATOM     14  O   UNL     1       1.502   2.461   0.916  0.00  0.00    -0.153 OA
BRANCH  12  15
ATOM     15  N   UNL     1       0.401   0.954  -0.703  0.00  0.00    -0.204 NA
ATOM     16  H   UNL     1      -0.466   1.068  -1.123  0.00  0.00    +0.144 HD
ATOM     17  H   UNL     1       1.147   0.606  -1.218  0.00  0.00    +0.144 HD
ENDBRANCH  12  15
ENDBRANCH   7  12
ENDBRANCH   2   5
BRANCH   1  20
ATOM     18  C   UNL     1      -5.516  -3.799   4.140  0.00  0.00    +0.013 A 
ATOM     19  C   UNL     1      -4.657  -2.937   3.493  0.00  0.00    +0.024 A 
ATOM     20  C   UNL     1      -4.623  -1.593   3.846  0.00  0.00    +0.034 A 
ATOM     21  C   UNL     1      -5.450  -1.115   4.855  0.00  0.00    +0.024 A 
ATOM     22  C   UNL     1      -6.316  -1.970   5.502  0.00  0.00    +0.013 A 
ATOM     23  C   UNL     1      -6.353  -3.321   5.150  0.00  0.00    +0.019 A 
BRANCH  23  24
ATOM     24  C   UNL     1      -7.276  -4.242   5.845  0.00  0.00    +0.164 A 
ATOM     25  N   UNL     1      -7.681  -5.420   5.417  0.00  0.00    -0.129 NA
ATOM     26  N   UNL     1      -8.473  -5.949   6.282  0.00  0.00    -0.134 NA
ATOM     27  C   UNL     1      -8.622  -5.146   7.298  0.00  0.00    +0.134 A 
ATOM     28  N   UNL     1      -7.878  -4.034   7.052  0.00  0.00    -0.311 N 
ATOM     29  C   UNL     1      -7.764  -2.855   7.910  0.00  0.00    +0.125 C 
ATOM     30  C   UNL     1      -7.988  -3.265   9.368  0.00  0.00    +0.022 C 
ATOM     31  C   UNL     1      -9.475  -3.179   9.706  0.00  0.00    +0.002 C 
ATOM     32  C   UNL     1     -10.280  -4.134   8.831  0.00  0.00    +0.008 C 
ATOM     33  C   UNL     1      -9.449  -5.386   8.535  0.00  0.00    +0.076 C 
ENDBRANCH  23  24
ENDBRANCH   1  20
TORSDOF 5
