REMARK  Name = ZINC05092736
REMARK  10 active torsions:
REMARK  status: ('A' for Active; 'I' for Inactive)
REMARK    1  A    between atoms: C_1  and  C_2
REMARK    2  A    between atoms: C_2  and  C_3
REMARK    3  A    between atoms: C_3  and  C_5
REMARK    4  A    between atoms: C_3  and  C_6
REMARK    5  A    between atoms: C_9  and  O_12
REMARK    6  A    between atoms: O_12  and  C_13
REMARK    7  A    between atoms: C_13  and  C_14
REMARK    8  A    between atoms: C_14  and  N_15
REMARK    9  A    between atoms: C_19  and  C_20
REMARK   10  A    between atoms: N_21  and  N_22
REMARK                            x       y       z     vdW  Elec       q    Type
REMARK                         _______ _______ _______ _____ _____    ______ ____
ROOT
ATOM      1  N   UNL     1       4.236   7.264  -0.005  0.00  0.00    -0.343 N 
ATOM      2  C   UNL     1       5.589   7.427  -0.011  0.00  0.00    +0.086 A 
ATOM      3  C   UNL     1       6.169   6.206  -0.024  0.00  0.00    +0.020 A 
ATOM      4  C   UNL     1       5.147   5.246  -0.019  0.00  0.00    +0.029 A 
ATOM      5  C   UNL     1       3.957   5.919  -0.004  0.00  0.00    +0.062 A 
ENDROOT
BRANCH   5   6
ATOM      6  C   UNL     1       2.620   5.313   0.006  0.00  0.00    +0.156 C 
ATOM      7  N   UNL     1       2.494   4.018  -0.000  0.00  0.00    -0.187 NA
BRANCH   7   8
ATOM      8  N   UNL     1       1.218   3.439   0.009  0.00  0.00    -0.215 N 
ATOM      9  C   UNL     1       1.083   2.067   0.003  0.00  0.00    +0.179 A 
ATOM     10  N   UNL     1      -0.016   1.346   0.009  0.00  0.00    -0.224 NA
ATOM     11  C   UNL     1       0.002  -0.004   0.002  0.00  0.00    +0.080 A 
ATOM     12  C   UNL     1      -1.099  -0.892   0.007  0.00  0.00    +0.029 A 
ATOM     13  C   UNL     1      -0.904  -2.248  -0.003  0.00  0.00    +0.002 A 
ATOM     14  C   UNL     1       0.369  -2.798  -0.018  0.00  0.00    +0.001 A 
ATOM     15  C   UNL     1       1.469  -1.959  -0.023  0.00  0.00    +0.017 A 
ATOM     16  C   UNL     1       1.284  -0.600  -0.013  0.00  0.00    +0.041 A 
ATOM     17  S   UNL     1       2.359   0.815  -0.016  0.00  0.00    -0.051 S 
ATOM     18  H   UNL     1       0.429   4.004   0.019  0.00  0.00    +0.176 HD
ENDBRANCH   7   8
ENDBRANCH   5   6
BRANCH   1  19
ATOM     19  C   UNL     1       3.245   8.343   0.004  0.00  0.00    +0.163 C 
BRANCH  19  20
ATOM     20  C   UNL     1       2.818   8.632   1.444  0.00  0.00    +0.250 C 
BRANCH  20  21
ATOM     21  O   UNL     1       1.851   9.685   1.452  0.00  0.00    -0.490 OA
BRANCH  21  25
ATOM     22  C   UNL     1       0.376  10.844   5.126  0.00  0.00    -0.044 A 
ATOM     23  C   UNL     1      -0.068  11.469   3.976  0.00  0.00    +0.007 A 
ATOM     24  C   UNL     1       0.424  11.083   2.744  0.00  0.00    +0.046 A 
ATOM     25  C   UNL     1       1.365  10.067   2.663  0.00  0.00    +0.121 A 
ATOM     26  C   UNL     1       1.806   9.438   3.818  0.00  0.00    +0.046 A 
ATOM     27  C   UNL     1       1.315   9.832   5.048  0.00  0.00    +0.007 A 
BRANCH  22  28
ATOM     28  C   UNL     1      -0.163  11.268   6.468  0.00  0.00    +0.016 C 
ATOM     29  C   UNL     1      -0.846  10.077   7.143  0.00  0.00    +0.012 C 
BRANCH  28  31
ATOM     30  C   UNL     1       0.428  12.306   8.663  0.00  0.00    +0.004 C 
ATOM     31  C   UNL     1       0.988  11.760   7.348  0.00  0.00    +0.004 C 
ENDBRANCH  28  31
ENDBRANCH  22  28
ENDBRANCH  21  25
ENDBRANCH  20  21
ENDBRANCH  19  20
ENDBRANCH   1  19
TORSDOF 8
