REMARK  Name = ZINC64045087
REMARK  5 active torsions:
REMARK  status: ('A' for Active; 'I' for Inactive)
REMARK    1  A    between atoms: C_1  and  C_2
REMARK    2  A    between atoms: C_4  and  C_8
REMARK    3  A    between atoms: N_5  and  C_7
REMARK    4  A    between atoms: C_23  and  C_25
REMARK    5  A    between atoms: C_29  and  C_31
REMARK                            x       y       z     vdW  Elec       q    Type
REMARK                         _______ _______ _______ _____ _____    ______ ____
ROOT
ATOM      1  C   UNL     1       2.060  -4.100  -1.417  0.00  0.00    +0.265 C 
ATOM      2  O   UNL     1       1.630  -3.812  -2.517  0.00  0.00    -0.268 OA
ATOM      3  N   UNL     1       1.259  -4.709  -0.519  0.00  0.00    -0.287 N 
ATOM      4  C   UNL     1       1.693  -4.827   0.877  0.00  0.00    +0.113 C 
ATOM      5  C   UNL     1       0.652  -4.160   1.795  0.00  0.00    +0.052 C 
ATOM      6  C   UNL     1      -0.703  -4.628   1.325  0.00  0.00    -0.035 C 
ATOM      7  C   UNL     1      -1.718  -5.176   1.981  0.00  0.00    -0.001 A 
ATOM      8  C   UNL     1      -1.937  -5.427   3.414  0.00  0.00    +0.010 A 
ATOM      9  C   UNL     1      -3.106  -6.037   3.744  0.00  0.00    +0.001 A 
ATOM     10  C   UNL     1      -4.067  -6.419   2.803  0.00  0.00    +0.002 A 
ATOM     11  C   UNL     1      -3.952  -6.221   1.465  0.00  0.00    +0.026 A 
ATOM     12  C   UNL     1      -2.768  -5.579   0.997  0.00  0.00    +0.043 A 
ATOM     13  N   UNL     1      -2.413  -5.248  -0.209  0.00  0.00    -0.375 N 
ATOM     14  C   UNL     1      -1.131  -4.544  -0.135  0.00  0.00    +0.131 C 
ATOM     15  C   UNL     1      -0.043  -5.242  -0.949  0.00  0.00    +0.133 C 
ATOM     16  H   UNL     1      -2.911  -5.435  -1.020  0.00  0.00    +0.160 HD
ENDROOT
BRANCH   1  20
ATOM     17  C   UNL     1       6.693  -4.135   0.646  0.00  0.00    +0.067 C 
ATOM     18  C   UNL     1       5.479  -3.787  -0.176  0.00  0.00    +0.061 A 
ATOM     19  C   UNL     1       4.253  -4.458  -0.157  0.00  0.00    +0.057 A 
ATOM     20  C   UNL     1       3.454  -3.786  -1.066  0.00  0.00    +0.123 A 
ATOM     21  N   UNL     1       4.218  -2.773  -1.571  0.00  0.00    -0.262 N 
ATOM     22  N   UNL     1       5.383  -2.800  -1.030  0.00  0.00    -0.176 NA
ATOM     23  C   UNL     1       3.775  -1.800  -2.573  0.00  0.00    +0.173 C 
ENDBRANCH   1  20
BRANCH  15  24
ATOM     24  C   UNL     1      -0.249  -4.965  -2.416  0.00  0.00    -0.024 A 
ATOM     25  C   UNL     1      -1.136  -3.982  -2.816  0.00  0.00    +0.005 A 
ATOM     26  C   UNL     1      -1.325  -3.728  -4.161  0.00  0.00    +0.001 A 
ATOM     27  C   UNL     1      -0.627  -4.456  -5.107  0.00  0.00    +0.012 A 
ATOM     28  C   UNL     1       0.260  -5.437  -4.707  0.00  0.00    +0.055 A 
ATOM     29  C   UNL     1       0.453  -5.689  -3.361  0.00  0.00    +0.018 A 
BRANCH  28  30
ATOM     30  C   UNL     1       1.021  -6.231  -5.738  0.00  0.00    +0.417 C 
ATOM     31  F   UNL     1       0.663  -5.796  -7.019  0.00  0.00    -0.166 F 
ATOM     32  F   UNL     1       2.395  -6.045  -5.549  0.00  0.00    -0.166 F 
ATOM     33  F   UNL     1       0.712  -7.588  -5.603  0.00  0.00    -0.166 F 
ENDBRANCH  28  30
ENDBRANCH  15  24
TORSDOF 3
