REMARK  Name = ZINC50161304
REMARK  6 active torsions:
REMARK  status: ('A' for Active; 'I' for Inactive)
REMARK    1  A    between atoms: C_1  and  C_2
REMARK    2  A    between atoms: C_2  and  C_3
REMARK    3  A    between atoms: C_3  and  C_5
REMARK    4  A    between atoms: C_3  and  O_13
REMARK    5  A    between atoms: C_5  and  C_7
REMARK    6  A    between atoms: O_13  and  C_14
REMARK                            x       y       z     vdW  Elec       q    Type
REMARK                         _______ _______ _______ _____ _____    ______ ____
ROOT
ATOM      1  C   UNL     1      -1.445  -0.542   0.017  0.00  0.00    +0.244 C 
ENDROOT
BRANCH   1   3
ATOM      2  C   UNL     1       0.100   1.420  -0.058  0.00  0.00    +0.008 C 
ATOM      3  C   UNL     1       0.021  -0.107  -0.023  0.00  0.00    +0.049 C 
ENDBRANCH   1   3
BRANCH   1   4
ATOM      4  C   UNL     1      -1.522  -2.038   0.175  0.00  0.00    +0.203 C 
ATOM      5  O   UNL     1      -1.730  -2.740  -0.791  0.00  0.00    -0.288 OA
BRANCH   4   6
ATOM      6  C   UNL     1      -1.343  -2.648   1.503  0.00  0.00    +0.021 A 
ATOM      7  C   UNL     1      -1.109  -1.841   2.621  0.00  0.00    +0.011 A 
ATOM      8  C   UNL     1      -0.943  -2.420   3.861  0.00  0.00    +0.001 A 
ATOM      9  C   UNL     1      -1.009  -3.795   4.002  0.00  0.00    +0.000 A 
ATOM     10  C   UNL     1      -1.240  -4.600   2.900  0.00  0.00    +0.001 A 
ATOM     11  C   UNL     1      -1.414  -4.036   1.654  0.00  0.00    +0.011 A 
ENDBRANCH   4   6
ENDBRANCH   1   4
BRANCH   1  12
ATOM     12  O   UNL     1      -2.089  -0.158  -1.200  0.00  0.00    -0.480 OA
BRANCH  12  13
ATOM     13  C   UNL     1      -2.834   0.979  -1.172  0.00  0.00    +0.140 A 
ATOM     14  C   UNL     1      -2.848   1.772  -0.035  0.00  0.00    +0.050 A 
ATOM     15  C   UNL     1      -3.605   2.928  -0.008  0.00  0.00    +0.042 A 
ATOM     16  C   UNL     1      -4.349   3.295  -1.116  0.00  0.00    +0.125 A 
ATOM     17  C   UNL     1      -4.337   2.505  -2.253  0.00  0.00    +0.062 A 
ATOM     18  C   UNL     1      -3.576   1.351  -2.285  0.00  0.00    +0.085 A 
ATOM     19 CL   UNL     1      -3.555   0.364  -3.712  0.00  0.00    -0.080 Cl
ATOM     20  F   UNL     1      -5.089   4.425  -1.088  0.00  0.00    -0.205 F 
ENDBRANCH  12  13
ENDBRANCH   1  12
TORSDOF 5
