REMARK  Name = ZINC40378661
REMARK  4 active torsions:
REMARK  status: ('A' for Active; 'I' for Inactive)
REMARK    1  A    between atoms: C_3  and  N_12
REMARK    2  A    between atoms: C_6  and  S_7
REMARK    3  A    between atoms: S_7  and  N_10
REMARK    4  A    between atoms: C_13  and  C_15
REMARK                            x       y       z     vdW  Elec       q    Type
REMARK                         _______ _______ _______ _____ _____    ______ ____
ROOT
ATOM      1  C   UNL     1      -0.019   1.391  -0.018  0.00  0.00    +0.030 A 
ATOM      2  C   UNL     1       1.169   2.095  -0.015  0.00  0.00    +0.026 A 
ATOM      3  C   UNL     1       2.379   1.414  -0.023  0.00  0.00    +0.048 A 
ATOM      4  C   UNL     1       2.390   0.024  -0.033  0.00  0.00    +0.041 A 
ATOM      5  C   UNL     1       1.198  -0.674  -0.036  0.00  0.00    +0.045 A 
ATOM      6  C   UNL     1      -0.005   0.008  -0.028  0.00  0.00    +0.106 A 
ATOM      7 BR   UNL     1       4.034  -0.909  -0.045  0.00  0.00    -0.048 Br
ENDROOT
BRANCH   3   8
ATOM      8  N   UNL     1       3.583   2.125  -0.021  0.00  0.00    -0.278 N 
ATOM      9  C   UNL     1       3.627   3.376   0.478  0.00  0.00    +0.284 C 
ATOM     10  O   UNL     1       2.644   3.850   1.018  0.00  0.00    -0.266 OA
ATOM     11  H   UNL     1       4.387   1.717  -0.379  0.00  0.00    +0.155 HD
BRANCH   9  12
ATOM     12  C   UNL     1       4.857   4.165   0.371  0.00  0.00    +0.191 A 
ATOM     13  C   UNL     1       5.038   5.436   0.836  0.00  0.00    +0.056 A 
ATOM     14  C   UNL     1       6.356   5.799   0.520  0.00  0.00    +0.058 A 
ATOM     15  C   UNL     1       6.916   4.745  -0.118  0.00  0.00    +0.171 A 
ATOM     16  O   UNL     1       6.011   3.761  -0.200  0.00  0.00    -0.444 OA
ATOM     17 BR   UNL     1       8.687   4.671  -0.776  0.00  0.00    -0.008 Br
ENDBRANCH   9  12
ENDBRANCH   3   8
BRANCH   6  18
ATOM     18  S   UNL     1      -1.523  -0.886  -0.030  0.00  0.00    +0.056 S 
ATOM     19  O   UNL     1      -1.239  -2.170   0.510  0.00  0.00    -0.153 OA
ATOM     20  O   UNL     1      -2.504  -0.024   0.530  0.00  0.00    -0.153 OA
BRANCH  18  21
ATOM     21  N   UNL     1      -1.950  -1.123  -1.613  0.00  0.00    -0.204 NA
ATOM     22  H   UNL     1      -2.459  -1.909  -1.865  0.00  0.00    +0.144 HD
ATOM     23  H   UNL     1      -1.689  -0.476  -2.287  0.00  0.00    +0.144 HD
ENDBRANCH  18  21
ENDBRANCH   6  18
TORSDOF 4
