REMARK  Name = ZINC33253274
REMARK  12 active torsions:
REMARK  status: ('A' for Active; 'I' for Inactive)
REMARK    1  A    between atoms: C_1  and  C_2
REMARK    2  A    between atoms: C_2  and  C_3
REMARK    3  A    between atoms: C_3  and  N_4
REMARK    4  A    between atoms: C_5  and  C_7
REMARK    5  A    between atoms: C_7  and  N_8
REMARK    6  A    between atoms: N_11  and  C_14
REMARK    7  A    between atoms: C_17  and  C_32
REMARK    8  A    between atoms: C_19  and  N_20
REMARK    9  A    between atoms: N_20  and  S_21
REMARK   10  A    between atoms: S_21  and  C_24
REMARK   11  A    between atoms: C_27  and  C_31
REMARK   12  A    between atoms: C_29  and  C_30
REMARK                            x       y       z     vdW  Elec       q    Type
REMARK                         _______ _______ _______ _____ _____    ______ ____
ROOT
ATOM      1  C   UNL     1       4.335  -6.739  -5.479  0.00  0.00    +0.052 A 
ATOM      2  C   UNL     1       4.785  -7.463  -4.381  0.00  0.00    +0.026 A 
ATOM      3  C   UNL     1       5.775  -8.407  -4.533  0.00  0.00    +0.017 A 
ATOM      4  C   UNL     1       6.332  -8.640  -5.795  0.00  0.00    +0.065 A 
ATOM      5  C   UNL     1       5.881  -7.912  -6.902  0.00  0.00    +0.041 A 
ATOM      6  C   UNL     1       4.883  -6.970  -6.744  0.00  0.00    +0.070 A 
ENDROOT
BRANCH   1  10
ATOM      7  N   UNL     1       1.422  -4.204  -4.050  0.00  0.00    -0.291 NA
ATOM      8  C   UNL     1       2.846  -3.943  -3.798  0.00  0.00    +0.104 C 
ATOM      9  C   UNL     1       3.666  -4.385  -5.015  0.00  0.00    +0.120 C 
ATOM     10  N   UNL     1       3.333  -5.785  -5.319  0.00  0.00    -0.326 N 
ATOM     11  C   UNL     1       1.915  -6.151  -5.450  0.00  0.00    +0.120 C 
ATOM     12  C   UNL     1       1.164  -5.640  -4.216  0.00  0.00    +0.104 C 
BRANCH   7  13
ATOM     13  C   UNL     1       0.587  -3.639  -2.982  0.00  0.00    +0.180 C 
BRANCH  13  15
ATOM     14  N   UNL     1       0.008  -1.399  -2.106  0.00  0.00    -0.314 N 
ATOM     15  C   UNL     1       0.694  -2.135  -3.002  0.00  0.00    +0.227 C 
ATOM     16  O   UNL     1       1.397  -1.589  -3.826  0.00  0.00    -0.274 OA
ATOM     17  H   UNL     1      -0.554  -1.836  -1.447  0.00  0.00    +0.149 HD
BRANCH  14  18
ATOM     18  C   UNL     1       0.112   0.062  -2.126  0.00  0.00    +0.104 C 
BRANCH  18  20
ATOM     19  C   UNL     1      -0.650   2.177  -1.034  0.00  0.00    +0.005 C 
ATOM     20  C   UNL     1      -0.758   0.651  -1.014  0.00  0.00    +0.015 C 
ENDBRANCH  18  20
ENDBRANCH  14  18
ENDBRANCH  13  15
ENDBRANCH   7  13
ENDBRANCH   1  10
BRANCH   4  21
ATOM     21  C   UNL     1       7.391  -9.648  -5.959  0.00  0.00    +0.387 C 
ATOM     22  O   UNL     1       7.786 -10.284  -4.991  0.00  0.00    -0.241 OA
ATOM     23  O   UNL     1       7.878  -9.851  -7.063  0.00  0.00    -0.241 OA
ENDBRANCH   4  21
BRANCH   6  24
ATOM     24  N   UNL     1       4.424  -6.244  -7.850  0.00  0.00    -0.214 N 
ATOM     25  H   UNL     1       4.159  -5.316  -7.745  0.00  0.00    +0.174 HD
BRANCH  24  26
ATOM     26  S   UNL     1       4.334  -6.967  -9.337  0.00  0.00    +0.073 S 
ATOM     27  O   UNL     1       3.708  -6.033 -10.206  0.00  0.00    -0.150 OA
ATOM     28  O   UNL     1       5.620  -7.511  -9.602  0.00  0.00    -0.150 OA
BRANCH  26  29
ATOM     29  C   UNL     1       3.231  -8.333  -9.186  0.00  0.00    +0.111 A 
ATOM     30  C   UNL     1       3.704  -9.623  -9.335  0.00  0.00    +0.029 A 
ATOM     31  C   UNL     1       2.839 -10.694  -9.217  0.00  0.00    +0.005 A 
ATOM     32  C   UNL     1       1.501 -10.476  -8.949  0.00  0.00    -0.050 A 
ATOM     33  C   UNL     1       1.028  -9.186  -8.799  0.00  0.00    +0.008 A 
ATOM     34  C   UNL     1       1.894  -8.114  -8.913  0.00  0.00    -0.024 A 
ATOM     35  C   UNL     1       1.379  -6.708  -8.744  0.00  0.00    +0.046 C 
ATOM     36  C   UNL     1       0.557 -11.644  -8.821  0.00  0.00    +0.044 C 
ENDBRANCH  26  29
ENDBRANCH  24  26
ENDBRANCH   6  24
TORSDOF 9
