REMARK  Name = ZINC01504235
REMARK  3 active torsions:
REMARK  status: ('A' for Active; 'I' for Inactive)
REMARK    1  A    between atoms: C_4  and  C_7
REMARK    2  A    between atoms: N_13  and  C_14
REMARK    3  A    between atoms: C_14  and  C_15
REMARK                            x       y       z     vdW  Elec       q    Type
REMARK                         _______ _______ _______ _____ _____    ______ ____
ROOT
ATOM      1  C   UNL     1      -3.730   2.051   2.114  0.00  0.00    +0.052 A 
ATOM      2  C   UNL     1      -3.788   1.847   3.474  0.00  0.00    +0.026 A 
ATOM      3  C   UNL     1      -3.333   0.641   4.014  0.00  0.00    +0.007 A 
ATOM      4  C   UNL     1      -2.836  -0.321   3.182  0.00  0.00    +0.070 A 
ATOM      5  C   UNL     1      -2.794  -0.089   1.798  0.00  0.00    +0.252 A 
ATOM      6  O   UNL     1      -2.356  -0.949   1.051  0.00  0.00    -0.268 OA
ATOM      7  N   UNL     1      -3.231   1.079   1.292  0.00  0.00    -0.304 N 
ENDROOT
BRANCH   1  11
ATOM      8  C   UNL     1      -5.112   5.712   0.463  0.00  0.00    +0.000 A 
ATOM      9  C   UNL     1      -3.843   5.253   0.155  0.00  0.00    +0.001 A 
ATOM     10  C   UNL     1      -3.388   4.065   0.688  0.00  0.00    +0.010 A 
ATOM     11  C   UNL     1      -4.211   3.325   1.539  0.00  0.00    -0.001 A 
ATOM     12  C   UNL     1      -5.492   3.791   1.841  0.00  0.00    +0.010 A 
ATOM     13  C   UNL     1      -5.932   4.984   1.306  0.00  0.00    +0.001 A 
ENDBRANCH   1  11
BRANCH   7  14
ATOM     14  C   UNL     1      -3.176   1.310  -0.154  0.00  0.00    +0.162 C 
BRANCH  14  15
ATOM     15  C   UNL     1      -4.112   0.356  -0.851  0.00  0.00    -0.009 A 
ATOM     16  C   UNL     1      -3.624  -0.815  -1.400  0.00  0.00    +0.009 A 
ATOM     17  C   UNL     1      -4.481  -1.687  -2.043  0.00  0.00    +0.039 A 
ATOM     18  C   UNL     1      -5.830  -1.391  -2.134  0.00  0.00    +0.125 A 
ATOM     19  C   UNL     1      -6.320  -0.221  -1.580  0.00  0.00    +0.058 A 
ATOM     20  C   UNL     1      -5.461   0.651  -0.936  0.00  0.00    +0.049 A 
ATOM     21 CL   UNL     1      -6.075   2.118  -0.240  0.00  0.00    -0.083 Cl
ATOM     22  F   UNL     1      -6.668  -2.244  -2.764  0.00  0.00    -0.205 F 
ENDBRANCH  14  15
ENDBRANCH   7  14
TORSDOF 3
