REMARK  Name = ZINC03379308
REMARK  13 active torsions:
REMARK  status: ('A' for Active; 'I' for Inactive)
REMARK    1  A    between atoms: C_1  and  C_2
REMARK    2  A    between atoms: C_2  and  C_4
REMARK    3  A    between atoms: C_2  and  N_30
REMARK    4  A    between atoms: C_7  and  S_16
REMARK    5  A    between atoms: N_8  and  C_9
REMARK    6  A    between atoms: S_16  and  C_17
REMARK    7  A    between atoms: C_17  and  C_18
REMARK    8  A    between atoms: N_20  and  C_21
REMARK    9  A    between atoms: C_24  and  N_27
REMARK   10  A    between atoms: N_27  and  C_28
REMARK   11  A    between atoms: N_27  and  C_29
REMARK   12  A    between atoms: N_30  and  C_31
REMARK   13  A    between atoms: N_30  and  C_32
REMARK                            x       y       z     vdW  Elec       q    Type
REMARK                         _______ _______ _______ _____ _____    ______ ____
ROOT
ATOM      1  C   UNL     1      -1.404  -0.549   0.024  0.00  0.00    +0.125 A 
ATOM      2  N   UNL     1      -2.214  -0.567   1.045  0.00  0.00    -0.135 NA
ATOM      3  N   UNL     1      -3.344  -1.075   0.705  0.00  0.00    -0.122 NA
ATOM      4  C   UNL     1      -3.319  -1.413  -0.564  0.00  0.00    +0.197 A 
ATOM      5  N   UNL     1      -2.080  -1.082  -1.042  0.00  0.00    -0.275 N 
ENDROOT
BRANCH   5   6
ATOM      6  C   UNL     1      -1.602  -1.255  -2.349  0.00  0.00    +0.050 A 
ATOM      7  C   UNL     1      -1.277  -0.150  -3.123  0.00  0.00    +0.028 A 
ATOM      8  C   UNL     1      -0.806  -0.323  -4.409  0.00  0.00    +0.022 A 
ATOM      9  C   UNL     1      -0.657  -1.598  -4.927  0.00  0.00    +0.041 A 
ATOM     10  C   UNL     1      -0.980  -2.701  -4.157  0.00  0.00    +0.022 A 
ATOM     11  C   UNL     1      -1.446  -2.533  -2.868  0.00  0.00    +0.028 A 
ATOM     12 CL   UNL     1      -0.065  -1.812  -6.545  0.00  0.00    -0.084 Cl
ENDBRANCH   5   6
BRANCH   1  14
ATOM     13  C   UNL     1      -0.005   1.499   0.035  0.00  0.00    -0.005 C 
ATOM     14  C   UNL     1       0.011  -0.031   0.015  0.00  0.00    -0.003 C 
BRANCH  14  15
ATOM     15  N   UNL     1       0.722  -0.529   1.200  0.00  0.00    +0.382 N 
ATOM     16  C   UNL     1       0.738  -1.997   1.181  0.00  0.00    -0.096 C 
ATOM     17  C   UNL     1       2.102  -0.024   1.191  0.00  0.00    -0.096 C 
ATOM     18  H   UNL     1       0.252  -0.208   2.033  0.00  0.00    -0.082 HD
ENDBRANCH  14  15
ENDBRANCH   1  14
BRANCH   4  19
ATOM     19  S   UNL     1      -4.633  -2.147  -1.480  0.00  0.00    -0.076 S 
BRANCH  19  20
ATOM     20  C   UNL     1      -5.975  -2.308  -0.269  0.00  0.00    +0.173 C 
BRANCH  20  21
ATOM     21  C   UNL     1      -7.177  -2.930  -0.931  0.00  0.00    +0.227 C 
ATOM     22  O   UNL     1      -7.133  -3.236  -2.104  0.00  0.00    -0.275 OA
ATOM     23  N   UNL     1      -8.300  -3.148  -0.219  0.00  0.00    -0.285 N 
ATOM     24  H   UNL     1      -8.314  -2.967   0.733  0.00  0.00    +0.155 HD
BRANCH  23  25
ATOM     25  C   UNL     1      -9.449  -3.637  -0.856  0.00  0.00    +0.034 A 
ATOM     26  C   UNL     1     -10.705  -3.213  -0.444  0.00  0.00    +0.025 A 
ATOM     27  C   UNL     1     -11.837  -3.694  -1.071  0.00  0.00    +0.025 A 
ATOM     28  C   UNL     1     -11.719  -4.603  -2.115  0.00  0.00    +0.029 A 
ATOM     29  C   UNL     1     -10.463  -5.027  -2.527  0.00  0.00    +0.025 A 
ATOM     30  C   UNL     1      -9.331  -4.542  -1.903  0.00  0.00    +0.025 A 
BRANCH  28  31
ATOM     31  N   UNL     1     -12.866  -5.090  -2.751  0.00  0.00    -0.336 N 
ATOM     32  C   UNL     1     -14.184  -4.561  -2.391  0.00  0.00    +0.129 C 
ATOM     33  C   UNL     1     -12.749  -6.130  -3.776  0.00  0.00    +0.129 C 
ENDBRANCH  28  31
ENDBRANCH  23  25
ENDBRANCH  20  21
ENDBRANCH  19  20
ENDBRANCH   4  19
TORSDOF 8
