REMARK  Name = ZINC66170250
REMARK  12 active torsions:
REMARK  status: ('A' for Active; 'I' for Inactive)
REMARK    1  A    between atoms: C_1  and  C_2
REMARK    2  A    between atoms: C_2  and  C_3
REMARK    3  A    between atoms: C_3  and  C_5
REMARK    4  A    between atoms: C_3  and  O_22
REMARK    5  A    between atoms: C_5  and  N_6
REMARK    6  A    between atoms: N_6  and  C_7
REMARK    7  A    between atoms: C_10  and  O_13
REMARK    8  A    between atoms: O_13  and  C_14
REMARK    9  A    between atoms: C_14  and  C_15
REMARK   10  A    between atoms: C_15  and  C_16
REMARK   11  A    between atoms: O_22  and  C_23
REMARK   12  A    between atoms: C_28  and  C_29
REMARK                            x       y       z     vdW  Elec       q    Type
REMARK                         _______ _______ _______ _____ _____    ______ ____
ROOT
ATOM      1  C   UNL     1      -3.252  -3.831   0.358  0.00  0.00    +0.027 A 
ATOM      2  C   UNL     1      -2.244  -4.779   0.469  0.00  0.00    +0.026 A 
ATOM      3  C   UNL     1      -2.566  -6.115   0.610  0.00  0.00    +0.047 A 
ATOM      4  C   UNL     1      -3.896  -6.509   0.640  0.00  0.00    +0.121 A 
ATOM      5  C   UNL     1      -4.903  -5.562   0.529  0.00  0.00    +0.047 A 
ATOM      6  C   UNL     1      -4.583  -4.225   0.394  0.00  0.00    +0.026 A 
ENDROOT
BRANCH   1   7
ATOM      7  N   UNL     1      -2.927  -2.477   0.216  0.00  0.00    -0.340 N 
ATOM      8  H   UNL     1      -3.631  -1.814   0.143  0.00  0.00    +0.146 HD
BRANCH   7   9
ATOM      9  C   UNL     1      -1.523  -2.061   0.178  0.00  0.00    +0.146 C 
BRANCH   9  10
ATOM     10  C   UNL     1      -1.445  -0.541   0.017  0.00  0.00    +0.190 C 
BRANCH  10  12
ATOM     11  C   UNL     1       0.100   1.421  -0.058  0.00  0.00    +0.007 C 
ATOM     12  C   UNL     1       0.021  -0.107  -0.023  0.00  0.00    +0.043 C 
ENDBRANCH  10  12
BRANCH  10  13
ATOM     13  O   UNL     1      -2.089  -0.158  -1.200  0.00  0.00    -0.487 OA
BRANCH  13  14
ATOM     14  C   UNL     1      -2.833   0.979  -1.172  0.00  0.00    +0.124 A 
ATOM     15  C   UNL     1      -2.848   1.772  -0.034  0.00  0.00    +0.046 A 
ATOM     16  C   UNL     1      -3.605   2.928  -0.009  0.00  0.00    +0.004 A 
ATOM     17  C   UNL     1      -4.348   3.293  -1.116  0.00  0.00    +0.000 A 
ATOM     18  C   UNL     1      -4.335   2.504  -2.251  0.00  0.00    +0.007 A 
ATOM     19  C   UNL     1      -3.575   1.351  -2.284  0.00  0.00    -0.009 A 
ATOM     20  C   UNL     1      -3.557   0.494  -3.523  0.00  0.00    +0.047 C 
ENDBRANCH  13  14
ENDBRANCH  10  13
ENDBRANCH   9  10
ENDBRANCH   7   9
ENDBRANCH   1   7
BRANCH   4  21
ATOM     21  O   UNL     1      -4.212  -7.824   0.779  0.00  0.00    -0.492 OA
BRANCH  21  22
ATOM     22  C   UNL     1      -5.601  -8.159   0.803  0.00  0.00    +0.229 C 
BRANCH  22  23
ATOM     23  C   UNL     1      -5.758  -9.672   0.964  0.00  0.00    +0.044 C 
BRANCH  23  24
ATOM     24  C   UNL     1      -7.245 -10.030   0.990  0.00  0.00    -0.008 C 
ATOM     25  C   UNL     1      -7.895  -9.421   2.234  0.00  0.00    +0.003 C 
ATOM     26  C   UNL     1      -9.383  -9.779   2.260  0.00  0.00    +0.000 C 
ATOM     27  C   UNL     1      -9.540 -11.300   2.295  0.00  0.00    +0.000 C 
ATOM     28  C   UNL     1      -8.890 -11.910   1.051  0.00  0.00    +0.000 C 
ATOM     29  C   UNL     1      -7.403 -11.552   1.026  0.00  0.00    +0.003 C 
ENDBRANCH  23  24
ENDBRANCH  22  23
ENDBRANCH  21  22
ENDBRANCH   4  21
TORSDOF 10
