REMARK  Name = ZINC00985593
REMARK  5 active torsions:
REMARK  status: ('A' for Active; 'I' for Inactive)
REMARK    1  A    between atoms: C_1  and  C_2
REMARK    2  A    between atoms: C_5  and  C_8
REMARK    3  A    between atoms: C_15  and  N_29
REMARK    4  A    between atoms: C_16  and  C_27
REMARK    5  A    between atoms: C_17  and  C_19
REMARK                            x       y       z     vdW  Elec       q    Type
REMARK                         _______ _______ _______ _____ _____    ______ ____
ROOT
ATOM      1  C   UNL     1      -0.097  -4.707   0.074  0.00  0.00    +0.100 A 
ATOM      2  C   UNL     1       0.803  -5.316   0.953  0.00  0.00    +0.054 A 
ATOM      3  C   UNL     1       0.727  -6.666   0.766  0.00  0.00    +0.223 A 
ATOM      4  N   UNL     1      -0.191  -6.897  -0.196  0.00  0.00    -0.246 N 
ATOM      5  H   UNL     1      -0.455  -7.766  -0.536  0.00  0.00    +0.192 HD
ATOM      6  N   UNL     1      -0.699  -5.657  -0.615  0.00  0.00    -0.171 NA
ATOM      7  O   UNL     1       1.482  -7.547   1.470  0.00  0.00    -0.423 OA
ATOM      8  C   UNL     1       2.520  -7.054   2.176  0.00  0.00    +0.200 C 
ATOM      9  C   UNL     1       2.696  -5.740   2.437  0.00  0.00    +0.098 C 
ATOM     10  C   UNL     1       1.730  -4.685   1.959  0.00  0.00    +0.104 C 
ENDROOT
BRANCH  10  11
ATOM     11  C   UNL     1       0.932  -4.160   3.125  0.00  0.00    +0.002 A 
ATOM     12  C   UNL     1       0.074  -4.999   3.810  0.00  0.00    +0.022 A 
ATOM     13  C   UNL     1      -0.658  -4.518   4.880  0.00  0.00    +0.018 A 
ATOM     14  C   UNL     1      -0.532  -3.195   5.265  0.00  0.00    +0.018 A 
ATOM     15  C   UNL     1       0.325  -2.354   4.581  0.00  0.00    +0.040 A 
ATOM     16  C   UNL     1       1.062  -2.837   3.514  0.00  0.00    +0.128 A 
ATOM     17  F   UNL     1       1.905  -2.017   2.848  0.00  0.00    -0.205 F 
ATOM     18 BR   UNL     1      -1.832  -5.667   5.816  0.00  0.00    -0.050 Br
ENDBRANCH  10  11
BRANCH   1  23
ATOM     19  C   UNL     1      -1.028   0.955  -0.433  0.00  0.00    +0.044 C 
ATOM     20  C   UNL     1      -0.785  -0.527  -0.301  0.00  0.00    -0.050 A 
ATOM     21  C   UNL     1      -1.853  -1.406  -0.325  0.00  0.00    +0.004 A 
ATOM     22  C   UNL     1      -1.635  -2.763  -0.204  0.00  0.00    +0.010 A 
ATOM     23  C   UNL     1      -0.337  -3.248  -0.057  0.00  0.00    +0.003 A 
ATOM     24  C   UNL     1       0.735  -2.358  -0.034  0.00  0.00    +0.010 A 
ATOM     25  C   UNL     1       0.506  -1.003  -0.161  0.00  0.00    +0.004 A 
ENDBRANCH   1  23
BRANCH   8  26
ATOM     26  N   UNL     1       3.452  -7.939   2.658  0.00  0.00    -0.328 N 
ATOM     27  H   UNL     1       3.353  -8.889   2.487  0.00  0.00    +0.145 HD
ATOM     28  H   UNL     1       4.209  -7.615   3.170  0.00  0.00    +0.145 HD
ENDBRANCH   8  26
BRANCH   9  29
ATOM     29  C   UNL     1       3.841  -5.334   3.196  0.00  0.00    +0.101 C 
ATOM     30  N   UNL     1       4.749  -5.013   3.797  0.00  0.00    -0.191 NA
ENDBRANCH   9  29
TORSDOF 4
