REMARK  Name = ZINC20478052
REMARK  1 active torsions:
REMARK  status: ('A' for Active; 'I' for Inactive)
REMARK    1  A    between atoms: C_6  and  N_7
REMARK                            x       y       z     vdW  Elec       q    Type
REMARK                         _______ _______ _______ _____ _____    ______ ____
ROOT
ATOM      1  N   UNL     1      -1.203  -0.723   0.010  0.00  0.00    -0.210 N 
ATOM      2  C   UNL     1      -2.398  -0.131   0.118  0.00  0.00    +0.232 C 
ATOM      3  O   UNL     1      -2.582   1.063   0.219  0.00  0.00    -0.274 OA
ATOM      4  C   UNL     1      -3.483  -1.183   0.093  0.00  0.00    +0.107 C 
ATOM      5  C   UNL     1      -4.165  -1.247   1.472  0.00  0.00    +0.071 C 
ATOM      6  C   UNL     1      -4.001   0.108   2.185  0.00  0.00    +0.021 C 
ATOM      7  C   UNL     1      -2.702  -0.014   3.007  0.00  0.00    +0.017 C 
ATOM      8  C   UNL     1      -2.164  -1.427   2.704  0.00  0.00    +0.086 C 
ATOM      9  N   UNL     1      -3.361  -2.228   2.263  0.00  0.00    -0.281 NA
ATOM     10  C   UNL     1      -2.967  -3.254   1.282  0.00  0.00    +0.138 C 
ATOM     11  C   UNL     1      -2.692  -2.512  -0.047  0.00  0.00    +0.123 C 
ATOM     12  C   UNL     1      -1.251  -2.056  -0.095  0.00  0.00    +0.233 C 
ATOM     13  O   UNL     1      -0.288  -2.785  -0.207  0.00  0.00    -0.274 OA
ATOM     14  C   UNL     1      -1.758  -4.019   1.744  0.00  0.00    +0.006 A 
ATOM     15  C   UNL     1      -0.473  -3.650   2.072  0.00  0.00    +0.046 A 
ATOM     16  C   UNL     1       0.442  -4.609   2.474  0.00  0.00    +0.124 A 
ATOM     17  C   UNL     1       0.059  -5.938   2.545  0.00  0.00    +0.040 A 
ATOM     18  C   UNL     1      -1.228  -6.310   2.218  0.00  0.00    +0.026 A 
ATOM     19  C   UNL     1      -2.154  -5.351   1.813  0.00  0.00    +0.039 A 
ATOM     20  N   UNL     1      -3.494  -5.478   1.436  0.00  0.00    -0.283 N 
ATOM     21  C   UNL     1      -4.043  -4.292   1.110  0.00  0.00    +0.243 C 
ATOM     22  O   UNL     1      -5.184  -4.098   0.748  0.00  0.00    -0.273 OA
ATOM     23  F   UNL     1       1.704  -4.249   2.795  0.00  0.00    -0.205 F 
ATOM     24  H   UNL     1      -3.972  -6.321   1.412  0.00  0.00    +0.155 HD
ENDROOT
BRANCH   1  30
ATOM     25  C   UNL     1       0.892  -0.128   1.060  0.00  0.00    +0.027 A 
ATOM     26  C   UNL     1       2.078   0.580   1.050  0.00  0.00    +0.040 A 
ATOM     27  C   UNL     1       2.379   1.413  -0.014  0.00  0.00    +0.124 A 
ATOM     28  C   UNL     1       1.492   1.539  -1.070  0.00  0.00    +0.040 A 
ATOM     29  C   UNL     1       0.305   0.832  -1.064  0.00  0.00    +0.027 A 
ATOM     30  C   UNL     1       0.002  -0.004   0.002  0.00  0.00    +0.044 A 
ATOM     31  F   UNL     1       3.540   2.105  -0.022  0.00  0.00    -0.205 F 
ENDBRANCH   1  30
TORSDOF 1
