REMARK  Name = ZINC41155852
REMARK  5 active torsions:
REMARK  status: ('A' for Active; 'I' for Inactive)
REMARK    1  A    between atoms: C_1  and  C_2
REMARK    2  A    between atoms: C_2  and  C_3
REMARK    3  A    between atoms: C_6  and  C_9
REMARK    4  A    between atoms: C_6  and  N_21
REMARK    5  A    between atoms: C_11  and  C_14
REMARK                            x       y       z     vdW  Elec       q    Type
REMARK                         _______ _______ _______ _____ _____    ______ ____
ROOT
ATOM      1  C   UNL     1      -1.433  -0.534   0.013  0.00  0.00    -0.011 C 
ATOM      2  C   UNL     1      -2.110  -0.145   1.329  0.00  0.00    +0.002 C 
ATOM      3  C   UNL     1      -3.546  -0.675   1.340  0.00  0.00    -0.005 C 
ATOM      4  C   UNL     1      -3.528  -2.199   1.206  0.00  0.00    -0.006 C 
ATOM      5  C   UNL     1      -2.851  -2.587  -0.110  0.00  0.00    -0.005 C 
ATOM      6  C   UNL     1      -1.416  -2.058  -0.121  0.00  0.00    +0.002 C 
ENDROOT
BRANCH   4   7
ATOM      7  C   UNL     1      -2.764  -2.796   2.359  0.00  0.00    +0.161 A 
ATOM      8  N   UNL     1      -3.256  -3.658   3.251  0.00  0.00    -0.193 NA
ATOM      9  C   UNL     1      -2.329  -3.981   4.124  0.00  0.00    +0.258 A 
ATOM     10  O   UNL     1      -1.205  -3.318   3.800  0.00  0.00    -0.333 OA
ATOM     11  N   UNL     1      -1.514  -2.557   2.642  0.00  0.00    -0.062 NA
BRANCH   9  12
ATOM     12  C   UNL     1      -2.492  -4.909   5.262  0.00  0.00    +0.039 A 
ATOM     13  C   UNL     1      -3.719  -5.538   5.483  0.00  0.00    +0.014 A 
ATOM     14  C   UNL     1      -3.865  -6.403   6.547  0.00  0.00    +0.015 A 
ATOM     15  C   UNL     1      -2.799  -6.648   7.396  0.00  0.00    +0.013 A 
ATOM     16  C   UNL     1      -1.580  -6.028   7.182  0.00  0.00    +0.015 A 
ATOM     17  C   UNL     1      -1.419  -5.165   6.118  0.00  0.00    +0.014 A 
ATOM     18  I   UNL     1      -3.031  -7.963   9.010  0.00  0.00    -0.044 I 
ENDBRANCH   9  12
ENDBRANCH   4   7
BRANCH   4  19
ATOM     19  N   UNL     1      -4.906  -2.707   1.216  0.00  0.00    +0.387 N 
ATOM     20  H   UNL     1      -5.418  -2.308   0.444  0.00  0.00    -0.089 HD
ATOM     21  H   UNL     1      -4.894  -3.712   1.128  0.00  0.00    -0.089 HD
ATOM     22  H   UNL     1      -5.353  -2.451   2.084  0.00  0.00    -0.089 HD
ENDBRANCH   4  19
BRANCH   1  24
ATOM     23  C   UNL     1      -0.019   1.526   0.010  0.00  0.00    +0.004 C 
ATOM     24  C   UNL     1       0.002  -0.004   0.002  0.00  0.00    -0.000 C 
ENDBRANCH   1  24
TORSDOF 4
