REMARK  Name = ZINC11416123
REMARK  8 active torsions:
REMARK  status: ('A' for Active; 'I' for Inactive)
REMARK    1  A    between atoms: C_1  and  C_2
REMARK    2  A    between atoms: C_2  and  C_4
REMARK    3  A    between atoms: C_2  and  N_67
REMARK    4  A    between atoms: C_7  and  S_16
REMARK    5  A    between atoms: N_8  and  C_9
REMARK    6  A    between atoms: S_16  and  C_17
REMARK    7  A    between atoms: C_17  and  C_19
REMARK    8  A    between atoms: C_17  and  C_20
REMARK                            x       y       z     vdW  Elec       q    Type
REMARK                         _______ _______ _______ _____ _____    ______ ____
ROOT
ATOM      1  C   UNL     1       6.363   1.813   7.069  0.00  0.00    +0.125 A 
ATOM      2  N   UNL     1       5.459   0.908   6.821  0.00  0.00    -0.135 NA
ATOM      3  N   UNL     1       4.810   1.212   5.754  0.00  0.00    -0.122 NA
ATOM      4  C   UNL     1       5.273   2.334   5.253  0.00  0.00    +0.197 A 
ATOM      5  N   UNL     1       6.279   2.755   6.079  0.00  0.00    -0.275 N 
ENDROOT
BRANCH   5   6
ATOM      6  C   UNL     1       7.060   3.913   5.941  0.00  0.00    +0.050 A 
ATOM      7  C   UNL     1       8.424   3.806   5.708  0.00  0.00    +0.029 A 
ATOM      8  C   UNL     1       9.191   4.946   5.567  0.00  0.00    +0.040 A 
ATOM      9  C   UNL     1       8.602   6.195   5.669  0.00  0.00    +0.124 A 
ATOM     10  C   UNL     1       7.242   6.303   5.907  0.00  0.00    +0.040 A 
ATOM     11  C   UNL     1       6.471   5.165   6.043  0.00  0.00    +0.029 A 
ATOM     12  F   UNL     1       9.354   7.309   5.537  0.00  0.00    -0.205 F 
ENDBRANCH   5   6
BRANCH   1  14
ATOM     13  C   UNL     1       8.426   0.788   7.987  0.00  0.00    -0.005 C 
ATOM     14  C   UNL     1       7.324   1.820   8.230  0.00  0.00    -0.002 C 
BRANCH  14  20
ATOM     15  C   UNL     1       5.472   2.398   9.678  0.00  0.00    -0.078 C 
ATOM     16  C   UNL     1       4.660   1.932  10.889  0.00  0.00    -0.019 C 
ATOM     17  C   UNL     1       5.563   1.910  12.126  0.00  0.00    -0.004 C 
ATOM     18  C   UNL     1       6.758   0.990  11.859  0.00  0.00    -0.019 C 
ATOM     19  C   UNL     1       7.509   1.483  10.620  0.00  0.00    -0.078 C 
ATOM     20  N   UNL     1       6.592   1.457   9.461  0.00  0.00    +0.386 N 
ATOM     21  H   UNL     1       6.214   0.508   9.356  0.00  0.00    -0.081 HD
ENDBRANCH  14  20
ENDBRANCH   1  14
BRANCH   4  22
ATOM     22  S   UNL     1       4.703   3.146   3.797  0.00  0.00    -0.073 S 
BRANCH  22  23
ATOM     23  C   UNL     1       3.398   1.999   3.288  0.00  0.00    +0.137 C 
ATOM     24  C   UNL     1       2.287   1.993   4.339  0.00  0.00    +0.029 C 
BRANCH  23  25
ATOM     25  C   UNL     1       2.833   2.438   1.962  0.00  0.00    +0.233 C 
ATOM     26  O   UNL     1       3.004   3.575   1.576  0.00  0.00    -0.274 OA
ATOM     27  N   UNL     1       2.138   1.567   1.204  0.00  0.00    -0.270 N 
ATOM     28  C   UNL     1       2.034   0.154   1.595  0.00  0.00    +0.114 C 
ATOM     29  C   UNL     1       2.272  -0.698   0.341  0.00  0.00    +0.024 C 
ATOM     30  C   UNL     1       1.163  -0.408  -0.670  0.00  0.00    +0.038 C 
ATOM     31  C   UNL     1       1.027   1.075  -0.893  0.00  0.00    -0.026 A 
ATOM     32  C   UNL     1       1.502   1.993   0.030  0.00  0.00    +0.039 A 
ATOM     33  C   UNL     1       1.355   3.355  -0.204  0.00  0.00    +0.024 A 
ATOM     34  C   UNL     1       0.739   3.795  -1.359  0.00  0.00    +0.002 A 
ATOM     35  C   UNL     1       0.267   2.879  -2.281  0.00  0.00    +0.000 A 
ATOM     36  C   UNL     1       0.410   1.525  -2.049  0.00  0.00    +0.005 A 
ENDBRANCH  23  25
ENDBRANCH  22  23
ENDBRANCH   4  22
TORSDOF 6
