REMARK  Name = ZINC15636289
REMARK  11 active torsions:
REMARK  status: ('A' for Active; 'I' for Inactive)
REMARK    1  A    between atoms: C_1  and  C_2
REMARK    2  A    between atoms: C_2  and  C_3
REMARK    3  A    between atoms: C_3  and  N_68
REMARK    4  A    between atoms: C_6  and  C_7
REMARK    5  A    between atoms: C_10  and  N_13
REMARK    6  A    between atoms: N_13  and  C_14
REMARK    7  A    between atoms: N_13  and  C_15
REMARK    8  A    between atoms: C_19  and  C_25
REMARK    9  A    between atoms: C_28  and  N_31
REMARK   10  A    between atoms: N_31  and  C_32
REMARK   11  A    between atoms: N_31  and  C_33
REMARK                            x       y       z     vdW  Elec       q    Type
REMARK                         _______ _______ _______ _____ _____    ______ ____
ROOT
ATOM      1  C   UNL     1      -0.518   1.570   7.329  0.00  0.00    -0.041 C 
ATOM      2  C   UNL     1       0.727   0.710   7.414  0.00  0.00    -0.042 C 
ATOM      3  C   UNL     1       1.295   0.195   6.309  0.00  0.00    +0.011 C 
ATOM      4  C   UNL     1       1.289   0.455   8.755  0.00  0.00    +0.033 C 
ATOM      5  C   UNL     1       0.836   1.140   9.809  0.00  0.00    -0.040 C 
ATOM      6  C   UNL     1      -0.263   2.163   9.659  0.00  0.00    -0.043 C 
ATOM      7  C   UNL     1       1.405   0.907  11.185  0.00  0.00    +0.129 C 
ATOM      8  N   UNL     1       2.446  -0.105  11.190  0.00  0.00    -0.316 N 
ATOM      9  C   UNL     1       2.849  -0.751  10.089  0.00  0.00    +0.135 C 
ATOM     10  S   UNL     1       4.085  -1.930  10.214  0.00  0.00    -0.019 S 
ATOM     11  N   UNL     1       2.303  -0.495   8.890  0.00  0.00    -0.297 N 
ATOM     12  H   UNL     1       2.872  -0.324  12.034  0.00  0.00    +0.149 HD
ATOM     13  H   UNL     1       2.614  -0.979   8.109  0.00  0.00    +0.154 HD
ATOM     14  N   UNL     1      -0.316   2.684   8.283  0.00  0.00    +0.385 N 
ATOM     15  H   UNL     1       0.573   3.150   8.069  0.00  0.00    -0.081 HD
ENDROOT
BRANCH   3  16
ATOM     16  C   UNL     1       0.619   0.319   5.007  0.00  0.00    -0.025 A 
ATOM     17  C   UNL     1       1.372   0.438   3.834  0.00  0.00    +0.010 A 
ATOM     18  C   UNL     1       0.736   0.553   2.618  0.00  0.00    +0.023 A 
ATOM     19  C   UNL     1      -0.654   0.550   2.555  0.00  0.00    +0.029 A 
ATOM     20  C   UNL     1      -1.406   0.437   3.720  0.00  0.00    +0.023 A 
ATOM     21  C   UNL     1      -0.778   0.317   4.939  0.00  0.00    +0.010 A 
BRANCH  19  22
ATOM     22  N   UNL     1      -1.294   0.667   1.322  0.00  0.00    -0.336 N 
ATOM     23  C   UNL     1      -0.504   0.792   0.095  0.00  0.00    +0.129 C 
ATOM     24  C   UNL     1      -2.758   0.664   1.253  0.00  0.00    +0.129 C 
ENDBRANCH  19  22
ENDBRANCH   3  16
BRANCH   7  25
ATOM     25  C   UNL     1       0.294   0.469  12.104  0.00  0.00    -0.023 A 
ATOM     26  C   UNL     1      -0.140  -0.844  12.085  0.00  0.00    +0.007 A 
ATOM     27  C   UNL     1      -1.154  -1.250  12.930  0.00  0.00    +0.023 A 
ATOM     28  C   UNL     1      -1.745  -0.336  13.792  0.00  0.00    +0.029 A 
ATOM     29  C   UNL     1      -1.310   0.984  13.806  0.00  0.00    +0.023 A 
ATOM     30  C   UNL     1      -0.292   1.382  12.962  0.00  0.00    +0.007 A 
BRANCH  28  31
ATOM     31  N   UNL     1      -2.774  -0.742  14.645  0.00  0.00    -0.336 N 
ATOM     32  C   UNL     1      -3.396   0.224  15.554  0.00  0.00    +0.129 C 
ATOM     33  C   UNL     1      -3.232  -2.134  14.630  0.00  0.00    +0.129 C 
ENDBRANCH  28  31
ENDBRANCH   7  25
BRANCH  14  34
ATOM     34  C   UNL     1      -1.418   3.664   8.158  0.00  0.00    -0.078 C 
BRANCH  34  36
ATOM     35  C   UNL     1      -2.438   5.381   6.656  0.00  0.00    +0.002 C 
ATOM     36  C   UNL     1      -1.317   4.349   6.793  0.00  0.00    -0.022 C 
ENDBRANCH  34  36
ENDBRANCH  14  34
TORSDOF 6
