REMARK  Name = ZINC07366676
REMARK  16 active torsions:
REMARK  status: ('A' for Active; 'I' for Inactive)
REMARK    1  A    between atoms: C_1  and  C_2
REMARK    2  A    between atoms: C_2  and  C_3
REMARK    3  A    between atoms: C_3  and  C_4
REMARK    4  A    between atoms: C_4  and  C_5
REMARK    5  A    between atoms: C_5  and  C_6
REMARK    6  A    between atoms: C_6  and  O_7
REMARK    7  A    between atoms: O_7  and  C_8
REMARK    8  A    between atoms: C_11  and  N_14
REMARK    9  A    between atoms: N_14  and  C_15
REMARK   10  A    between atoms: C_15  and  N_17
REMARK   11  A    between atoms: C_18  and  C_20
REMARK   12  A    between atoms: C_25  and  O_26
REMARK   13  A    between atoms: O_26  and  C_27
REMARK   14  A    between atoms: C_27  and  C_28
REMARK   15  A    between atoms: C_28  and  C_29
REMARK   16  A    between atoms: C_29  and  C_30
REMARK                            x       y       z     vdW  Elec       q    Type
REMARK                         _______ _______ _______ _____ _____    ______ ____
ROOT
ATOM      1  C   UNL     1      -0.070   1.734   0.403  0.00  0.00    +0.141 C 
ATOM      2  S   UNL     1      -0.128   0.086   0.867  0.00  0.00    -0.018 S 
ENDROOT
BRANCH   1   3
ATOM      3  N   UNL     1       1.103   2.396   0.416  0.00  0.00    -0.263 N 
ATOM      4  C   UNL     1       2.231   1.763   0.794  0.00  0.00    +0.253 C 
ATOM      5  O   UNL     1       2.190   0.593   1.123  0.00  0.00    -0.270 OA
ATOM      6  H   UNL     1       1.136   3.330   0.153  0.00  0.00    +0.157 HD
BRANCH   4   7
ATOM      7  C   UNL     1       3.515   2.488   0.807  0.00  0.00    +0.079 A 
ATOM      8  C   UNL     1       3.568   3.831   0.424  0.00  0.00    +0.017 A 
ATOM      9  C   UNL     1       4.770   4.504   0.444  0.00  0.00    +0.001 A 
ATOM     10  C   UNL     1       5.929   3.853   0.832  0.00  0.00    +0.004 A 
ATOM     11  C   UNL     1       5.893   2.525   1.208  0.00  0.00    +0.046 A 
ATOM     12  C   UNL     1       4.691   1.833   1.199  0.00  0.00    +0.133 A 
BRANCH  12  13
ATOM     13  O   UNL     1       4.653   0.528   1.568  0.00  0.00    -0.491 OA
BRANCH  13  14
ATOM     14  C   UNL     1       5.891  -0.073   1.955  0.00  0.00    +0.229 C 
BRANCH  14  15
ATOM     15  C   UNL     1       5.651  -1.536   2.334  0.00  0.00    +0.041 C 
BRANCH  15  16
ATOM     16  C   UNL     1       6.976  -2.179   2.748  0.00  0.00    -0.000 C 
ATOM     17  C   UNL     1       6.736  -3.641   3.127  0.00  0.00    +0.004 C 
ENDBRANCH  15  16
ENDBRANCH  14  15
ENDBRANCH  13  14
ENDBRANCH  12  13
ENDBRANCH   4   7
ENDBRANCH   1   3
BRANCH   1  18
ATOM     18  N   UNL     1      -1.197   2.366   0.021  0.00  0.00    -0.297 N 
ATOM     19  H   UNL     1      -1.176   3.314  -0.183  0.00  0.00    +0.154 HD
BRANCH  18  23
ATOM     20  C   UNL     1      -4.774   0.246  -0.289  0.00  0.00    +0.121 A 
ATOM     21  C   UNL     1      -3.961   0.074   0.822  0.00  0.00    +0.047 A 
ATOM     22  C   UNL     1      -2.776   0.776   0.925  0.00  0.00    +0.027 A 
ATOM     23  C   UNL     1      -2.399   1.653  -0.083  0.00  0.00    +0.033 A 
ATOM     24  C   UNL     1      -3.217   1.829  -1.192  0.00  0.00    +0.027 A 
ATOM     25  C   UNL     1      -4.399   1.122  -1.296  0.00  0.00    +0.047 A 
BRANCH  20  26
ATOM     26  O   UNL     1      -5.941  -0.446  -0.390  0.00  0.00    -0.492 OA
BRANCH  26  27
ATOM     27  C   UNL     1      -6.729  -0.221  -1.560  0.00  0.00    +0.229 C 
BRANCH  27  28
ATOM     28  C   UNL     1      -7.994  -1.080  -1.496  0.00  0.00    +0.041 C 
BRANCH  28  29
ATOM     29  C   UNL     1      -8.838  -0.838  -2.749  0.00  0.00    +0.003 C 
BRANCH  29  30
ATOM     30  C   UNL     1     -10.103  -1.697  -2.685  0.00  0.00    -0.000 C 
BRANCH  30  32
ATOM     31  C   UNL     1     -12.211  -2.315  -3.874  0.00  0.00    +0.004 C 
ATOM     32  C   UNL     1     -10.947  -1.456  -3.938  0.00  0.00    -0.003 C 
ENDBRANCH  30  32
ENDBRANCH  29  30
ENDBRANCH  28  29
ENDBRANCH  27  28
ENDBRANCH  26  27
ENDBRANCH  20  26
ENDBRANCH  18  23
ENDBRANCH   1  18
TORSDOF 14
