REMARK  Name = ZINC00998092
REMARK  5 active torsions:
REMARK  status: ('A' for Active; 'I' for Inactive)
REMARK    1  A    between atoms: C_1  and  C_2
REMARK    2  A    between atoms: C_4  and  C_22
REMARK    3  A    between atoms: N_5  and  C_7
REMARK    4  A    between atoms: C_7  and  C_8
REMARK    5  A    between atoms: C_12  and  C_14
REMARK                            x       y       z     vdW  Elec       q    Type
REMARK                         _______ _______ _______ _____ _____    ______ ____
ROOT
ATOM      1  C   UNL     1      -2.441  -2.856   0.010  0.00  0.00    -0.025 A 
ATOM      2  C   UNL     1      -3.647  -2.178   0.025  0.00  0.00    +0.005 A 
ATOM      3  C   UNL     1      -3.669  -0.794   0.032  0.00  0.00    +0.001 A 
ATOM      4  C   UNL     1      -2.487  -0.082   0.031  0.00  0.00    +0.013 A 
ATOM      5  C   UNL     1      -1.268  -0.760   0.010  0.00  0.00    +0.037 A 
ATOM      6  C   UNL     1      -1.252  -2.156   0.002  0.00  0.00    +0.018 A 
ENDROOT
BRANCH   5   7
ATOM      7  C   UNL     1       0.002  -0.004   0.002  0.00  0.00    +0.250 C 
ATOM      8  O   UNL     1       1.063  -0.598  -0.011  0.00  0.00    -0.270 OA
ATOM      9  N   UNL     1      -0.016   1.344   0.009  0.00  0.00    -0.261 N 
ATOM     10  C   UNL     1       1.177   2.054   0.002  0.00  0.00    +0.165 A 
ATOM     11  N   UNL     1       2.414   1.597  -0.007  0.00  0.00    -0.233 NA
ATOM     12  C   UNL     1       3.446   2.418  -0.017  0.00  0.00    +0.120 A 
ATOM     13  C   UNL     1       3.210   3.752  -0.008  0.00  0.00    +0.068 A 
ATOM     14  S   UNL     1       1.423   3.773   0.009  0.00  0.00    -0.061 S 
ATOM     15  H   UNL     1      -0.863   1.817   0.016  0.00  0.00    +0.157 HD
ENDBRANCH   5   7
BRANCH   1  16
ATOM     16  C   UNL     1      -2.426  -4.363   0.001  0.00  0.00    +0.179 C 
BRANCH  16  21
ATOM     17  C   UNL     1      -3.992  -5.989   4.485  0.00  0.00    +0.068 C 
ATOM     18  C   UNL     1      -3.115  -5.568   3.334  0.00  0.00    +0.074 A 
ATOM     19  C   UNL     1      -1.716  -5.558   3.329  0.00  0.00    +0.061 A 
ATOM     20  C   UNL     1      -1.307  -5.123   2.115  0.00  0.00    +0.051 A 
ATOM     21  N   UNL     1      -2.408  -4.859   1.379  0.00  0.00    -0.263 N 
ATOM     22  N   UNL     1      -3.531  -5.150   2.166  0.00  0.00    -0.175 NA
ATOM     23  C   UNL     1       0.122  -4.960   1.664  0.00  0.00    +0.066 C 
ATOM     24 BR   UNL     1      -0.595  -6.067   4.764  0.00  0.00    -0.047 Br
ENDBRANCH  16  21
ENDBRANCH   1  16
TORSDOF 3
