REMARK  Name = ZINC13253096
REMARK  11 active torsions:
REMARK  status: ('A' for Active; 'I' for Inactive)
REMARK    1  A    between atoms: C_1  and  C_2
REMARK    2  A    between atoms: C_2  and  O_3
REMARK    3  A    between atoms: O_3  and  C_4
REMARK    4  A    between atoms: C_7  and  N_10
REMARK    5  A    between atoms: N_10  and  S_11
REMARK    6  A    between atoms: S_11  and  C_14
REMARK    7  A    between atoms: C_17  and  N_20
REMARK    8  A    between atoms: C_21  and  C_23
REMARK    9  A    between atoms: C_23  and  C_24
REMARK   10  A    between atoms: C_24  and  C_26
REMARK   11  A    between atoms: C_24  and  C_32
REMARK                            x       y       z     vdW  Elec       q    Type
REMARK                         _______ _______ _______ _____ _____    ______ ____
ROOT
ATOM      1  C   UNL     1       2.703   7.872  -1.800  0.00  0.00    +0.109 A 
ATOM      2  C   UNL     1       1.946   7.855  -2.957  0.00  0.00    +0.030 A 
ATOM      3  C   UNL     1       1.073   6.813  -3.198  0.00  0.00    +0.025 A 
ATOM      4  C   UNL     1       0.955   5.781  -2.276  0.00  0.00    +0.033 A 
ATOM      5  C   UNL     1       1.712   5.804  -1.112  0.00  0.00    +0.025 A 
ATOM      6  C   UNL     1       2.587   6.847  -0.879  0.00  0.00    +0.030 A 
ENDROOT
BRANCH   4   7
ATOM      7  N   UNL     1       0.071   4.723  -2.517  0.00  0.00    -0.285 N 
ATOM      8  C   UNL     1       0.373   3.482  -2.089  0.00  0.00    +0.218 C 
ATOM      9  O   UNL     1       1.452   3.261  -1.581  0.00  0.00    -0.275 OA
ATOM     10  H   UNL     1      -0.760   4.884  -2.991  0.00  0.00    +0.155 HD
BRANCH   8  11
ATOM     11  C   UNL     1      -0.629   2.367  -2.243  0.00  0.00    +0.115 C 
BRANCH  11  12
ATOM     12  C   UNL     1      -0.040   1.071  -1.682  0.00  0.00    +0.141 C 
BRANCH  12  13
ATOM     13  C   UNL     1      -1.085  -0.015  -1.724  0.00  0.00    -0.033 A 
ATOM     14  C   UNL     1      -1.643  -0.391  -2.931  0.00  0.00    +0.004 A 
ATOM     15  C   UNL     1      -2.598  -1.390  -2.970  0.00  0.00    +0.000 A 
ATOM     16  C   UNL     1      -3.001  -2.006  -1.800  0.00  0.00    +0.000 A 
ATOM     17  C   UNL     1      -2.447  -1.626  -0.592  0.00  0.00    +0.000 A 
ATOM     18  C   UNL     1      -1.489  -0.630  -0.554  0.00  0.00    +0.004 A 
ENDBRANCH  12  13
BRANCH  12  19
ATOM     19  C   UNL     1       1.147   0.657  -2.513  0.00  0.00    +0.364 C 
ATOM     20  O   UNL     1       1.145  -0.409  -3.081  0.00  0.00    -0.246 OA
ATOM     21  O   UNL     1       2.204   1.476  -2.627  0.00  0.00    -0.246 OA
ENDBRANCH  12  19
ENDBRANCH  11  12
ENDBRANCH   8  11
ENDBRANCH   4   7
BRANCH   1  22
ATOM     22  S   UNL     1       3.815   9.204  -1.496  0.00  0.00    +0.072 S 
ATOM     23  O   UNL     1       4.863   8.683  -0.690  0.00  0.00    -0.150 OA
ATOM     24  O   UNL     1       4.057   9.825  -2.751  0.00  0.00    -0.150 OA
BRANCH  22  25
ATOM     25  N   UNL     1       3.010  10.313  -0.567  0.00  0.00    -0.216 N 
ATOM     26  H   UNL     1       2.811  11.193  -0.924  0.00  0.00    +0.174 HD
BRANCH  25  30
ATOM     27  C   UNL     1       1.836   9.326   3.309  0.00  0.00    +0.121 A 
ATOM     28  C   UNL     1       3.170   9.593   3.035  0.00  0.00    +0.047 A 
ATOM     29  C   UNL     1       3.559   9.921   1.752  0.00  0.00    +0.028 A 
ATOM     30  C   UNL     1       2.616   9.982   0.734  0.00  0.00    +0.048 A 
ATOM     31  C   UNL     1       1.280   9.719   1.010  0.00  0.00    +0.028 A 
ATOM     32  C   UNL     1       0.893   9.386   2.294  0.00  0.00    +0.047 A 
BRANCH  27  33
ATOM     33  O   UNL     1       1.453   9.004   4.574  0.00  0.00    -0.492 OA
BRANCH  33  35
ATOM     34  C   UNL     1      -0.173   8.399   6.256  0.00  0.00    +0.048 C 
ATOM     35  C   UNL     1       0.065   8.741   4.784  0.00  0.00    +0.225 C 
ENDBRANCH  33  35
ENDBRANCH  27  33
ENDBRANCH  25  30
ENDBRANCH  22  25
ENDBRANCH   1  22
TORSDOF 10
