REMARK  Name = ZINC52635051
REMARK  15 active torsions:
REMARK  status: ('A' for Active; 'I' for Inactive)
REMARK    1  A    between atoms: C_1  and  C_2
REMARK    2  A    between atoms: C_4  and  C_40
REMARK    3  A    between atoms: C_6  and  C_8
REMARK    4  A    between atoms: C_9  and  C_27
REMARK    5  A    between atoms: C_18  and  C_20
REMARK    6  A    between atoms: C_21  and  C_25
REMARK    7  A    between atoms: C_21  and  C_26
REMARK    8  A    between atoms: C_22  and  C_23
REMARK    9  A    between atoms: C_22  and  C_24
REMARK   10  A    between atoms: C_27  and  C_29
REMARK   11  A    between atoms: C_27  and  C_30
REMARK   12  A    between atoms: C_30  and  N_31
REMARK   13  A    between atoms: N_31  and  C_32
REMARK   14  A    between atoms: C_32  and  C_33
REMARK   15  A    between atoms: C_33  and  C_34
REMARK                            x       y       z     vdW  Elec       q    Type
REMARK                         _______ _______ _______ _____ _____    ______ ____
ROOT
ATOM      1  C   UNL     1       2.457  -6.814   1.145  0.00  0.00    +0.071 C 
ATOM      2  C   UNL     1       1.915  -5.675   1.610  0.00  0.00    -0.033 C 
ATOM      3  C   UNL     1       1.161  -6.079   2.854  0.00  0.00    +0.079 C 
ATOM      4  C   UNL     1       1.718  -5.390   4.106  0.00  0.00    +0.121 C 
ATOM      5  N   UNL     1       1.265  -6.158   5.277  0.00  0.00    -0.300 N 
ATOM      6  C   UNL     1       1.622  -7.572   5.431  0.00  0.00    +0.113 C 
ATOM      7  C   UNL     1       1.127  -8.364   4.207  0.00  0.00    +0.070 C 
ATOM      8  C   UNL     1       1.488  -7.563   2.975  0.00  0.00    +0.030 C 
ATOM      9  N   UNL     1       2.172  -7.879   1.948  0.00  0.00    -0.255 NA
ATOM     10  C   UNL     1       0.514  -5.554   6.219  0.00  0.00    +0.220 C 
ATOM     11  O   UNL     1       0.215  -4.384   6.099  0.00  0.00    -0.275 OA
ENDROOT
BRANCH   1  17
ATOM     12  C   UNL     1       6.494  -8.479  -1.276  0.00  0.00    +0.044 C 
ATOM     13  C   UNL     1       5.203  -7.701  -1.265  0.00  0.00    -0.050 A 
ATOM     14  C   UNL     1       4.769  -7.067  -2.415  0.00  0.00    +0.006 A 
ATOM     15  C   UNL     1       3.585  -6.352  -2.412  0.00  0.00    -0.050 A 
ATOM     16  C   UNL     1       2.831  -6.266  -1.259  0.00  0.00    +0.013 A 
ATOM     17  C   UNL     1       3.263  -6.902  -0.098  0.00  0.00    +0.001 A 
ATOM     18  C   UNL     1       4.454  -7.627  -0.108  0.00  0.00    +0.013 A 
ATOM     19  C   UNL     1       3.119  -5.664  -3.669  0.00  0.00    +0.044 C 
ENDBRANCH   1  17
BRANCH  10  20
ATOM     20  C   UNL     1       0.046  -6.331   7.422  0.00  0.00    +0.087 C 
ATOM     21  C   UNL     1       0.187  -5.665   8.792  0.00  0.00    -0.017 C 
ATOM     22  C   UNL     1       1.111  -6.821   8.405  0.00  0.00    -0.017 C 
ATOM     23  C   UNL     1       0.877  -8.171   9.085  0.00  0.00    +0.012 C 
ATOM     24  C   UNL     1       2.570  -6.484   8.091  0.00  0.00    +0.012 C 
ATOM     25  C   UNL     1       0.792  -4.261   8.836  0.00  0.00    +0.012 C 
ATOM     26  C   UNL     1      -0.901  -5.948   9.830  0.00  0.00    +0.012 C 
ENDBRANCH  10  20
BRANCH   2  27
ATOM     27  C   UNL     1       2.033  -4.294   1.017  0.00  0.00    -0.002 C 
ATOM     28  C   UNL     1       3.085  -3.496   1.790  0.00  0.00    +0.010 C 
BRANCH  27  29
ATOM     29  C   UNL     1       0.682  -3.582   1.110  0.00  0.00    -0.075 C 
BRANCH  29  30
ATOM     30  N   UNL     1       0.765  -2.284   0.427  0.00  0.00    +0.380 N 
ATOM     31  H   UNL     1       1.475  -1.718   0.866  0.00  0.00    -0.086 HD
ATOM     32  H   UNL     1       1.002  -2.430  -0.543  0.00  0.00    -0.086 HD
BRANCH  30  33
ATOM     33  C   UNL     1      -0.532  -1.601   0.516  0.00  0.00    -0.078 C 
BRANCH  33  34
ATOM     34  C   UNL     1      -0.446  -0.249  -0.196  0.00  0.00    +0.016 C 
BRANCH  34  35
ATOM     35  C   UNL     1      -1.777   0.453  -0.104  0.00  0.00    -0.046 A 
ATOM     36  C   UNL     1      -2.747   0.264  -1.077  0.00  0.00    +0.023 A 
ATOM     37  C   UNL     1      -3.955   0.924  -0.960  0.00  0.00    +0.111 A 
ATOM     38  N   UNL     1      -4.190   1.725   0.061  0.00  0.00    -0.263 NA
ATOM     39  C   UNL     1      -3.291   1.929   1.004  0.00  0.00    +0.111 A 
ATOM     40  C   UNL     1      -2.062   1.298   0.957  0.00  0.00    +0.023 A 
ENDBRANCH  34  35
ENDBRANCH  33  34
ENDBRANCH  30  33
ENDBRANCH  29  30
ENDBRANCH  27  29
ENDBRANCH   2  27
TORSDOF 8
