REMARK  Name = ZINC67303544
REMARK  4 active torsions:
REMARK  status: ('A' for Active; 'I' for Inactive)
REMARK    1  A    between atoms: C_1  and  C_2
REMARK    2  A    between atoms: C_2  and  C_3
REMARK    3  A    between atoms: C_2  and  N_4
REMARK    4  A    between atoms: C_13  and  C_15
REMARK                            x       y       z     vdW  Elec       q    Type
REMARK                         _______ _______ _______ _____ _____    ______ ____
ROOT
ATOM      1  N   UNL     1      -1.444  -0.595   0.440  0.00  0.00    -0.297 N 
ATOM      2  C   UNL     1      -1.696  -1.821  -0.061  0.00  0.00    +0.302 C 
ATOM      3  O   UNL     1      -0.787  -2.493  -0.509  0.00  0.00    -0.253 OA
ATOM      4  N   UNL     1      -2.955  -2.301  -0.065  0.00  0.00    -0.283 N 
ATOM      5  C   UNL     1      -4.079  -1.457   0.362  0.00  0.00    +0.128 C 
ATOM      6  C   UNL     1      -5.120  -1.420  -0.764  0.00  0.00    +0.127 C 
ATOM      7  N   UNL     1      -5.393  -2.798  -1.195  0.00  0.00    -0.298 N 
ATOM      8  C   UNL     1      -4.269  -3.643  -1.622  0.00  0.00    +0.127 C 
ATOM      9  C   UNL     1      -3.229  -3.678  -0.502  0.00  0.00    +0.128 C 
ATOM     10  C   UNL     1      -6.653  -3.279  -1.199  0.00  0.00    +0.219 C 
ATOM     11  O   UNL     1      -7.582  -2.548  -0.927  0.00  0.00    -0.275 OA
ATOM     12  H   UNL     1      -2.177  -0.030   0.731  0.00  0.00    +0.150 HD
ENDROOT
BRANCH  10  13
ATOM     13  C   UNL     1      -6.906  -4.725  -1.541  0.00  0.00    +0.081 C 
ATOM     14  C   UNL     1      -6.638  -4.951  -3.030  0.00  0.00    +0.002 C 
ATOM     15  C   UNL     1      -6.896  -6.419  -3.377  0.00  0.00    +0.008 C 
ATOM     16  C   UNL     1      -8.351  -6.770  -3.062  0.00  0.00    -0.010 C 
ATOM     17  C   UNL     1      -9.281  -5.880  -3.888  0.00  0.00    +0.007 C 
ATOM     18  C   UNL     1      -9.024  -4.412  -3.541  0.00  0.00    -0.010 C 
ATOM     19  C   UNL     1      -7.568  -4.061  -3.857  0.00  0.00    +0.008 C 
ATOM     20  C   UNL     1      -9.292  -4.185  -2.052  0.00  0.00    +0.008 C 
ATOM     21  C   UNL     1      -8.362  -5.075  -1.225  0.00  0.00    +0.002 C 
ATOM     22  C   UNL     1      -8.619  -6.543  -1.572  0.00  0.00    +0.008 C 
ENDBRANCH  10  13
BRANCH   1  24
ATOM     23  C   UNL     1      -0.052   1.414   0.528  0.00  0.00    +0.027 C 
ATOM     24  C   UNL     1      -0.063  -0.116   0.544  0.00  0.00    +0.068 C 
ATOM     25  C   UNL     1       0.552  -0.617   1.853  0.00  0.00    +0.027 C 
ENDBRANCH   1  24
TORSDOF 2
