REMARK  Name = ZINC41657419
REMARK  4 active torsions:
REMARK  status: ('A' for Active; 'I' for Inactive)
REMARK    1  A    between atoms: C_1  and  O_2
REMARK    2  A    between atoms: O_2  and  C_3
REMARK    3  A    between atoms: C_8  and  C_9
REMARK    4  A    between atoms: N_21  and  C_24
REMARK                            x       y       z     vdW  Elec       q    Type
REMARK                         _______ _______ _______ _____ _____    ______ ____
ROOT
ATOM      1  C   UNL     1      -0.021  -2.831  -0.013  0.00  0.00    +0.061 C 
ATOM      2  C   UNL     1      -0.079  -4.184   0.083  0.00  0.00    +0.176 C 
ATOM      3  C   UNL     1       1.068  -5.097   0.190  0.00  0.00    +0.231 C 
ATOM      4  O   UNL     1       2.252  -4.808   0.211  0.00  0.00    -0.283 OA
ATOM      5  C   UNL     1       0.465  -6.440   0.266  0.00  0.00    +0.068 A 
ATOM      6  C   UNL     1       1.002  -7.723   0.378  0.00  0.00    +0.019 A 
ATOM      7  C   UNL     1       0.171  -8.805   0.426  0.00  0.00    +0.047 A 
ATOM      8  C   UNL     1      -1.212  -8.635   0.365  0.00  0.00    +0.130 A 
ATOM      9  C   UNL     1      -1.757  -7.368   0.256  0.00  0.00    +0.051 A 
ATOM     10  C   UNL     1      -0.924  -6.255   0.204  0.00  0.00    +0.147 A 
ATOM     11  O   UNL     1      -1.204  -4.937   0.103  0.00  0.00    -0.451 OA
ATOM     12  C   UNL     1      -3.251  -7.170   0.197  0.00  0.00    +0.130 C 
ATOM     13  N   UNL     1      -3.903  -8.442  -0.144  0.00  0.00    -0.261 NA
ATOM     14  C   UNL     1      -3.393  -9.521   0.717  0.00  0.00    +0.319 C 
ATOM     15  O   UNL     1      -2.012  -9.733   0.413  0.00  0.00    -0.476 OA
ENDROOT
BRANCH   1  21
ATOM     16  C   UNL     1      -1.193  -0.658   0.317  0.00  0.00    +0.127 A 
ATOM     17  C   UNL     1      -2.364   0.082   0.370  0.00  0.00    +0.047 A 
ATOM     18  C   UNL     1      -3.583  -0.535   0.169  0.00  0.00    +0.019 A 
ATOM     19  C   UNL     1      -3.650  -1.896  -0.086  0.00  0.00    +0.019 A 
ATOM     20  C   UNL     1      -2.497  -2.650  -0.143  0.00  0.00    +0.027 A 
ATOM     21  C   UNL     1      -1.253  -2.037   0.052  0.00  0.00    +0.021 A 
ATOM     22 BR   UNL     1      -5.329  -2.722  -0.357  0.00  0.00    -0.050 Br
BRANCH  16  24
ATOM     23  C   UNL     1      -0.012   1.351   0.777  0.00  0.00    +0.277 C 
ATOM     24  O   UNL     1       0.005  -0.053   0.513  0.00  0.00    -0.495 OA
ENDBRANCH  16  24
ENDBRANCH   1  21
BRANCH  13  25
ATOM     25  C   UNL     1      -5.364  -8.329  -0.038  0.00  0.00    +0.083 C 
ATOM     26  C   UNL     1      -5.865  -7.251  -1.013  0.00  0.00    +0.043 C 
ATOM     27  C   UNL     1      -7.413  -7.369  -1.111  0.00  0.00    +0.167 C 
ATOM     28  S   UNL     1      -7.610  -9.200  -1.144  0.00  0.00    -0.029 S 
ATOM     29  O   UNL     1      -7.632  -9.639  -2.495  0.00  0.00    -0.174 OA
ATOM     30  O   UNL     1      -8.671  -9.567  -0.272  0.00  0.00    -0.174 OA
ATOM     31  C   UNL     1      -6.011  -9.692  -0.383  0.00  0.00    +0.184 C 
ENDBRANCH  13  25
TORSDOF 3
