REMARK  Name = ZINC32999871
REMARK  6 active torsions:
REMARK  status: ('A' for Active; 'I' for Inactive)
REMARK    1  A    between atoms: C_3  and  S_22
REMARK    2  A    between atoms: C_6  and  N_7
REMARK    3  A    between atoms: C_8  and  C_10
REMARK    4  A    between atoms: C_10  and  N_11
REMARK    5  A    between atoms: S_22  and  N_25
REMARK    6  A    between atoms: N_25  and  C_26
REMARK                            x       y       z     vdW  Elec       q    Type
REMARK                         _______ _______ _______ _____ _____    ______ ____
ROOT
ATOM      1  N   UNL     1      -1.199  -0.722   0.010  0.00  0.00    -0.284 N 
ATOM      2  C   UNL     1      -1.183  -2.065  -0.099  0.00  0.00    +0.235 C 
ATOM      3  O   UNL     1      -0.125  -2.659  -0.113  0.00  0.00    -0.274 OA
ATOM      4  H   UNL     1      -2.044  -0.253   0.098  0.00  0.00    +0.155 HD
ENDROOT
BRANCH   1  10
ATOM      5  C   UNL     1       1.072  -0.453  -0.766  0.00  0.00    +0.025 A 
ATOM      6  C   UNL     1       2.256   0.259  -0.778  0.00  0.00    +0.031 A 
ATOM      7  C   UNL     1       2.376   1.416  -0.032  0.00  0.00    +0.111 A 
ATOM      8  C   UNL     1       1.312   1.866   0.729  0.00  0.00    +0.031 A 
ATOM      9  C   UNL     1       0.126   1.160   0.744  0.00  0.00    +0.025 A 
ATOM     10  C   UNL     1       0.002  -0.004  -0.004  0.00  0.00    +0.034 A 
BRANCH   7  11
ATOM     11  S   UNL     1       3.889   2.320  -0.048  0.00  0.00    +0.093 S 
ATOM     12  O   UNL     1       3.928   3.069   1.159  0.00  0.00    -0.148 OA
ATOM     13  O   UNL     1       4.909   1.398  -0.406  0.00  0.00    -0.148 OA
BRANCH  11  14
ATOM     14  N   UNL     1       3.789   3.419  -1.284  0.00  0.00    -0.070 NA
BRANCH  14  15
ATOM     15  C   UNL     1       4.848   4.276  -1.536  0.00  0.00    +0.201 A 
ATOM     16  N   UNL     1       6.002   4.357  -0.908  0.00  0.00    -0.231 NA
ATOM     17  C   UNL     1       6.917   5.238  -1.274  0.00  0.00    +0.120 A 
ATOM     18  C   UNL     1       6.612   6.046  -2.317  0.00  0.00    +0.068 A 
ATOM     19  S   UNL     1       4.974   5.463  -2.723  0.00  0.00    -0.058 S 
ENDBRANCH  14  15
ENDBRANCH  11  14
ENDBRANCH   7  11
ENDBRANCH   1  10
BRANCH   2  20
ATOM     20  C   UNL     1      -2.478  -2.828  -0.204  0.00  0.00    +0.214 C 
BRANCH  20  21
ATOM     21  N   UNL     1      -2.192  -4.261  -0.311  0.00  0.00    -0.215 N 
ATOM     22  C   UNL     1      -2.003  -4.912  -1.480  0.00  0.00    +0.247 C 
ATOM     23  O   UNL     1      -2.034  -4.442  -2.597  0.00  0.00    -0.273 OA
ATOM     24  C   UNL     1      -1.742  -6.347  -1.098  0.00  0.00    +0.113 C 
ATOM     25  C   UNL     1      -0.361  -6.805  -1.584  0.00  0.00    +0.035 C 
ATOM     26  C   UNL     1      -0.572  -8.294  -1.962  0.00  0.00    +0.003 C 
ATOM     27  C   UNL     1      -1.993  -8.295  -2.579  0.00  0.00    +0.003 C 
ATOM     28  C   UNL     1      -2.782  -7.284  -1.718  0.00  0.00    +0.035 C 
ATOM     29  N   UNL     1      -1.819  -6.357   0.365  0.00  0.00    -0.285 N 
ATOM     30  C   UNL     1      -2.081  -5.088   0.737  0.00  0.00    +0.310 C 
ATOM     31  O   UNL     1      -2.207  -4.734   1.893  0.00  0.00    -0.252 OA
ATOM     32  H   UNL     1      -1.701  -7.122   0.949  0.00  0.00    +0.151 HD
ENDBRANCH  20  21
ENDBRANCH   2  20
TORSDOF 6
