REMARK  Name = ZINC12243906
REMARK  7 active torsions:
REMARK  status: ('A' for Active; 'I' for Inactive)
REMARK    1  A    between atoms: C_1  and  O_2
REMARK    2  A    between atoms: O_2  and  C_3
REMARK    3  A    between atoms: C_6  and  C_9
REMARK    4  A    between atoms: C_9  and  N_10
REMARK    5  A    between atoms: C_17  and  N_21
REMARK    6  A    between atoms: C_26  and  C_27
REMARK    7  A    between atoms: C_26  and  N_63
REMARK                            x       y       z     vdW  Elec       q    Type
REMARK                         _______ _______ _______ _____ _____    ______ ____
ROOT
ATOM      1  N   UNL     1      -1.469  -2.740  -3.317  0.00  0.00    -0.230 N 
ATOM      2  C   UNL     1      -2.662  -2.917  -2.721  0.00  0.00    +0.254 C 
ATOM      3  O   UNL     1      -3.585  -3.573  -3.161  0.00  0.00    -0.270 OA
ATOM      4  C   UNL     1      -2.666  -2.166  -1.448  0.00  0.00    +0.051 A 
ATOM      5  C   UNL     1      -3.598  -1.971  -0.444  0.00  0.00    +0.014 A 
ATOM      6  C   UNL     1      -3.278  -1.185   0.655  0.00  0.00    +0.003 A 
ATOM      7  C   UNL     1      -2.038  -0.593   0.757  0.00  0.00    +0.024 A 
ATOM      8  C   UNL     1      -1.083  -0.777  -0.245  0.00  0.00    +0.043 A 
ATOM      9  C   UNL     1      -1.395  -1.560  -1.355  0.00  0.00    +0.070 A 
ATOM     10  C   UNL     1      -0.667  -1.960  -2.571  0.00  0.00    +0.256 C 
ATOM     11  O   UNL     1       0.470  -1.637  -2.854  0.00  0.00    -0.269 OA
ENDROOT
BRANCH   8  12
ATOM     12  N   UNL     1       0.165  -0.180  -0.140  0.00  0.00    -0.333 N 
ATOM     13  C   UNL     1       0.044   1.283  -0.068  0.00  0.00    +0.086 C 
ATOM     14  C   UNL     1       1.441   1.907  -0.033  0.00  0.00    -0.059 C 
ATOM     15  C   UNL     1       2.300  -0.079   1.053  0.00  0.00    -0.059 C 
ATOM     16  C   UNL     1       0.903  -0.702   1.018  0.00  0.00    +0.086 C 
ATOM     17  N   UNL     1       2.164   1.390   1.148  0.00  0.00    +0.384 N 
ATOM     18  H   UNL     1       1.631   1.621   1.994  0.00  0.00    -0.081 HD
BRANCH  17  19
ATOM     19  C   UNL     1       3.501   2.017   1.237  0.00  0.00    -0.041 C 
BRANCH  19  20
ATOM     20  C   UNL     1       4.130   1.637   2.553  0.00  0.00    -0.042 A 
ATOM     21  C   UNL     1       5.161   0.716   2.584  0.00  0.00    +0.052 A 
ATOM     22  C   UNL     1       5.741   0.366   3.792  0.00  0.00    +0.167 A 
ATOM     23  C   UNL     1       5.283   0.944   4.974  0.00  0.00    +0.168 A 
ATOM     24  C   UNL     1       4.250   1.866   4.936  0.00  0.00    +0.069 A 
ATOM     25  C   UNL     1       3.679   2.215   3.725  0.00  0.00    +0.046 A 
ATOM     26 CL   UNL     1       2.389   3.377   3.679  0.00  0.00    -0.083 Cl
ATOM     27  O   UNL     1       6.008   0.440   6.015  0.00  0.00    -0.453 OA
ATOM     28  C   UNL     1       6.636  -0.751   5.506  0.00  0.00    +0.466 C 
ATOM     29  O   UNL     1       6.753  -0.499   4.093  0.00  0.00    -0.453 OA
ENDBRANCH  19  20
ENDBRANCH  17  19
ENDBRANCH   8  12
BRANCH   1  30
ATOM     30  C   UNL     1      -1.089  -3.330  -4.603  0.00  0.00    +0.152 C 
BRANCH  30  34
ATOM     31  C   UNL     1       0.678  -7.165  -3.944  0.00  0.00    +0.120 A 
ATOM     32  C   UNL     1      -0.692  -7.055  -4.135  0.00  0.00    +0.046 A 
ATOM     33  C   UNL     1      -1.260  -5.814  -4.348  0.00  0.00    +0.009 A 
ATOM     34  C   UNL     1      -0.466  -4.683  -4.370  0.00  0.00    -0.029 A 
ATOM     35  C   UNL     1       0.900  -4.791  -4.186  0.00  0.00    +0.009 A 
ATOM     36  C   UNL     1       1.473  -6.028  -3.967  0.00  0.00    +0.046 A 
BRANCH  31  38
ATOM     37  C   UNL     1       2.656  -8.423  -3.544  0.00  0.00    +0.277 C 
ATOM     38  O   UNL     1       1.240  -8.385  -3.734  0.00  0.00    -0.495 OA
ENDBRANCH  31  38
ENDBRANCH  30  34
ENDBRANCH   1  30
TORSDOF 6
