REMARK  Name = ZINC14533323
REMARK  13 active torsions:
REMARK  status: ('A' for Active; 'I' for Inactive)
REMARK    1  A    between atoms: C_1  and  C_2
REMARK    2  A    between atoms: C_2  and  N_3
REMARK    3  A    between atoms: N_3  and  C_4
REMARK    4  A    between atoms: C_6  and  C_18
REMARK    5  A    between atoms: C_8  and  S_10
REMARK    6  A    between atoms: S_10  and  N_13
REMARK    7  A    between atoms: N_13  and  C_14
REMARK    8  A    between atoms: C_14  and  C_15
REMARK    9  A    between atoms: C_14  and  C_16
REMARK   10  A    between atoms: C_14  and  C_17
REMARK   11  A    between atoms: N_20  and  C_21
REMARK   12  A    between atoms: C_21  and  C_22
REMARK   13  A    between atoms: C_28  and  N_62
REMARK                            x       y       z     vdW  Elec       q    Type
REMARK                         _______ _______ _______ _____ _____    ______ ____
ROOT
ATOM      1  C   UNL     1      -0.001   4.861  -1.843  0.00  0.00    +0.030 A 
ATOM      2  C   UNL     1      -1.010   4.645  -2.770  0.00  0.00    +0.036 A 
ATOM      3  C   UNL     1      -1.900   3.586  -2.591  0.00  0.00    +0.040 A 
ATOM      4  C   UNL     1      -1.770   2.752  -1.479  0.00  0.00    +0.041 A 
ATOM      5  C   UNL     1      -0.763   2.975  -0.563  0.00  0.00    +0.108 A 
ATOM      6  C   UNL     1       0.116   4.027  -0.737  0.00  0.00    +0.051 A 
ENDROOT
BRANCH   3   7
ATOM      7  C   UNL     1      -2.978   3.349  -3.575  0.00  0.00    +0.244 C 
ATOM      8  O   UNL     1      -3.753   2.426  -3.416  0.00  0.00    -0.270 OA
ATOM      9  N   UNL     1      -3.102   4.157  -4.647  0.00  0.00    -0.311 N 
ATOM     10  H   UNL     1      -2.483   4.893  -4.773  0.00  0.00    +0.149 HD
BRANCH   9  11
ATOM     11  C   UNL     1      -4.170   3.922  -5.621  0.00  0.00    +0.106 C 
BRANCH  11  12
ATOM     12  C   UNL     1      -4.087   4.971  -6.732  0.00  0.00    -0.011 C 
ATOM     13  C   UNL     1      -5.126   4.656  -7.811  0.00  0.00    +0.001 C 
ATOM     14  C   UNL     1      -5.077   5.744  -8.888  0.00  0.00    -0.018 C 
ATOM     15  C   UNL     1      -5.332   7.107  -8.241  0.00  0.00    -0.079 C 
ATOM     16  C   UNL     1      -4.370   6.357  -6.147  0.00  0.00    -0.074 C 
ATOM     17  C   UNL     1      -4.442   8.720  -6.670  0.00  0.00    -0.096 C 
ATOM     18  N   UNL     1      -4.285   7.361  -7.229  0.00  0.00    +0.378 N 
ATOM     19  H   UNL     1      -3.364   7.289  -7.677  0.00  0.00    -0.082 HD
ENDBRANCH  11  12
ENDBRANCH   9  11
ENDBRANCH   3   7
BRANCH   5  20
ATOM     20  S   UNL     1      -0.602   1.919   0.839  0.00  0.00    +0.059 S 
ATOM     21  O   UNL     1      -1.802   1.162   0.917  0.00  0.00    -0.153 OA
ATOM     22  O   UNL     1      -0.144   2.733   1.910  0.00  0.00    -0.153 OA
BRANCH  20  23
ATOM     23  N   UNL     1       0.615   0.846   0.506  0.00  0.00    -0.185 NA
ATOM     24  H   UNL     1       1.436   0.869   1.022  0.00  0.00    +0.149 HD
BRANCH  23  25
ATOM     25  C   UNL     1       0.448  -0.142  -0.563  0.00  0.00    +0.032 C 
ATOM     26  C   UNL     1      -0.011   0.563  -1.841  0.00  0.00    +0.029 C 
ATOM     27  C   UNL     1       1.782  -0.845  -0.820  0.00  0.00    +0.029 C 
ATOM     28  C   UNL     1      -0.601  -1.174  -0.145  0.00  0.00    +0.029 C 
ENDBRANCH  23  25
ENDBRANCH  20  23
ENDBRANCH   5  20
BRANCH   1  29
ATOM     29  N   UNL     1       0.893   5.920  -2.017  0.00  0.00    -0.344 N 
ATOM     30  H   UNL     1       1.598   6.072  -1.369  0.00  0.00    +0.146 HD
BRANCH  29  32
ATOM     31  C   UNL     1       1.859   7.871  -3.131  0.00  0.00    +0.024 C 
ATOM     32  C   UNL     1       0.765   6.803  -3.180  0.00  0.00    +0.098 C 
ENDBRANCH  29  32
ENDBRANCH   1  29
TORSDOF 8
