REMARK  Name = ZINC32198991
REMARK  3 active torsions:
REMARK  status: ('A' for Active; 'I' for Inactive)
REMARK    1  A    between atoms: C_6  and  S_7
REMARK    2  A    between atoms: S_7  and  N_10
REMARK    3  A    between atoms: C_13  and  C_16
REMARK                            x       y       z     vdW  Elec       q    Type
REMARK                         _______ _______ _______ _____ _____    ______ ____
ROOT
ATOM      1  S   UNL     1       3.402  -0.819   1.497  0.00  0.00    +0.061 S 
ATOM      2  O   UNL     1       4.396   0.011   2.084  0.00  0.00    -0.153 OA
ATOM      3  O   UNL     1       2.987  -2.043   2.087  0.00  0.00    -0.153 OA
ENDROOT
BRANCH   1   9
ATOM      4  C   UNL     1       3.515  -2.350  -0.762  0.00  0.00    +0.029 A 
ATOM      5  C   UNL     1       3.959  -2.646  -2.034  0.00  0.00    +0.006 A 
ATOM      6  C   UNL     1       4.864  -1.812  -2.678  0.00  0.00    -0.044 A 
ATOM      7  C   UNL     1       5.314  -0.675  -2.044  0.00  0.00    -0.042 A 
ATOM      8  C   UNL     1       4.862  -0.377  -0.765  0.00  0.00    +0.032 A 
ATOM      9  C   UNL     1       3.966  -1.208  -0.126  0.00  0.00    +0.106 A 
ATOM     10  C   UNL     1       6.286   0.279  -2.686  0.00  0.00    +0.035 C 
ATOM     11  C   UNL     1       6.998  -0.388  -3.860  0.00  0.00    +0.005 C 
ATOM     12  C   UNL     1       5.939  -1.008  -4.779  0.00  0.00    +0.005 C 
ATOM     13  C   UNL     1       5.317  -2.203  -4.060  0.00  0.00    +0.035 C 
ENDBRANCH   1   9
BRANCH   1  14
ATOM     14  N   UNL     1       2.043   0.113   1.334  0.00  0.00    -0.177 NA
ATOM     15  C   UNL     1       0.714  -0.508   1.262  0.00  0.00    +0.111 C 
ATOM     16  C   UNL     1       0.002  -0.004   0.002  0.00  0.00    +0.035 C 
ATOM     17  C   UNL     1      -0.019   1.526   0.010  0.00  0.00    +0.094 C 
ATOM     18  C   UNL     1       1.417   2.058  -0.000  0.00  0.00    +0.035 C 
ATOM     19  C   UNL     1       2.144   1.577   1.259  0.00  0.00    +0.111 C 
BRANCH  17  20
ATOM     20  C   UNL     1      -0.731   2.014  -1.182  0.00  0.00    +0.066 C 
ATOM     21  N   UNL     1      -1.281   2.390  -2.102  0.00  0.00    -0.196 NA
ENDBRANCH  17  20
ENDBRANCH   1  14
TORSDOF 3
