REMARK  Name = ZINC00445989
REMARK  2 active torsions:
REMARK  status: ('A' for Active; 'I' for Inactive)
REMARK    1  A    between atoms: C_6  and  C_7
REMARK    2  A    between atoms: C_9  and  C_12
REMARK                            x       y       z     vdW  Elec       q    Type
REMARK                         _______ _______ _______ _____ _____    ______ ____
ROOT
ATOM      1  C   UNL     1      -3.995   1.699  -4.262  0.00  0.00    +0.202 A 
ATOM      2  N   UNL     1      -3.458   0.826  -3.380  0.00  0.00    -0.191 NA
ATOM      3  C   UNL     1      -2.917   1.562  -2.442  0.00  0.00    +0.231 A 
ATOM      4  O   UNL     1      -3.138   2.840  -2.768  0.00  0.00    -0.337 OA
ATOM      5  N   UNL     1      -3.750   2.902  -3.813  0.00  0.00    -0.056 NA
ENDROOT
BRANCH   1  11
ATOM      6  C   UNL     1      -4.918   0.023  -5.883  0.00  0.00    +0.031 A 
ATOM      7  C   UNL     1      -5.606  -0.252  -7.047  0.00  0.00    +0.111 A 
ATOM      8  N   UNL     1      -6.071   0.722  -7.805  0.00  0.00    -0.263 NA
ATOM      9  C   UNL     1      -5.907   1.992  -7.490  0.00  0.00    +0.111 A 
ATOM     10  C   UNL     1      -5.234   2.355  -6.340  0.00  0.00    +0.031 A 
ATOM     11  C   UNL     1      -4.725   1.355  -5.508  0.00  0.00    +0.025 A 
ENDBRANCH   1  11
BRANCH   3  12
ATOM     12  C   UNL     1      -2.188   1.063  -1.221  0.00  0.00    +0.078 C 
ATOM     13  C   UNL     1      -0.753   1.593  -1.232  0.00  0.00    +0.013 C 
ATOM     14  C   UNL     1      -0.013   1.086   0.008  0.00  0.00    +0.001 C 
ATOM     15  C   UNL     1      -0.729   1.579   1.267  0.00  0.00    +0.000 C 
ATOM     16  C   UNL     1      -2.164   1.050   1.278  0.00  0.00    +0.001 C 
ATOM     17  C   UNL     1      -2.904   1.556   0.038  0.00  0.00    +0.013 C 
ENDBRANCH   3  12
TORSDOF 2
