REMARK  Name = ZINC64684172
REMARK  10 active torsions:
REMARK  status: ('A' for Active; 'I' for Inactive)
REMARK    1  A    between atoms: C_1  and  O_2
REMARK    2  A    between atoms: O_2  and  C_3
REMARK    3  A    between atoms: C_6  and  N_9
REMARK    4  A    between atoms: C_10  and  S_15
REMARK    5  A    between atoms: S_15  and  C_16
REMARK    6  A    between atoms: C_16  and  C_17
REMARK    7  A    between atoms: N_19  and  CA_20
REMARK    8  A    between atoms: CA_20  and  CB_22
REMARK    9  A    between atoms: CA_20  and  C_32
REMARK   10  A    between atoms: CB_22  and  CG_23
REMARK                            x       y       z     vdW  Elec       q    Type
REMARK                         _______ _______ _______ _____ _____    ______ ____
ROOT
ATOM      1  C   UNK A   0       0.221  -3.821  -6.128  0.00  0.00    +0.167 C 
ENDROOT
BRANCH   1   2
ATOM      2  C   UNK A   0      -1.163  -4.358  -6.383  0.00  0.00    +0.224 C 
ATOM      3  O   UNK A   0      -1.621  -5.221  -5.664  0.00  0.00    -0.275 OA
ATOM      4  N   TRP A   1      -1.893  -3.880  -7.410  0.00  0.00    -0.301 N 
ATOM      5  H   TRP A   1      -1.527  -3.190  -7.985  0.00  0.00    +0.150 HD
BRANCH   4   6
ATOM      6  CA  TRP A   1      -3.239  -4.402  -7.659  0.00  0.00    +0.190 C 
BRANCH   6   7
ATOM      7  C   TRP A   1      -3.147  -5.652  -8.495  0.00  0.00    +0.376 C 
ATOM      8  O   TRP A   1      -3.988  -6.527  -8.380  0.00  0.00    -0.244 OA
ATOM      9  OXT TRP A   1      -2.231  -5.789  -9.288  0.00  0.00    -0.244 OA
ENDBRANCH   6   7
BRANCH   6  10
ATOM     10  CB  TRP A   1      -4.065  -3.350  -8.402  0.00  0.00    +0.067 C 
BRANCH  10  11
ATOM     11  CG  TRP A   1      -4.261  -2.147  -7.516  0.00  0.00    -0.039 C 
ATOM     12  CD2 TRP A   1      -3.515  -1.019  -7.500  0.00  0.00    -0.001 A 
ATOM     13  CE3 TRP A   1      -2.343  -0.591  -8.272  0.00  0.00    +0.010 A 
ATOM     14  CZ3 TRP A   1      -1.802   0.623  -8.025  0.00  0.00    +0.001 A 
ATOM     15  CH2 TRP A   1      -2.332   1.482  -7.051  0.00  0.00    +0.002 A 
ATOM     16  CZ2 TRP A   1      -3.407   1.159  -6.302  0.00  0.00    +0.026 A 
ATOM     17  CE2 TRP A   1      -4.056  -0.094  -6.479  0.00  0.00    +0.043 A 
ATOM     18  NE1 TRP A   1      -5.096  -0.630  -5.886  0.00  0.00    -0.380 N 
ATOM     19  CD1 TRP A   1      -5.336  -1.954  -6.470  0.00  0.00    +0.144 C 
ATOM     20  HE1 TRP A   1      -5.621  -0.218  -5.182  0.00  0.00    +0.160 HD
ENDBRANCH  10  11
ENDBRANCH   6  10
ENDBRANCH   4   6
ENDBRANCH   1   2
BRANCH   1  21
ATOM     21  S   UNK A   0       0.939  -4.659  -4.688  0.00  0.00    -0.114 S 
BRANCH  21  23
ATOM     22  N   UNK A   0       2.458  -2.457  -4.301  0.00  0.00    -0.254 N 
ATOM     23  C   UNK A   0       2.581  -3.909  -4.517  0.00  0.00    +0.203 C 
ATOM     24  N   UNK A   0       3.350  -4.064  -5.776  0.00  0.00    -0.320 NA
ATOM     25  N   UNK A   0       4.047  -2.771  -5.891  0.00  0.00    +0.411 N 
ATOM     26  N   UNK A   0       3.055  -1.821  -5.363  0.00  0.00    -0.265 NA
ATOM     27  H   UNK A   0       4.009  -4.825  -5.706  0.00  0.00    +0.106 HD
ATOM     28  H   UNK A   0       4.886  -2.766  -5.330  0.00  0.00    -0.031 HD
ATOM     29  H   UNK A   0       2.376  -1.575  -6.066  0.00  0.00    +0.125 HD
ATOM     30  H   UNK A   0       4.260  -2.564  -6.855  0.00  0.00    -0.031 HD
BRANCH  22  34
ATOM     31  C   UNK A   0       0.606  -0.608  -1.056  0.00  0.00    +0.120 A 
ATOM     32  C   UNK A   0       1.173   0.162  -2.062  0.00  0.00    +0.047 A 
ATOM     33  C   UNK A   0       1.786  -0.451  -3.137  0.00  0.00    +0.028 A 
ATOM     34  C   UNK A   0       1.836  -1.836  -3.212  0.00  0.00    +0.045 A 
ATOM     35  C   UNK A   0       1.269  -2.605  -2.204  0.00  0.00    +0.028 A 
ATOM     36  C   UNK A   0       0.660  -1.992  -1.127  0.00  0.00    +0.047 A 
BRANCH  31  38
ATOM     37  C   UNK A   0      -0.017   1.425   0.010  0.00  0.00    +0.277 C 
ATOM     38  O   UNK A   0       0.002  -0.004   0.002  0.00  0.00    -0.495 OA
ENDBRANCH  31  38
ENDBRANCH  22  34
ENDBRANCH  21  23
ENDBRANCH   1  21
TORSDOF 9
