REMARK  Name = ZINC65909775
REMARK  10 active torsions:
REMARK  status: ('A' for Active; 'I' for Inactive)
REMARK    1  A    between atoms: C_1  and  N_2
REMARK    2  A    between atoms: N_2  and  C_3
REMARK    3  A    between atoms: N_2  and  C_4
REMARK    4  A    between atoms: C_4  and  C_5
REMARK    5  A    between atoms: C_5  and  C_6
REMARK    6  A    between atoms: N_8  and  C_9
REMARK    7  A    between atoms: C_12  and  N_15
REMARK    8  A    between atoms: C_16  and  C_18
REMARK    9  A    between atoms: C_22  and  N_25
REMARK   10  A    between atoms: C_23  and  N_24
REMARK                            x       y       z     vdW  Elec       q    Type
REMARK                         _______ _______ _______ _____ _____    ______ ____
ROOT
ATOM      1  N   UNL     1      -8.279  -5.668  -0.589  0.00  0.00    -0.281 N 
ATOM      2  C   UNL     1      -9.182  -4.893  -1.221  0.00  0.00    +0.250 C 
ATOM      3  O   UNL     1      -8.849  -3.813  -1.670  0.00  0.00    -0.270 OA
ATOM      4  H   UNL     1      -8.557  -6.503  -0.180  0.00  0.00    +0.155 HD
ENDROOT
BRANCH   2   5
ATOM      5  C   UNL     1     -10.574  -5.355  -1.369  0.00  0.00    +0.063 A 
ATOM      6  C   UNL     1     -10.988  -6.546  -0.765  0.00  0.00    +0.053 A 
ATOM      7  C   UNL     1     -12.292  -6.972  -0.908  0.00  0.00    +0.126 A 
ATOM      8  C   UNL     1     -13.196  -6.224  -1.649  0.00  0.00    +0.073 A 
ATOM      9  C   UNL     1     -12.801  -5.047  -2.251  0.00  0.00    +0.150 A 
ATOM     10  C   UNL     1     -11.493  -4.599  -2.113  0.00  0.00    +0.068 A 
ATOM     11  F   UNL     1     -12.691  -8.123  -0.324  0.00  0.00    -0.205 F 
BRANCH  10  12
ATOM     12  N   UNL     1     -11.095  -3.410  -2.713  0.00  0.00    -0.356 N 
ATOM     13  H   UNL     1     -11.553  -3.091  -3.507  0.00  0.00    +0.142 HD
ATOM     14  H   UNL     1     -10.361  -2.899  -2.338  0.00  0.00    +0.142 HD
ENDBRANCH  10  12
BRANCH   9  15
ATOM     15  N   UNL     1     -13.773  -4.258  -3.040  0.00  0.00    +0.058 N 
ATOM     16  O   UNL     1     -14.933  -4.597  -3.085  0.00  0.00    -0.126 OA
ATOM     17  O   UNL     1     -13.408  -3.274  -3.640  0.00  0.00    -0.126 OA
ENDBRANCH   9  15
ENDBRANCH   2   5
BRANCH   1  21
ATOM     18  C   UNL     1      -4.288  -4.479  -0.389  0.00  0.00    +0.033 A 
ATOM     19  C   UNL     1      -5.299  -3.529  -0.333  0.00  0.00    +0.025 A 
ATOM     20  C   UNL     1      -6.620  -3.922  -0.400  0.00  0.00    +0.025 A 
ATOM     21  C   UNL     1      -6.938  -5.269  -0.522  0.00  0.00    +0.034 A 
ATOM     22  C   UNL     1      -5.927  -6.219  -0.578  0.00  0.00    +0.025 A 
ATOM     23  C   UNL     1      -4.606  -5.825  -0.517  0.00  0.00    +0.025 A 
BRANCH  18  26
ATOM     24  C   UNL     1      -2.011  -4.737  -1.035  0.00  0.00    +0.215 C 
ATOM     25  O   UNL     1      -2.317  -5.719  -1.677  0.00  0.00    -0.276 OA
ATOM     26  N   UNL     1      -2.947  -4.080  -0.322  0.00  0.00    -0.286 N 
ATOM     27  H   UNL     1      -2.692  -3.329   0.238  0.00  0.00    +0.155 HD
BRANCH  24  28
ATOM     28  C   UNL     1      -0.584  -4.252  -1.034  0.00  0.00    +0.077 C 
BRANCH  28  29
ATOM     29  C   UNL     1       0.267  -5.168  -1.916  0.00  0.00    -0.070 C 
BRANCH  29  31
ATOM     30  C   UNL     1       2.497  -5.641  -2.663  0.00  0.00    -0.097 C 
ATOM     31  N   UNL     1       1.657  -4.696  -1.915  0.00  0.00    +0.376 N 
ATOM     32  C   UNL     1       1.725  -3.373  -2.551  0.00  0.00    -0.097 C 
ATOM     33  H   UNL     1       1.990  -4.629  -0.965  0.00  0.00    -0.083 HD
ENDBRANCH  29  31
ENDBRANCH  28  29
ENDBRANCH  24  28
ENDBRANCH  18  26
ENDBRANCH   1  21
TORSDOF 8
