REMARK  Name = ZINC12123269
REMARK  2 active torsions:
REMARK  status: ('A' for Active; 'I' for Inactive)
REMARK    1  A    between atoms: C_12  and  C_14
REMARK    2  A    between atoms: C_23  and  C_25
REMARK                            x       y       z     vdW  Elec       q    Type
REMARK                         _______ _______ _______ _____ _____    ______ ____
ROOT
ATOM      1  C   UNL     1      -7.168   3.530  -1.571  0.00  0.00    +0.082 C 
ATOM      2  C   UNL     1      -6.813   3.476  -0.084  0.00  0.00    +0.021 C 
ATOM      3  C   UNL     1      -5.929   2.764  -1.107  0.00  0.00    -0.015 C 
ATOM      4  C   UNL     1      -5.980   1.234  -1.149  0.00  0.00    +0.026 C 
ATOM      5  C   UNL     1      -4.920   0.678  -0.191  0.00  0.00    +0.108 C 
ATOM      6  N   UNL     1      -3.631   1.314  -0.490  0.00  0.00    -0.297 N 
ATOM      7  C   UNL     1      -3.525   2.778  -0.442  0.00  0.00    +0.108 C 
ATOM      8  C   UNL     1      -4.558   3.377  -1.411  0.00  0.00    +0.026 C 
ATOM      9  C   UNL     1      -2.556   0.563  -0.801  0.00  0.00    +0.247 C 
ATOM     10  O   UNL     1      -2.673  -0.640  -0.933  0.00  0.00    -0.270 OA
ENDROOT
BRANCH   1  22
ATOM     11  C   UNL     1      -8.567   3.994  -9.636  0.00  0.00    +0.005 A 
ATOM     12  C   UNL     1      -9.320   5.134  -9.886  0.00  0.00    +0.018 A 
ATOM     13  C   UNL     1      -9.340   6.149  -8.951  0.00  0.00    +0.084 A 
ATOM     14  C   UNL     1      -7.925   4.979  -7.553  0.00  0.00    +0.099 A 
ATOM     15  C   UNL     1      -7.854   3.920  -8.453  0.00  0.00    +0.042 A 
ATOM     16  N   UNL     1      -7.219   4.915  -6.357  0.00  0.00    -0.314 N 
ATOM     17  C   UNL     1      -7.424   6.131  -5.559  0.00  0.00    +0.125 C 
ATOM     18  C   UNL     1      -6.493   6.102  -4.342  0.00  0.00    +0.126 C 
ATOM     19  N   UNL     1      -6.709   4.840  -3.619  0.00  0.00    -0.298 N 
ATOM     20  C   UNL     1      -6.649   3.583  -4.380  0.00  0.00    +0.126 C 
ATOM     21  C   UNL     1      -7.579   3.711  -5.596  0.00  0.00    +0.125 C 
ATOM     22  C   UNL     1      -6.949   4.835  -2.292  0.00  0.00    +0.219 C 
ATOM     23  O   UNL     1      -6.990   5.881  -1.680  0.00  0.00    -0.275 OA
ATOM     24  N   UNL     1      -8.657   6.108  -7.775  0.00  0.00    -0.350 N 
ATOM     25  H   UNL     1      -8.691   6.879  -7.098  0.00  0.00    +0.166 HD
ENDBRANCH   1  22
BRANCH   9  26
ATOM     26  C   UNL     1      -1.236   1.201  -0.981  0.00  0.00    +0.038 A 
ATOM     27  C   UNL     1      -0.884   2.311  -0.211  0.00  0.00    +0.016 A 
ATOM     28  C   UNL     1       0.347   2.907  -0.386  0.00  0.00    +0.040 A 
ATOM     29  C   UNL     1       1.238   2.402  -1.321  0.00  0.00    +0.142 A 
ATOM     30  C   UNL     1       0.895   1.295  -2.085  0.00  0.00    +0.077 A 
ATOM     31  C   UNL     1      -0.334   0.692  -1.917  0.00  0.00    +0.036 A 
ATOM     32 CL   UNL     1       2.016   0.669  -3.253  0.00  0.00    -0.081 Cl
ATOM     33  F   UNL     1       2.443   2.989  -1.489  0.00  0.00    -0.204 F 
ENDBRANCH   9  26
TORSDOF 2
