REMARK  Name = ZINC65314903
REMARK  3 active torsions:
REMARK  status: ('A' for Active; 'I' for Inactive)
REMARK    1  A    between atoms: C_13  and  C_15
REMARK    2  A    between atoms: C_15  and  N_16
REMARK    3  A    between atoms: C_19  and  C_27
REMARK                            x       y       z     vdW  Elec       q    Type
REMARK                         _______ _______ _______ _____ _____    ______ ____
ROOT
ATOM      1  N   UNL     1       0.253  -8.084   1.201  0.00  0.00    -0.261 N 
ATOM      2  C   UNL     1       0.397  -8.699  -0.041  0.00  0.00    +0.051 A 
ATOM      3  C   UNL     1       0.584  -7.917  -1.169  0.00  0.00    +0.037 A 
ATOM      4  C   UNL     1       0.725  -8.516  -2.422  0.00  0.00    +0.039 A 
ATOM      5  C   UNL     1       0.678  -9.908  -2.544  0.00  0.00    +0.014 A 
ATOM      6  C   UNL     1       0.494 -10.687  -1.423  0.00  0.00    +0.017 A 
ATOM      7  C   UNL     1       0.356 -10.091  -0.176  0.00  0.00    +0.030 A 
ATOM      8  S   UNL     1       0.131 -11.086   1.264  0.00  0.00    -0.114 S 
ATOM      9  C   UNL     1       0.900 -10.076   2.566  0.00  0.00    +0.170 C 
ATOM     10  C   UNL     1       0.472  -8.645   2.387  0.00  0.00    +0.230 C 
ATOM     11  O   UNL     1       0.316  -7.965   3.380  0.00  0.00    -0.274 OA
ENDROOT
BRANCH   4  12
ATOM     12  C   UNL     1       0.924  -7.679  -3.620  0.00  0.00    +0.247 C 
ATOM     13  O   UNL     1       1.656  -6.709  -3.569  0.00  0.00    -0.270 OA
ATOM     14  N   UNL     1       0.295  -7.989  -4.771  0.00  0.00    -0.298 N 
ATOM     15  C   UNL     1      -0.688  -9.080  -4.816  0.00  0.00    +0.108 C 
ATOM     16  C   UNL     1      -1.994  -8.542  -5.409  0.00  0.00    +0.019 C 
ATOM     17  C   UNL     1      -1.707  -7.898  -6.767  0.00  0.00    +0.003 C 
ATOM     18  C   UNL     1      -0.741  -6.725  -6.583  0.00  0.00    +0.019 C 
ATOM     19  C   UNL     1       0.576  -7.239  -6.003  0.00  0.00    +0.108 C 
ENDBRANCH   4  12
BRANCH   1  20
ATOM     20  C   UNL     1      -0.176  -6.683   1.200  0.00  0.00    +0.209 C 
BRANCH  20  33
ATOM     21  C   UNL     1       1.350   1.556  -0.026  0.00  0.00    +0.005 A 
ATOM     22  C   UNL     1       0.059   2.062  -0.111  0.00  0.00    +0.018 A 
ATOM     23  C   UNL     1      -1.006   1.188  -0.182  0.00  0.00    +0.084 A 
ATOM     24  N   UNL     1      -0.813  -0.118  -0.169  0.00  0.00    -0.350 N 
ATOM     25  C   UNL     1       0.401  -0.639  -0.089  0.00  0.00    +0.099 A 
ATOM     26  C   UNL     1       1.521   0.183  -0.015  0.00  0.00    +0.042 A 
ATOM     27  N   UNL     1       0.559  -2.020  -0.078  0.00  0.00    -0.314 N 
ATOM     28  C   UNL     1       1.900  -2.620  -0.120  0.00  0.00    +0.125 C 
ATOM     29  C   UNL     1       2.053  -3.562   1.081  0.00  0.00    +0.126 C 
ATOM     30  N   UNL     1       0.881  -4.448   1.134  0.00  0.00    -0.297 N 
ATOM     31  C   UNL     1      -0.460  -3.848   1.176  0.00  0.00    +0.126 C 
ATOM     32  C   UNL     1      -0.612  -2.906  -0.019  0.00  0.00    +0.125 C 
ATOM     33  C   UNL     1       1.034  -5.787   1.145  0.00  0.00    +0.233 C 
ATOM     34  O   UNL     1       2.146  -6.271   1.110  0.00  0.00    -0.274 OA
ATOM     35  H   UNL     1      -1.579  -0.710  -0.220  0.00  0.00    +0.166 HD
ENDBRANCH  20  33
ENDBRANCH   1  20
TORSDOF 3
