REMARK  Name = ZINC36143249
REMARK  5 active torsions:
REMARK  status: ('A' for Active; 'I' for Inactive)
REMARK    1  A    between atoms: C_1  and  C_2
REMARK    2  A    between atoms: C_2  and  C_3
REMARK    3  A    between atoms: C_2  and  C_4
REMARK    4  A    between atoms: C_13  and  C_15
REMARK    5  A    between atoms: C_19  and  N_21
REMARK                            x       y       z     vdW  Elec       q    Type
REMARK                         _______ _______ _______ _____ _____    ______ ____
ROOT
ATOM      1  C   UNL     1       0.731  -0.503   1.223  0.00  0.00    -0.044 A 
ATOM      2  C   UNL     1       2.055  -0.145   1.432  0.00  0.00    +0.007 A 
ATOM      3  C   UNL     1       2.738  -0.592   2.542  0.00  0.00    +0.047 A 
ATOM      4  C   UNL     1       2.099  -1.410   3.466  0.00  0.00    +0.139 A 
ATOM      5  C   UNL     1       0.760  -1.772   3.254  0.00  0.00    +0.064 A 
ATOM      6  C   UNL     1       0.078  -1.309   2.130  0.00  0.00    +0.019 A 
ATOM      7  C   UNL     1       0.100  -2.642   4.248  0.00  0.00    +0.193 A 
ATOM      8  O   UNL     1      -1.062  -2.989   4.115  0.00  0.00    -0.287 OA
ATOM      9  C   UNL     1       0.868  -3.058   5.359  0.00  0.00    +0.098 A 
ATOM     10  C   UNL     1       2.162  -2.650   5.470  0.00  0.00    +0.139 A 
ATOM     11  O   UNL     1       2.750  -1.859   4.560  0.00  0.00    -0.455 OA
ENDROOT
BRANCH  10  12
ATOM     12  C   UNL     1       2.948  -3.095   6.637  0.00  0.00    +0.019 A 
ATOM     13  C   UNL     1       2.366  -3.924   7.600  0.00  0.00    +0.014 A 
ATOM     14  C   UNL     1       3.103  -4.339   8.689  0.00  0.00    +0.041 A 
ATOM     15  C   UNL     1       4.420  -3.936   8.834  0.00  0.00    +0.144 A 
ATOM     16  C   UNL     1       5.009  -3.110   7.880  0.00  0.00    +0.061 A 
ATOM     17  C   UNL     1       4.278  -2.693   6.780  0.00  0.00    +0.037 A 
ATOM     18  F   UNL     1       5.136  -4.346   9.904  0.00  0.00    -0.204 F 
BRANCH  16  19
ATOM     19  N   UNL     1       6.339  -2.705   8.031  0.00  0.00    -0.356 N 
ATOM     20  H   UNL     1       6.852  -3.000   8.800  0.00  0.00    +0.142 HD
ATOM     21  H   UNL     1       6.749  -2.129   7.366  0.00  0.00    +0.142 HD
ENDBRANCH  16  19
ENDBRANCH  10  12
BRANCH   1  23
ATOM     22  C   UNL     1      -0.019   1.526   0.010  0.00  0.00    +0.012 C 
ATOM     23  C   UNL     1       0.002  -0.004   0.002  0.00  0.00    +0.013 C 
ATOM     24  C   UNL     1       0.718  -0.497  -1.257  0.00  0.00    +0.012 C 
ENDBRANCH   1  23
TORSDOF 3
