REMARK  Name = ZINC38663676
REMARK  10 active torsions:
REMARK  status: ('A' for Active; 'I' for Inactive)
REMARK    1  A    between atoms: C_1  and  C_2
REMARK    2  A    between atoms: C_2  and  C_4
REMARK    3  A    between atoms: C_2  and  N_14
REMARK    4  A    between atoms: C_7  and  S_10
REMARK    5  A    between atoms: S_10  and  N_13
REMARK    6  A    between atoms: N_17  and  C_18
REMARK    7  A    between atoms: C_18  and  C_20
REMARK    8  A    between atoms: C_18  and  C_21
REMARK    9  A    between atoms: C_24  and  S_27
REMARK   10  A    between atoms: S_27  and  N_30
REMARK                            x       y       z     vdW  Elec       q    Type
REMARK                         _______ _______ _______ _____ _____    ______ ____
ROOT
ATOM      1  N   UNL     1       0.711  -0.489   1.189  0.00  0.00    -0.293 N 
ATOM      2  C   UNL     1       0.051  -0.633   2.355  0.00  0.00    +0.301 C 
ATOM      3  O   UNL     1      -1.132  -0.361   2.423  0.00  0.00    -0.253 OA
ATOM      4  N   UNL     1       0.703  -1.080   3.447  0.00  0.00    -0.293 N 
ATOM      5  H   UNL     1       1.654  -0.707   1.135  0.00  0.00    +0.151 HD
ATOM      6  H   UNL     1       1.647  -1.298   3.394  0.00  0.00    +0.151 HD
ENDROOT
BRANCH   1   8
ATOM      7  C   UNL     1      -0.019   1.526   0.010  0.00  0.00    +0.033 C 
ATOM      8  C   UNL     1       0.002  -0.004   0.002  0.00  0.00    +0.102 C 
BRANCH   8   9
ATOM      9  C   UNL     1       0.707  -0.490  -1.238  0.00  0.00    -0.027 A 
ATOM     10  C   UNL     1       2.089  -0.511  -1.284  0.00  0.00    +0.007 A 
ATOM     11  C   UNL     1       2.736  -0.957  -2.421  0.00  0.00    +0.029 A 
ATOM     12  C   UNL     1       2.002  -1.382  -3.512  0.00  0.00    +0.105 A 
ATOM     13  C   UNL     1       0.620  -1.362  -3.466  0.00  0.00    +0.029 A 
ATOM     14  C   UNL     1      -0.027  -0.920  -2.327  0.00  0.00    +0.007 A 
BRANCH  12  15
ATOM     15  S   UNL     1       2.826  -1.949  -4.962  0.00  0.00    +0.056 S 
ATOM     16  O   UNL     1       1.916  -1.778  -6.040  0.00  0.00    -0.153 OA
ATOM     17  O   UNL     1       4.117  -1.356  -4.954  0.00  0.00    -0.153 OA
BRANCH  15  18
ATOM     18  N   UNL     1       3.054  -3.580  -4.790  0.00  0.00    -0.204 NA
ATOM     19  H   UNL     1       2.745  -4.031  -3.989  0.00  0.00    +0.144 HD
ATOM     20  H   UNL     1       3.497  -4.085  -5.490  0.00  0.00    +0.144 HD
ENDBRANCH  15  18
ENDBRANCH  12  15
ENDBRANCH   8   9
ENDBRANCH   1   8
BRANCH   4  21
ATOM     21  C   UNL     1      -0.014  -1.237   4.715  0.00  0.00    +0.102 C 
ATOM     22  C   UNL     1      -0.701  -2.603   4.747  0.00  0.00    +0.033 C 
BRANCH  21  23
ATOM     23  C   UNL     1       0.962  -1.138   5.859  0.00  0.00    -0.027 A 
ATOM     24  C   UNL     1       2.210  -1.724   5.756  0.00  0.00    +0.007 A 
ATOM     25  C   UNL     1       3.105  -1.634   6.805  0.00  0.00    +0.029 A 
ATOM     26  C   UNL     1       2.753  -0.958   7.958  0.00  0.00    +0.105 A 
ATOM     27  C   UNL     1       1.505  -0.371   8.062  0.00  0.00    +0.029 A 
ATOM     28  C   UNL     1       0.612  -0.458   7.011  0.00  0.00    +0.007 A 
BRANCH  26  29
ATOM     29  S   UNL     1       3.893  -0.844   9.296  0.00  0.00    +0.056 S 
ATOM     30  O   UNL     1       3.122  -0.627  10.470  0.00  0.00    -0.153 OA
ATOM     31  O   UNL     1       4.786  -1.941   9.164  0.00  0.00    -0.153 OA
BRANCH  29  32
ATOM     32  N   UNL     1       4.790   0.528   9.060  0.00  0.00    -0.204 NA
ATOM     33  H   UNL     1       4.625   1.089   8.286  0.00  0.00    +0.144 HD
ATOM     34  H   UNL     1       5.481   0.771   9.696  0.00  0.00    +0.144 HD
ENDBRANCH  29  32
ENDBRANCH  26  29
ENDBRANCH  21  23
ENDBRANCH   4  21
TORSDOF 8
