REMARK  Name = ZINC30987424
REMARK  8 active torsions:
REMARK  status: ('A' for Active; 'I' for Inactive)
REMARK    1  A    between atoms: C_1  and  C_2
REMARK    2  A    between atoms: C_2  and  C_4
REMARK    3  A    between atoms: C_2  and  N_15
REMARK    4  A    between atoms: C_7  and  N_10
REMARK    5  A    between atoms: C_16  and  C_18
REMARK    6  A    between atoms: N_21  and  C_24
REMARK    7  A    between atoms: C_24  and  C_25
REMARK    8  A    between atoms: C_27  and  C_30
REMARK                            x       y       z     vdW  Elec       q    Type
REMARK                         _______ _______ _______ _____ _____    ______ ____
ROOT
ATOM      1  C   UNL     1       2.771  -1.068   2.422  0.00  0.00    +0.071 C 
ATOM      2  C   UNL     1       2.492  -0.115   3.587  0.00  0.00    -0.006 C 
ATOM      3  C   UNL     1       3.277  -0.576   4.817  0.00  0.00    -0.077 C 
ATOM      4  N   UNL     1       4.712  -0.590   4.506  0.00  0.00    +0.386 N 
ATOM      5  C   UNL     1       5.011  -1.534   3.421  0.00  0.00    -0.077 C 
ATOM      6  C   UNL     1       4.278  -1.101   2.150  0.00  0.00    -0.006 C 
ATOM      7  H   UNL     1       4.990   0.416   4.161  0.00  0.00    -0.081 HD
ENDROOT
BRANCH   1   9
ATOM      8  N   UNL     1       0.705  -0.474   1.198  0.00  0.00    -0.309 N 
ATOM      9  C   UNL     1       2.048  -0.584   1.191  0.00  0.00    +0.216 C 
ATOM     10  O   UNL     1       2.675  -0.295   0.194  0.00  0.00    -0.276 OA
ATOM     11  H   UNL     1       0.137  -0.737   2.103  0.00  0.00    +0.149 HD
BRANCH   8  13
ATOM     12  C   UNL     1      -0.019   1.526  -0.009  0.00  0.00    +0.033 C 
ATOM     13  C   UNL     1       0.002  -0.004   0.002  0.00  0.00    +0.100 C 
BRANCH  13  14
ATOM     14  C   UNL     1      -1.412  -0.526   0.013  0.00  0.00    -0.027 A 
ATOM     15  C   UNL     1      -2.123  -0.566   1.198  0.00  0.00    +0.007 A 
ATOM     16  C   UNL     1      -3.421  -1.038   1.210  0.00  0.00    +0.023 A 
ATOM     17  C   UNL     1      -4.008  -1.483   0.032  0.00  0.00    +0.030 A 
ATOM     18  C   UNL     1      -3.288  -1.447  -1.155  0.00  0.00    +0.023 A 
ATOM     19  C   UNL     1      -1.992  -0.969  -1.161  0.00  0.00    +0.007 A 
BRANCH  17  20
ATOM     20  N   UNL     1      -5.318  -1.967   0.042  0.00  0.00    -0.330 N 
ATOM     21  C   UNL     1      -6.206  -1.117  -0.791  0.00  0.00    +0.105 C 
ATOM     22  C   UNL     1      -7.408  -2.047  -1.091  0.00  0.00    +0.020 C 
ATOM     23  C   UNL     1      -6.739  -3.428  -1.278  0.00  0.00    +0.020 C 
ATOM     24  C   UNL     1      -5.387  -3.322  -0.548  0.00  0.00    +0.105 C 
ENDBRANCH  17  20
ENDBRANCH  13  14
ENDBRANCH   8  13
ENDBRANCH   1   9
BRANCH   4  25
ATOM     25  C   UNL     1       5.507  -0.895   5.703  0.00  0.00    +0.022 C 
BRANCH  25  26
ATOM     26  C   UNL     1       5.362   0.225   6.701  0.00  0.00    +0.211 A 
ATOM     27  N   UNL     1       4.456   0.315   7.643  0.00  0.00    -0.193 NA
ATOM     28  C   UNL     1       4.714   1.477   8.285  0.00  0.00    +0.202 A 
ATOM     29  N   UNL     1       5.751   2.019   7.701  0.00  0.00    -0.056 NA
ATOM     30  O   UNL     1       6.136   1.310   6.795  0.00  0.00    -0.340 OA
BRANCH  28  31
ATOM     31  C   UNL     1       3.962   2.033   9.437  0.00  0.00    +0.023 A 
ATOM     32  C   UNL     1       2.867   1.344   9.955  0.00  0.00    +0.013 A 
ATOM     33  C   UNL     1       2.174   1.862  11.029  0.00  0.00    +0.021 A 
ATOM     34  C   UNL     1       2.557   3.071  11.585  0.00  0.00    +0.041 A 
ATOM     35  C   UNL     1       3.641   3.762  11.071  0.00  0.00    +0.021 A 
ATOM     36  C   UNL     1       4.344   3.249  10.000  0.00  0.00    +0.013 A 
ATOM     37 CL   UNL     1       1.676   3.722  12.932  0.00  0.00    -0.084 Cl
ENDBRANCH  28  31
ENDBRANCH  25  26
ENDBRANCH   4  25
TORSDOF 7
