REMARK  Name = ZINC16269409
REMARK  9 active torsions:
REMARK  status: ('A' for Active; 'I' for Inactive)
REMARK    1  A    between atoms: C_1  and  C_2
REMARK    2  A    between atoms: C_4  and  O_10
REMARK    3  A    between atoms: C_6  and  C_9
REMARK    4  A    between atoms: O_10  and  C_11
REMARK    5  A    between atoms: C_11  and  C_12
REMARK    6  A    between atoms: N_14  and  C_15
REMARK    7  A    between atoms: C_15  and  N_17
REMARK    8  A    between atoms: N_17  and  C_18
REMARK    9  A    between atoms: C_23  and  C_24
REMARK                            x       y       z     vdW  Elec       q    Type
REMARK                         _______ _______ _______ _____ _____    ______ ____
ROOT
ATOM      1  C   UNL     1      -2.470   4.118  -0.429  0.00  0.00    +0.256 C 
ATOM      2  O   UNL     1      -3.400   3.374  -0.658  0.00  0.00    -0.272 OA
ATOM      3  N   UNL     1      -2.697   5.423  -0.178  0.00  0.00    -0.265 N 
ATOM      4  H   UNL     1      -1.953   6.018   0.004  0.00  0.00    +0.157 HD
ENDROOT
BRANCH   3   5
ATOM      5  C   UNL     1      -3.957   5.901  -0.181  0.00  0.00    +0.141 C 
ATOM      6  S   UNL     1      -5.270   4.850  -0.504  0.00  0.00    -0.018 S 
BRANCH   5   7
ATOM      7  N   UNL     1      -4.184   7.205   0.070  0.00  0.00    -0.296 N 
ATOM      8  H   UNL     1      -3.448   7.786   0.320  0.00  0.00    +0.154 HD
BRANCH   7   9
ATOM      9  C   UNL     1      -5.473   7.719  -0.031  0.00  0.00    +0.047 A 
ATOM     10  C   UNL     1      -6.538   7.053   0.561  0.00  0.00    +0.025 A 
ATOM     11  C   UNL     1      -7.816   7.564   0.461  0.00  0.00    +0.017 A 
ATOM     12  C   UNL     1      -8.048   8.744  -0.229  0.00  0.00    +0.019 A 
ATOM     13  C   UNL     1      -7.003   9.420  -0.824  0.00  0.00    +0.032 A 
ATOM     14  C   UNL     1      -5.703   8.917  -0.726  0.00  0.00    +0.085 A 
ATOM     15 BR   UNL     1      -9.805   9.431  -0.356  0.00  0.00    -0.050 Br
BRANCH  14  16
ATOM     16  C   UNL     1      -4.581   9.637  -1.353  0.00  0.00    +0.388 C 
ATOM     17  O   UNL     1      -3.468   9.147  -1.352  0.00  0.00    -0.241 OA
ATOM     18  O   UNL     1      -4.788  10.838  -1.928  0.00  0.00    -0.241 OA
ENDBRANCH  14  16
ENDBRANCH   7   9
ENDBRANCH   5   7
ENDBRANCH   3   5
BRANCH   1  19
ATOM     19  C   UNL     1      -1.060   3.584  -0.426  0.00  0.00    +0.324 C 
BRANCH  19  20
ATOM     20  O   UNL     1      -1.081   2.185  -0.716  0.00  0.00    -0.483 OA
BRANCH  20  24
ATOM     21  C   UNL     1       1.450  -1.937  -1.369  0.00  0.00    +0.045 C 
ATOM     22  C   UNL     1       1.391  -0.461  -1.069  0.00  0.00    -0.028 A 
ATOM     23  C   UNL     1       0.172   0.187  -1.028  0.00  0.00    +0.050 A 
ATOM     24  C   UNL     1       0.118   1.545  -0.752  0.00  0.00    +0.122 A 
ATOM     25  C   UNL     1       1.289   2.251  -0.518  0.00  0.00    +0.050 A 
ATOM     26  C   UNL     1       2.507   1.599  -0.560  0.00  0.00    -0.028 A 
ATOM     27  C   UNL     1       2.558   0.244  -0.836  0.00  0.00    +0.047 A 
ATOM     28 CL   UNL     1       4.090  -0.572  -0.889  0.00  0.00    -0.083 Cl
ATOM     29  C   UNL     1       3.780   2.365  -0.306  0.00  0.00    +0.045 C 
ENDBRANCH  20  24
ENDBRANCH  19  20
ENDBRANCH   1  19
TORSDOF 7
