REMARK  Name = ZINC39467992
REMARK  2 active torsions:
REMARK  status: ('A' for Active; 'I' for Inactive)
REMARK    1  A    between atoms: C_1  and  O_2
REMARK    2  A    between atoms: O_2  and  P_3
REMARK                            x       y       z     vdW  Elec       q    Type
REMARK                         _______ _______ _______ _____ _____    ______ ____
ROOT
ATOM      1  P   UNL     1       0.678  -0.865  -1.179  0.00  0.00    +0.421 P 
ATOM      2  O   UNL     1       2.029  -0.345  -1.483  0.00  0.00    -0.239 OA
ATOM      3  N   UNL     1      -0.271  -0.829  -2.528  0.00  0.00    -0.156 NA
ATOM      4  N   UNL     1      -1.377  -1.654  -2.557  0.00  0.00    -0.228 NA
ATOM      5  C   UNL     1      -2.006  -1.495  -3.879  0.00  0.00    +0.111 C 
ATOM      6  C   UNL     1      -3.267  -2.339  -3.993  0.00  0.00    +0.035 C 
ATOM      7  C   UNL     1      -4.288  -1.910  -2.974  0.00  0.00    -0.005 C 
ATOM      8  C   UNL     1      -5.246  -2.761  -2.610  0.00  0.00    +0.028 C 
ATOM      9  C   UNL     1      -5.295  -4.102  -3.219  0.00  0.00    +0.028 C 
ATOM     10  C   UNL     1      -4.199  -4.618  -3.771  0.00  0.00    -0.007 C 
ATOM     11  C   UNL     1      -2.923  -3.813  -3.754  0.00  0.00    +0.022 C 
ATOM     12  C   UNL     1      -2.261  -3.943  -2.382  0.00  0.00    +0.031 C 
ATOM     13  C   UNL     1      -1.017  -3.051  -2.296  0.00  0.00    +0.100 C 
ATOM     14  C   UNL     1      -0.433  -3.227  -0.888  0.00  0.00    +0.191 C 
ATOM     15  O   UNL     1       0.760  -2.434  -0.756  0.00  0.00    -0.294 OA
ATOM     16 BR   UNL     1      -6.909  -5.088  -3.216  0.00  0.00    -0.049 Br
ATOM     17 BR   UNL     1      -6.533  -2.253  -1.321  0.00  0.00    -0.049 Br
ATOM     18  H   UNL     1      -0.059  -0.248  -3.275  0.00  0.00    +0.153 HD
ENDROOT
BRANCH   1  20
ATOM     19  C   UNL     1      -0.017   1.425   0.010  0.00  0.00    +0.206 C 
ATOM     20  O   UNL     1       0.002  -0.004   0.002  0.00  0.00    -0.299 OA
ENDBRANCH   1  20
TORSDOF 1
