REMARK  Name = ZINC66169713
REMARK  12 active torsions:
REMARK  status: ('A' for Active; 'I' for Inactive)
REMARK    1  A    between atoms: C_1  and  C_2
REMARK    2  A    between atoms: C_2  and  C_3
REMARK    3  A    between atoms: C_2  and  C_4
REMARK    4  A    between atoms: C_2  and  C_5
REMARK    5  A    between atoms: C_10  and  O_11
REMARK    6  A    between atoms: O_11  and  C_12
REMARK    7  A    between atoms: C_12  and  C_13
REMARK    8  A    between atoms: C_13  and  N_14
REMARK    9  A    between atoms: N_14  and  C_15
REMARK   10  A    between atoms: C_20  and  O_21
REMARK   11  A    between atoms: O_21  and  C_22
REMARK   12  A    between atoms: C_22  and  C_23
REMARK                            x       y       z     vdW  Elec       q    Type
REMARK                         _______ _______ _______ _____ _____    ______ ____
ROOT
ATOM      1  N   UNL     1      -1.529  -4.779   0.258  0.00  0.00    -0.338 N 
ATOM      2  H   UNL     1      -1.943  -4.176  -0.379  0.00  0.00    +0.146 HD
ENDROOT
BRANCH   1   3
ATOM      3  C   UNL     1      -2.317  -5.455   1.196  0.00  0.00    +0.070 A 
ATOM      4  C   UNL     1      -1.726  -6.314   2.112  0.00  0.00    +0.026 A 
ATOM      5  C   UNL     1      -2.507  -6.981   3.038  0.00  0.00    +0.002 A 
ATOM      6  C   UNL     1      -3.877  -6.794   3.054  0.00  0.00    +0.004 A 
ATOM      7  C   UNL     1      -4.473  -5.940   2.144  0.00  0.00    +0.047 A 
ATOM      8  C   UNL     1      -3.697  -5.264   1.217  0.00  0.00    +0.142 A 
BRANCH   8   9
ATOM      9  O   UNL     1      -4.282  -4.420   0.325  0.00  0.00    -0.486 OA
BRANCH   9  10
ATOM     10  C   UNL     1      -5.701  -4.273   0.405  0.00  0.00    +0.264 C 
BRANCH  10  11
ATOM     11  C   UNL     1      -6.166  -3.305  -0.653  0.00  0.00    -0.010 A 
ATOM     12  C   UNL     1      -6.237  -1.954  -0.371  0.00  0.00    +0.007 A 
ATOM     13  C   UNL     1      -6.663  -1.067  -1.341  0.00  0.00    +0.000 A 
ATOM     14  C   UNL     1      -7.019  -1.531  -2.594  0.00  0.00    +0.000 A 
ATOM     15  C   UNL     1      -6.947  -2.882  -2.876  0.00  0.00    +0.000 A 
ATOM     16  C   UNL     1      -6.517  -3.769  -1.907  0.00  0.00    +0.007 A 
ENDBRANCH  10  11
ENDBRANCH   9  10
ENDBRANCH   8   9
ENDBRANCH   1   3
BRANCH   1  17
ATOM     17  C   UNL     1      -0.078  -4.982   0.238  0.00  0.00    +0.142 C 
BRANCH  17  18
ATOM     18  C   UNL     1       0.540  -4.132  -0.874  0.00  0.00    +0.247 C 
BRANCH  18  19
ATOM     19  O   UNL     1       0.356  -2.747  -0.573  0.00  0.00    -0.490 OA
BRANCH  19  25
ATOM     20  C   UNL     1       0.707  -0.490  -1.238  0.00  0.00    -0.000 A 
ATOM     21  C   UNL     1       1.217   0.419  -2.145  0.00  0.00    +0.008 A 
ATOM     22  C   UNL     1       1.863  -0.026  -3.283  0.00  0.00    +0.001 A 
ATOM     23  C   UNL     1       2.003  -1.382  -3.516  0.00  0.00    +0.004 A 
ATOM     24  C   UNL     1       1.496  -2.295  -2.612  0.00  0.00    +0.046 A 
ATOM     25  C   UNL     1       0.851  -1.851  -1.467  0.00  0.00    +0.124 A 
BRANCH  20  27
ATOM     26  C   UNL     1      -0.019   1.526   0.010  0.00  0.00    +0.015 C 
ATOM     27  C   UNL     1       0.002  -0.004   0.002  0.00  0.00    -0.009 C 
ATOM     28  C   UNL     1       0.742  -0.511   1.242  0.00  0.00    +0.015 C 
ATOM     29  C   UNL     1      -1.433  -0.534   0.013  0.00  0.00    +0.015 C 
ENDBRANCH  20  27
ENDBRANCH  19  25
ENDBRANCH  18  19
ENDBRANCH  17  18
ENDBRANCH   1  17
TORSDOF 9
