REMARK  Name = ZINC31160931
REMARK  12 active torsions:
REMARK  status: ('A' for Active; 'I' for Inactive)
REMARK    1  A    between atoms: C_1  and  O_2
REMARK    2  A    between atoms: O_2  and  C_3
REMARK    3  A    between atoms: C_4  and  O_38
REMARK    4  A    between atoms: C_8  and  O_9
REMARK    5  A    between atoms: C_13  and  C_15
REMARK    6  A    between atoms: C_18  and  O_21
REMARK    7  A    between atoms: O_21  and  C_22
REMARK    8  A    between atoms: C_24  and  O_37
REMARK    9  A    between atoms: C_26  and  O_36
REMARK   10  A    between atoms: C_28  and  O_35
REMARK   11  A    between atoms: C_30  and  C_33
REMARK   12  A    between atoms: C_33  and  O_34
REMARK                            x       y       z     vdW  Elec       q    Type
REMARK                         _______ _______ _______ _____ _____    ______ ____
ROOT
ATOM      1  C   UNL     1      -6.811  -3.585  -0.966  0.00  0.00    +0.018 A 
ATOM      2  C   UNL     1      -7.502  -3.949  -2.125  0.00  0.00    +0.015 A 
ATOM      3  C   UNL     1      -8.717  -4.589  -2.028  0.00  0.00    +0.046 A 
ATOM      4  C   UNL     1      -9.257  -4.873  -0.779  0.00  0.00    +0.124 A 
ATOM      5  C   UNL     1      -8.574  -4.513   0.376  0.00  0.00    +0.046 A 
ATOM      6  C   UNL     1      -7.355  -3.878   0.288  0.00  0.00    +0.015 A 
ENDROOT
BRANCH   1  16
ATOM      7  C   UNL     1      -1.202  -0.639   0.010  0.00  0.00    +0.204 A 
ATOM      8  C   UNL     1      -1.810  -0.964   1.222  0.00  0.00    +0.166 A 
ATOM      9  C   UNL     1      -3.035  -1.610   1.246  0.00  0.00    +0.096 A 
ATOM     10  C   UNL     1      -3.671  -1.938   0.058  0.00  0.00    +0.146 A 
ATOM     11  C   UNL     1      -3.062  -1.611  -1.166  0.00  0.00    +0.109 A 
ATOM     12  C   UNL     1      -1.826  -0.955  -1.186  0.00  0.00    +0.177 A 
ATOM     13  C   UNL     1      -3.757  -1.971  -2.414  0.00  0.00    +0.197 A 
ATOM     14  O   UNL     1      -3.275  -1.712  -3.505  0.00  0.00    -0.287 OA
ATOM     15  C   UNL     1      -5.004  -2.628  -2.299  0.00  0.00    +0.098 A 
ATOM     16  C   UNL     1      -5.508  -2.900  -1.065  0.00  0.00    +0.139 A 
ATOM     17  O   UNL     1      -4.866  -2.567   0.066  0.00  0.00    -0.454 OA
BRANCH   7  19
ATOM     18  C   UNL     1      -0.017   1.425   0.010  0.00  0.00    +0.277 C 
ATOM     19  O   UNL     1       0.002  -0.004   0.002  0.00  0.00    -0.488 OA
ENDBRANCH   7  19
BRANCH  12  20
ATOM     20  O   UNL     1      -1.240  -0.634  -2.369  0.00  0.00    -0.503 OA
ATOM     21  H   UNL     1      -0.659  -1.323  -2.719  0.00  0.00    +0.292 HD
ENDBRANCH  12  20
BRANCH   8  22
ATOM     22  O   UNL     1      -1.193  -0.647   2.390  0.00  0.00    -0.503 OA
ATOM     23  H   UNL     1      -1.426   0.227   2.732  0.00  0.00    +0.292 HD
ENDBRANCH   8  22
ENDBRANCH   1  16
BRANCH   4  24
ATOM     24  O   UNL     1     -10.456  -5.504  -0.688  0.00  0.00    -0.461 OA
BRANCH  24  25
ATOM     25  C   UNL     1     -10.953  -5.765   0.626  0.00  0.00    +0.339 C 
ATOM     26  C   UNL     1     -12.359  -6.364   0.531  0.00  0.00    +0.214 C 
ATOM     27  C   UNL     1     -12.860  -6.697   1.939  0.00  0.00    +0.180 C 
ATOM     28  C   UNL     1     -11.867  -7.650   2.611  0.00  0.00    +0.177 C 
ATOM     29  C   UNL     1     -10.480  -7.002   2.626  0.00  0.00    +0.179 C 
ATOM     30  O   UNL     1     -10.087  -6.689   1.288  0.00  0.00    -0.331 OA
BRANCH  28  31
ATOM     31  O   UNL     1     -12.288  -7.912   3.951  0.00  0.00    -0.386 OA
ATOM     32  H   UNL     1     -13.162  -8.319   4.016  0.00  0.00    +0.210 HD
ENDBRANCH  28  31
BRANCH  27  33
ATOM     33  O   UNL     1     -14.143  -7.322   1.855  0.00  0.00    -0.386 OA
ATOM     34  H   UNL     1     -14.820  -6.774   1.433  0.00  0.00    +0.210 HD
ENDBRANCH  27  33
BRANCH  26  35
ATOM     35  O   UNL     1     -13.239  -5.419  -0.080  0.00  0.00    -0.383 OA
ATOM     36  H   UNL     1     -12.979  -5.159  -0.975  0.00  0.00    +0.210 HD
ENDBRANCH  26  35
BRANCH  29  37
ATOM     37  C   UNL     1      -9.470  -7.972   3.241  0.00  0.00    +0.190 C 
BRANCH  37  38
ATOM     38  O   UNL     1      -8.201  -7.326   3.363  0.00  0.00    -0.392 OA
ATOM     39  H   UNL     1      -7.511  -7.883   3.747  0.00  0.00    +0.210 HD
ENDBRANCH  37  38
ENDBRANCH  29  37
ENDBRANCH  24  25
ENDBRANCH   4  24
TORSDOF 11
