REMARK  Name = ZINC52980045
REMARK  4 active torsions:
REMARK  status: ('A' for Active; 'I' for Inactive)
REMARK    1  A    between atoms: C_1  and  C_2
REMARK    2  A    between atoms: C_5  and  C_8
REMARK    3  A    between atoms: C_10  and  C_13
REMARK    4  A    between atoms: C_19  and  C_21
REMARK                            x       y       z     vdW  Elec       q    Type
REMARK                         _______ _______ _______ _____ _____    ______ ____
ROOT
ATOM      1  C   UNL     1       0.103  -7.583   1.546  0.00  0.00    +0.285 C 
ATOM      2  O   UNL     1       0.235  -7.469   2.749  0.00  0.00    -0.267 OA
ATOM      3  N   UNL     1       0.017  -8.809   0.991  0.00  0.00    -0.294 N 
ATOM      4  C   UNL     1      -0.085 -10.007   1.835  0.00  0.00    +0.108 C 
ATOM      5  C   UNL     1       1.016 -10.991   1.428  0.00  0.00    +0.020 C 
ATOM      6  C   UNL     1       0.917 -11.270  -0.073  0.00  0.00    +0.016 C 
ATOM      7  C   UNL     1       1.122  -9.967  -0.850  0.00  0.00    +0.092 C 
ATOM      8  C   UNL     1       0.017  -8.971  -0.469  0.00  0.00    +0.121 C 
ENDROOT
BRANCH   1  11
ATOM      9  C   UNL     1       0.091  -4.259  -0.027  0.00  0.00    +0.114 A 
ATOM     10  C   UNL     1       0.251  -5.102   1.097  0.00  0.00    +0.086 A 
ATOM     11  C   UNL     1       0.037  -6.381   0.693  0.00  0.00    +0.222 A 
ATOM     12  O   UNL     1      -0.246  -6.358  -0.624  0.00  0.00    -0.349 OA
ATOM     13  N   UNL     1      -0.212  -5.011  -1.057  0.00  0.00    -0.077 NA
BRANCH   9  18
ATOM     14  C   UNL     1       0.647   1.474  -0.067  0.00  0.00    +0.044 C 
ATOM     15  C   UNL     1       0.502  -0.026  -0.057  0.00  0.00    -0.050 A 
ATOM     16  C   UNL     1       0.177  -0.695  -1.223  0.00  0.00    +0.004 A 
ATOM     17  C   UNL     1       0.043  -2.069  -1.219  0.00  0.00    +0.010 A 
ATOM     18  C   UNL     1       0.235  -2.782  -0.038  0.00  0.00    +0.004 A 
ATOM     19  C   UNL     1       0.561  -2.103   1.134  0.00  0.00    +0.010 A 
ATOM     20  C   UNL     1       0.699  -0.729   1.118  0.00  0.00    +0.004 A 
ENDBRANCH   9  18
ENDBRANCH   1  11
BRANCH   7  21
ATOM     21  C   UNL     1       1.056 -10.248  -2.329  0.00  0.00    +0.215 C 
ATOM     22  O   UNL     1       0.864 -11.379  -2.724  0.00  0.00    -0.276 OA
ATOM     23  N   UNL     1       1.211  -9.243  -3.214  0.00  0.00    -0.329 N 
ATOM     24  H   UNL     1       1.365  -8.338  -2.898  0.00  0.00    +0.145 HD
ATOM     25  H   UNL     1       1.168  -9.423  -4.166  0.00  0.00    +0.145 HD
ENDBRANCH   7  21
TORSDOF 3
