REMARK  Name = ZINC67262034
REMARK  5 active torsions:
REMARK  status: ('A' for Active; 'I' for Inactive)
REMARK    1  A    between atoms: C_1  and  C_2
REMARK    2  A    between atoms: C_5  and  N_12
REMARK    3  A    between atoms: C_7  and  N_8
REMARK    4  A    between atoms: C_9  and  C_11
REMARK    5  A    between atoms: C_19  and  C_22
REMARK                            x       y       z     vdW  Elec       q    Type
REMARK                         _______ _______ _______ _____ _____    ______ ____
ROOT
ATOM      1  N   UNL     1       0.876  -3.991  -0.067  0.00  0.00    -0.269 N 
ATOM      2  C   UNL     1       0.816  -4.730  -1.193  0.00  0.00    +0.307 C 
ATOM      3  O   UNL     1       0.400  -4.237  -2.223  0.00  0.00    -0.252 OA
ATOM      4  N   UNL     1       1.219  -6.017  -1.177  0.00  0.00    -0.280 N 
ATOM      5  C   UNL     1       1.602  -6.675   0.082  0.00  0.00    +0.137 C 
ATOM      6  C   UNL     1       2.968  -7.342  -0.117  0.00  0.00    +0.179 C 
ATOM      7  O   UNL     1       2.920  -8.173  -1.279  0.00  0.00    -0.369 OA
ATOM      8  C   UNL     1       2.668  -7.465  -2.495  0.00  0.00    +0.166 C 
ATOM      9  C   UNL     1       1.281  -6.806  -2.417  0.00  0.00    +0.145 C 
ATOM     10  H   UNL     1       1.115  -4.409   0.775  0.00  0.00    +0.156 HD
ENDROOT
BRANCH   8  11
ATOM     11  C   UNL     1       2.702  -8.428  -3.654  0.00  0.00    -0.015 A 
ATOM     12  C   UNL     1       2.136  -9.683  -3.526  0.00  0.00    +0.009 A 
ATOM     13  C   UNL     1       2.166 -10.568  -4.588  0.00  0.00    +0.041 A 
ATOM     14  C   UNL     1       2.762 -10.197  -5.781  0.00  0.00    +0.158 A 
ATOM     15  C   UNL     1       3.329  -8.938  -5.910  0.00  0.00    +0.159 A 
ATOM     16  C   UNL     1       3.293  -8.053  -4.846  0.00  0.00    +0.047 A 
ATOM     17  F   UNL     1       3.911  -8.575  -7.073  0.00  0.00    -0.202 F 
ATOM     18  F   UNL     1       2.792 -11.062  -6.819  0.00  0.00    -0.202 F 
ENDBRANCH   8  11
BRANCH   1  23
ATOM     19  C   UNL     1      -0.268   1.566  -0.270  0.00  0.00    +0.045 C 
ATOM     20  C   UNL     1       0.036   0.091  -0.214  0.00  0.00    -0.029 A 
ATOM     21  C   UNL     1       0.632  -0.532  -1.294  0.00  0.00    +0.007 A 
ATOM     22  C   UNL     1       0.912  -1.884  -1.247  0.00  0.00    +0.024 A 
ATOM     23  C   UNL     1       0.594  -2.622  -0.114  0.00  0.00    +0.037 A 
ATOM     24  C   UNL     1      -0.005  -1.999   0.972  0.00  0.00    +0.047 A 
ATOM     25  C   UNL     1      -0.279  -0.640   0.924  0.00  0.00    +0.038 A 
BRANCH  25  26
ATOM     26  N   UNL     1      -0.878  -0.007   2.019  0.00  0.00    -0.285 N 
ATOM     27  C   UNL     1      -1.784  -0.667   2.767  0.00  0.00    +0.214 C 
ATOM     28  O   UNL     1      -2.025  -1.834   2.537  0.00  0.00    -0.276 OA
ATOM     29  C   UNL     1      -2.497   0.043   3.889  0.00  0.00    +0.109 C 
ATOM     30  H   UNL     1      -0.641   0.907   2.240  0.00  0.00    +0.155 HD
ENDBRANCH  25  26
ENDBRANCH   1  23
TORSDOF 3
