REMARK  Name = ZINC40333767
REMARK  4 active torsions:
REMARK  status: ('A' for Active; 'I' for Inactive)
REMARK    1  A    between atoms: C_3  and  N_22
REMARK    2  A    between atoms: C_5  and  S_7
REMARK    3  A    between atoms: S_7  and  N_10
REMARK    4  A    between atoms: C_14  and  C_16
REMARK                            x       y       z     vdW  Elec       q    Type
REMARK                         _______ _______ _______ _____ _____    ______ ____
ROOT
ATOM      1  S   UNL     1       1.225  -2.444  -0.023  0.00  0.00    +0.061 S 
ATOM      2  O   UNL     1      -0.021  -2.860  -0.565  0.00  0.00    -0.153 OA
ATOM      3  O   UNL     1       2.469  -2.834  -0.589  0.00  0.00    -0.153 OA
ENDROOT
BRANCH   1   8
ATOM      4  C   UNL     1      -0.017   1.378   0.010  0.00  0.00    +0.004 A 
ATOM      5  C   UNL     1       1.169   2.087   0.002  0.00  0.00    +0.023 A 
ATOM      6  C   UNL     1       2.381   1.409  -0.013  0.00  0.00    +0.026 A 
ATOM      7  C   UNL     1       2.396   0.020  -0.021  0.00  0.00    +0.051 A 
ATOM      8  C   UNL     1       1.207  -0.682  -0.013  0.00  0.00    +0.107 A 
ATOM      9  C   UNL     1       0.002  -0.004   0.002  0.00  0.00    +0.028 A 
BRANCH   6  10
ATOM     10  N   UNL     1       3.582   2.122  -0.021  0.00  0.00    -0.358 N 
ATOM     11  H   UNL     1       3.570   3.092  -0.016  0.00  0.00    +0.142 HD
ATOM     12  H   UNL     1       4.428   1.647  -0.032  0.00  0.00    +0.142 HD
ENDBRANCH   6  10
ENDBRANCH   1   8
BRANCH   1  13
ATOM     13  N   UNL     1       1.246  -2.943   1.556  0.00  0.00    -0.168 NA
ATOM     14  C   UNL     1       2.454  -3.183   2.365  0.00  0.00    +0.110 C 
ATOM     15  C   UNL     1       2.004  -4.177   3.464  0.00  0.00    +0.019 C 
ATOM     16  C   UNL     1       0.567  -3.677   3.767  0.00  0.00    +0.028 C 
ATOM     17  C   UNL     1       0.062  -3.213   2.384  0.00  0.00    +0.126 C 
BRANCH  17  18
ATOM     18  C   UNL     1      -0.759  -1.958   2.530  0.00  0.00    +0.035 A 
ATOM     19  C   UNL     1      -0.275  -0.702   2.610  0.00  0.00    +0.024 A 
ATOM     20  C   UNL     1      -1.377   0.167   2.738  0.00  0.00    +0.019 A 
ATOM     21  C   UNL     1      -2.492  -0.591   2.732  0.00  0.00    +0.083 A 
ATOM     22  N   UNL     1      -2.119  -1.896   2.599  0.00  0.00    -0.363 N 
ATOM     23  H   UNL     1      -2.722  -2.655   2.562  0.00  0.00    +0.165 HD
ENDBRANCH  17  18
ENDBRANCH   1  13
TORSDOF 4
