REMARK  Name = ZINC41653126
REMARK  3 active torsions:
REMARK  status: ('A' for Active; 'I' for Inactive)
REMARK    1  A    between atoms: C_6  and  C_7
REMARK    2  A    between atoms: C_7  and  N_8
REMARK    3  A    between atoms: C_18  and  C_19
REMARK                            x       y       z     vdW  Elec       q    Type
REMARK                         _______ _______ _______ _____ _____    ______ ____
ROOT
ATOM      1  N   UNL     1      -0.841  -1.810  -1.843  0.00  0.00    -0.262 NA
ATOM      2  C   UNL     1      -2.129  -2.516  -1.784  0.00  0.00    +0.130 C 
ATOM      3  C   UNL     1      -2.734  -2.579  -3.163  0.00  0.00    +0.051 A 
ATOM      4  C   UNL     1      -2.293  -1.739  -4.171  0.00  0.00    +0.130 A 
ATOM      5  C   UNL     1      -2.864  -1.804  -5.442  0.00  0.00    +0.047 A 
ATOM      6  C   UNL     1      -3.862  -2.697  -5.706  0.00  0.00    +0.019 A 
ATOM      7  C   UNL     1      -4.314  -3.550  -4.699  0.00  0.00    +0.068 A 
ATOM      8  C   UNL     1      -3.749  -3.495  -3.415  0.00  0.00    +0.147 A 
ATOM      9  O   UNL     1      -4.345  -4.407  -2.616  0.00  0.00    -0.451 OA
ATOM     10  C   UNL     1      -5.301  -5.104  -3.273  0.00  0.00    +0.176 C 
ATOM     11  C   UNL     1      -6.077  -6.088  -2.752  0.00  0.00    +0.059 C 
ATOM     12  C   UNL     1      -5.346  -4.602  -4.655  0.00  0.00    +0.231 C 
ATOM     13  O   UNL     1      -6.074  -4.971  -5.560  0.00  0.00    -0.283 OA
ATOM     14  O   UNL     1      -1.297  -0.843  -3.942  0.00  0.00    -0.476 OA
ATOM     15  C   UNL     1      -0.990  -0.544  -2.579  0.00  0.00    +0.319 C 
ENDROOT
BRANCH  11  16
ATOM     16  C   UNL     1      -5.811  -6.594  -1.399  0.00  0.00    -0.003 A 
ATOM     17  C   UNL     1      -5.017  -5.855  -0.514  0.00  0.00    +0.011 A 
ATOM     18  C   UNL     1      -4.772  -6.336   0.753  0.00  0.00    +0.020 A 
ATOM     19  C   UNL     1      -5.309  -7.550   1.154  0.00  0.00    +0.042 A 
ATOM     20  C   UNL     1      -6.096  -8.288   0.286  0.00  0.00    +0.040 A 
ATOM     21  C   UNL     1      -6.356  -7.817  -0.985  0.00  0.00    +0.050 A 
ATOM     22 CL   UNL     1      -7.348  -8.740  -2.070  0.00  0.00    -0.083 Cl
ATOM     23 CL   UNL     1      -4.993  -8.147   2.753  0.00  0.00    -0.083 Cl
ENDBRANCH  11  16
BRANCH   1  24
ATOM     24  C   UNL     1      -0.307  -1.575  -0.494  0.00  0.00    +0.123 C 
BRANCH  24  30
ATOM     25  C   UNL     1       1.329   0.309  -0.673  0.00  0.00    +0.009 A 
ATOM     26  C   UNL     1       2.620   0.795  -0.766  0.00  0.00    +0.050 A 
ATOM     27  C   UNL     1       3.691  -0.084  -0.785  0.00  0.00    +0.166 A 
ATOM     28  C   UNL     1       3.463  -1.456  -0.708  0.00  0.00    +0.167 A 
ATOM     29  C   UNL     1       2.167  -1.935  -0.615  0.00  0.00    +0.054 A 
ATOM     30  C   UNL     1       1.103  -1.052  -0.597  0.00  0.00    -0.030 A 
ATOM     31  O   UNL     1       4.666  -2.100  -0.745  0.00  0.00    -0.453 OA
ATOM     32  C   UNL     1       5.604  -1.135  -1.255  0.00  0.00    +0.466 C 
ATOM     33  O   UNL     1       5.036   0.131  -0.870  0.00  0.00    -0.453 OA
ENDBRANCH  24  30
ENDBRANCH   1  24
TORSDOF 3
