REMARK  Name = ZINC39972141
REMARK  9 active torsions:
REMARK  status: ('A' for Active; 'I' for Inactive)
REMARK    1  A    between atoms: C_1  and  C_2
REMARK    2  A    between atoms: C_9  and  N_14
REMARK    3  A    between atoms: C_10  and  C_11
REMARK    4  A    between atoms: C_15  and  C_17
REMARK    5  A    between atoms: C_17  and  N_18
REMARK    6  A    between atoms: N_21  and  C_24
REMARK    7  A    between atoms: C_24  and  C_25
REMARK    8  A    between atoms: C_28  and  S_31
REMARK    9  A    between atoms: S_31  and  C_32
REMARK                            x       y       z     vdW  Elec       q    Type
REMARK                         _______ _______ _______ _____ _____    ______ ____
ROOT
ATOM      1  N   UNL     1       0.696  -5.847   2.434  0.00  0.00    -0.278 N 
ATOM      2  C   UNL     1       1.677  -6.096   3.324  0.00  0.00    +0.232 C 
ATOM      3  O   UNL     1       2.383  -5.191   3.716  0.00  0.00    -0.274 OA
ATOM      4  H   UNL     1       0.131  -6.571   2.120  0.00  0.00    +0.155 HD
ENDROOT
BRANCH   1  12
ATOM      5  C   UNL     1      -0.019   1.526   0.010  0.00  0.00    +0.008 C 
ATOM      6  C   UNL     1       0.002  -0.004   0.002  0.00  0.00    -0.009 C 
ATOM      7  C   UNL     1      -1.434  -0.537   0.019  0.00  0.00    +0.008 C 
ATOM      8  C   UNL     1      -1.433  -2.045  -0.237  0.00  0.00    +0.037 C 
ATOM      9  C   UNL     1      -0.464  -2.704   0.734  0.00  0.00    -0.023 A 
ATOM     10  C   UNL     1       0.485  -1.986   1.374  0.00  0.00    -0.004 A 
ATOM     11  S   UNL     1       1.343  -3.167   2.373  0.00  0.00    -0.077 S 
ATOM     12  C   UNL     1       0.492  -4.557   1.968  0.00  0.00    +0.084 A 
ATOM     13  C   UNL     1      -0.459  -4.119   1.061  0.00  0.00    +0.068 A 
ATOM     14  C   UNL     1       0.739  -0.515   1.248  0.00  0.00    +0.046 C 
BRANCH  13  15
ATOM     15  C   UNL     1      -1.421  -5.045   0.456  0.00  0.00    +0.244 C 
ATOM     16  O   UNL     1      -1.149  -5.611  -0.587  0.00  0.00    -0.270 OA
ATOM     17  N   UNL     1      -2.608  -5.271   1.055  0.00  0.00    -0.325 N 
ATOM     18  H   UNL     1      -2.825  -4.821   1.886  0.00  0.00    +0.145 HD
ATOM     19  H   UNL     1      -3.244  -5.884   0.655  0.00  0.00    +0.145 HD
ENDBRANCH  13  15
ENDBRANCH   1  12
BRANCH   2  20
ATOM     20  C   UNL     1       1.898  -7.498   3.830  0.00  0.00    +0.180 C 
BRANCH  20  21
ATOM     21  N   UNL     1       3.018  -7.504   4.781  0.00  0.00    -0.298 NA
ATOM     22  C   UNL     1       2.681  -6.748   5.996  0.00  0.00    +0.066 C 
ATOM     23  C   UNL     1       3.891  -6.728   6.933  0.00  0.00    -0.063 C 
ATOM     24  N   UNL     1       4.264  -8.106   7.280  0.00  0.00    +0.384 N 
ATOM     25  C   UNL     1       4.621  -8.841   6.060  0.00  0.00    -0.063 C 
ATOM     26  C   UNL     1       3.417  -8.878   5.116  0.00  0.00    +0.066 C 
ATOM     27  H   UNL     1       3.484  -8.561   7.731  0.00  0.00    -0.081 HD
BRANCH  24  28
ATOM     28  C   UNL     1       5.414  -8.086   8.194  0.00  0.00    -0.043 C 
BRANCH  28  29
ATOM     29  C   UNL     1       5.720  -9.490   8.647  0.00  0.00    -0.064 A 
ATOM     30  C   UNL     1       5.113  -9.996   9.783  0.00  0.00    +0.003 A 
ATOM     31  C   UNL     1       5.391 -11.282  10.202  0.00  0.00    +0.015 A 
ATOM     32  C   UNL     1       6.281 -12.069   9.480  0.00  0.00    +0.008 A 
ATOM     33  C   UNL     1       6.888 -11.557   8.339  0.00  0.00    +0.015 A 
ATOM     34  C   UNL     1       6.601 -10.272   7.924  0.00  0.00    +0.003 A 
BRANCH  32  35
ATOM     35  S   UNL     1       6.639 -13.710  10.011  0.00  0.00    -0.129 S 
ATOM     36  C   UNL     1       7.824 -14.321   8.780  0.00  0.00    +0.090 C 
ENDBRANCH  32  35
ENDBRANCH  28  29
ENDBRANCH  24  28
ENDBRANCH  20  21
ENDBRANCH   2  20
TORSDOF 7
