REMARK  Name = ZINC00948534
REMARK  4 active torsions:
REMARK  status: ('A' for Active; 'I' for Inactive)
REMARK    1  A    between atoms: C_1  and  C_2
REMARK    2  A    between atoms: C_5  and  N_9
REMARK    3  A    between atoms: C_10  and  N_24
REMARK    4  A    between atoms: C_11  and  C_22
REMARK                            x       y       z     vdW  Elec       q    Type
REMARK                         _______ _______ _______ _____ _____    ______ ____
ROOT
ATOM      1  N   UNL     1       3.440  -0.806  -0.036  0.00  0.00    -0.279 N 
ATOM      2  C   UNL     1       2.944  -2.077  -0.038  0.00  0.00    +0.122 A 
ATOM      3  C   UNL     1       1.555  -2.055  -0.024  0.00  0.00    +0.119 A 
ATOM      4  C   UNL     1       1.158  -0.638  -0.013  0.00  0.00    +0.128 A 
ATOM      5  C   UNL     1       2.413   0.118  -0.021  0.00  0.00    +0.167 A 
ATOM      6  N   UNL     1       2.376   1.433  -0.014  0.00  0.00    -0.225 NA
ATOM      7  C   UNL     1       1.197   2.067   0.002  0.00  0.00    +0.092 A 
ATOM      8  C   UNL     1       1.149   3.474   0.010  0.00  0.00    +0.030 A 
ATOM      9  C   UNL     1      -0.053   4.110   0.025  0.00  0.00    +0.002 A 
ATOM     10  C   UNL     1      -1.246   3.389   0.033  0.00  0.00    +0.002 A 
ATOM     11  C   UNL     1      -1.240   2.029   0.031  0.00  0.00    +0.030 A 
ATOM     12  C   UNL     1      -0.016   1.334   0.009  0.00  0.00    +0.090 A 
ATOM     13  N   UNL     1       0.002  -0.004   0.002  0.00  0.00    -0.241 NA
ENDROOT
BRANCH   1  18
ATOM     14  C   UNL     1       8.962   0.505  -0.082  0.00  0.00    +0.044 C 
ATOM     15  C   UNL     1       7.496   0.158  -0.070  0.00  0.00    -0.049 A 
ATOM     16  C   UNL     1       6.836  -0.009   1.134  0.00  0.00    +0.005 A 
ATOM     17  C   UNL     1       5.491  -0.322   1.148  0.00  0.00    +0.027 A 
ATOM     18  C   UNL     1       4.804  -0.482  -0.048  0.00  0.00    +0.064 A 
ATOM     19  C   UNL     1       5.469  -0.314  -1.255  0.00  0.00    +0.042 A 
ATOM     20  C   UNL     1       6.814   0.005  -1.263  0.00  0.00    +0.020 A 
ATOM     21 BR   UNL     1       4.537  -0.523  -2.887  0.00  0.00    -0.048 Br
ENDBRANCH   1  18
BRANCH   2  22
ATOM     22  N   UNL     1       3.710  -3.216  -0.051  0.00  0.00    -0.343 N 
ATOM     23  H   UNL     1       4.678  -3.150  -0.060  0.00  0.00    +0.144 HD
ATOM     24  H   UNL     1       3.283  -4.087  -0.052  0.00  0.00    +0.144 HD
ENDBRANCH   2  22
BRANCH   3  25
ATOM     25  C   UNL     1       0.681  -3.190  -0.022  0.00  0.00    +0.105 C 
ATOM     26  N   UNL     1      -0.012  -4.090  -0.020  0.00  0.00    -0.191 NA
ENDBRANCH   3  25
TORSDOF 3
