REMARK  Name = ZINC35485509
REMARK  5 active torsions:
REMARK  status: ('A' for Active; 'I' for Inactive)
REMARK    1  A    between atoms: C_1  and  N_2
REMARK    2  A    between atoms: N_5  and  C_8
REMARK    3  A    between atoms: C_9  and  S_20
REMARK    4  A    between atoms: C_11  and  C_13
REMARK    5  A    between atoms: S_20  and  C_23
REMARK                            x       y       z     vdW  Elec       q    Type
REMARK                         _______ _______ _______ _____ _____    ______ ____
ROOT
ATOM      1  C   UNL     1       2.128  -3.538  -0.047  0.00  0.00    +0.235 A 
ATOM      2  C   UNL     1       2.750  -4.076   1.030  0.00  0.00    +0.243 A 
ATOM      3  N   UNL     1       3.586  -5.027   0.587  0.00  0.00    -0.188 NA
ATOM      4  C   UNL     1       3.497  -5.090  -0.720  0.00  0.00    +0.231 A 
ATOM      5  O   UNL     1       2.595  -4.181  -1.137  0.00  0.00    -0.420 OA
ENDROOT
BRANCH   1  10
ATOM      6  C   UNL     1      -1.415   0.144  -1.947  0.00  0.00    -0.096 C 
ATOM      7  N   UNL     1      -0.647  -0.617  -0.953  0.00  0.00    +0.380 N 
ATOM      8  C   UNL     1      -0.970  -2.044  -1.076  0.00  0.00    -0.060 C 
ATOM      9  C   UNL     1      -0.257  -2.825   0.034  0.00  0.00    +0.089 C 
ATOM     10  N   UNL     1       1.181  -2.520  -0.031  0.00  0.00    -0.302 N 
ATOM     11  C   UNL     1       1.588  -1.107  -0.078  0.00  0.00    +0.089 C 
ATOM     12  C   UNL     1       0.789  -0.407  -1.182  0.00  0.00    -0.060 C 
ATOM     13  H   UNL     1      -0.888  -0.298  -0.027  0.00  0.00    -0.082 HD
ENDBRANCH   1  10
BRANCH   4  14
ATOM     14  C   UNL     1       4.256  -6.011  -1.591  0.00  0.00    +0.037 A 
ATOM     15  C   UNL     1       4.076  -5.975  -2.975  0.00  0.00    +0.014 A 
ATOM     16  C   UNL     1       4.787  -6.837  -3.783  0.00  0.00    +0.021 A 
ATOM     17  C   UNL     1       5.680  -7.737  -3.224  0.00  0.00    +0.041 A 
ATOM     18  C   UNL     1       5.863  -7.777  -1.852  0.00  0.00    +0.021 A 
ATOM     19  C   UNL     1       5.162  -6.916  -1.034  0.00  0.00    +0.014 A 
ATOM     20 CL   UNL     1       6.572  -8.819  -4.247  0.00  0.00    -0.084 Cl
ENDBRANCH   4  14
BRANCH   2  21
ATOM     21  S   UNL     1       2.505  -3.609   2.711  0.00  0.00    +0.047 S 
ATOM     22  O   UNL     1       3.736  -3.845   3.382  0.00  0.00    -0.163 OA
ATOM     23  O   UNL     1       1.881  -2.333   2.692  0.00  0.00    -0.163 OA
BRANCH  21  24
ATOM     24  C   UNL     1       1.334  -4.732   3.398  0.00  0.00    +0.095 A 
ATOM     25  C   UNL     1      -0.017  -4.449   3.331  0.00  0.00    +0.028 A 
ATOM     26  C   UNL     1      -0.936  -5.330   3.870  0.00  0.00    +0.017 A 
ATOM     27  C   UNL     1      -0.503  -6.495   4.476  0.00  0.00    +0.018 A 
ATOM     28  C   UNL     1       0.849  -6.779   4.543  0.00  0.00    +0.017 A 
ATOM     29  C   UNL     1       1.767  -5.900   4.000  0.00  0.00    +0.028 A 
ATOM     30 BR   UNL     1      -1.760  -7.701   5.213  0.00  0.00    -0.050 Br
ENDBRANCH  21  24
ENDBRANCH   2  21
TORSDOF 4
