REMARK  Name = ZINC22034459
REMARK  9 active torsions:
REMARK  status: ('A' for Active; 'I' for Inactive)
REMARK    1  A    between atoms: C_1  and  C_2
REMARK    2  A    between atoms: C_4  and  N_9
REMARK    3  A    between atoms: C_6  and  C_8
REMARK    4  A    between atoms: N_9  and  S_10
REMARK    5  A    between atoms: S_10  and  C_13
REMARK    6  A    between atoms: C_16  and  N_19
REMARK    7  A    between atoms: N_19  and  C_20
REMARK    8  A    between atoms: C_20  and  N_22
REMARK    9  A    between atoms: C_23  and  C_25
REMARK                            x       y       z     vdW  Elec       q    Type
REMARK                         _______ _______ _______ _____ _____    ______ ____
ROOT
ATOM      1  C   UNL     1      -2.729   0.323   1.560  0.00  0.00    +0.111 A 
ATOM      2  C   UNL     1      -1.999  -0.842   1.714  0.00  0.00    +0.031 A 
ATOM      3  C   UNL     1      -2.061  -1.545   2.901  0.00  0.00    +0.025 A 
ATOM      4  C   UNL     1      -2.866  -1.087   3.937  0.00  0.00    +0.033 A 
ATOM      5  C   UNL     1      -3.602   0.080   3.776  0.00  0.00    +0.025 A 
ATOM      6  C   UNL     1      -3.531   0.781   2.588  0.00  0.00    +0.031 A 
ENDROOT
BRANCH   1   7
ATOM      7  S   UNL     1      -2.643   1.220   0.046  0.00  0.00    +0.093 S 
ATOM      8  O   UNL     1      -3.843   1.975  -0.048  0.00  0.00    -0.148 OA
ATOM      9  O   UNL     1      -2.246   0.292  -0.955  0.00  0.00    -0.148 OA
BRANCH   7  10
ATOM     10  N   UNL     1      -1.407   2.313   0.194  0.00  0.00    -0.078 NA
BRANCH  10  14
ATOM     11  C   UNL     1       3.402   3.228   0.711  0.00  0.00    +0.066 C 
ATOM     12  C   UNL     1       2.233   2.287   0.579  0.00  0.00    +0.044 A 
ATOM     13  C   UNL     1       0.949   2.780   0.450  0.00  0.00    +0.070 A 
ATOM     14  C   UNL     1      -0.102   1.868   0.330  0.00  0.00    +0.166 A 
ATOM     15  N   UNL     1       0.171   0.567   0.344  0.00  0.00    -0.214 NA
ATOM     16  C   UNL     1       1.411   0.140   0.468  0.00  0.00    +0.128 A 
ATOM     17  N   UNL     1       2.424   0.975   0.583  0.00  0.00    -0.237 NA
ATOM     18  C   UNL     1       1.679  -1.343   0.478  0.00  0.00    +0.088 C 
ENDBRANCH  10  14
ENDBRANCH   7  10
ENDBRANCH   1   7
BRANCH   4  19
ATOM     19  N   UNL     1      -2.934  -1.799   5.138  0.00  0.00    -0.297 N 
ATOM     20  H   UNL     1      -2.019  -2.220   5.581  0.00  0.00    +0.154 HD
BRANCH  19  21
ATOM     21  C   UNL     1      -4.121  -1.970   5.753  0.00  0.00    +0.141 C 
ATOM     22  S   UNL     1      -5.562  -1.441   4.996  0.00  0.00    -0.018 S 
BRANCH  21  23
ATOM     23  N   UNL     1      -4.174  -2.558   6.965  0.00  0.00    -0.264 N 
ATOM     24  C   UNL     1      -5.361  -2.730   7.580  0.00  0.00    +0.250 C 
ATOM     25  O   UNL     1      -6.384  -2.353   7.042  0.00  0.00    -0.270 OA
ATOM     26  H   UNL     1      -3.248  -2.899   7.452  0.00  0.00    +0.157 HD
BRANCH  24  27
ATOM     27  C   UNL     1      -5.418  -3.374   8.907  0.00  0.00    +0.040 A 
ATOM     28  C   UNL     1      -4.245  -3.812   9.525  0.00  0.00    +0.016 A 
ATOM     29  C   UNL     1      -4.302  -4.407  10.767  0.00  0.00    +0.042 A 
ATOM     30  C   UNL     1      -5.523  -4.583  11.399  0.00  0.00    +0.158 A 
ATOM     31  C   UNL     1      -6.694  -4.155  10.788  0.00  0.00    +0.159 A 
ATOM     32  C   UNL     1      -6.647  -3.552   9.547  0.00  0.00    +0.054 A 
ATOM     33  F   UNL     1      -7.882  -4.329  11.409  0.00  0.00    -0.202 F 
ATOM     34  F   UNL     1      -5.574  -5.172  12.614  0.00  0.00    -0.202 F 
ENDBRANCH  24  27
ENDBRANCH  21  23
ENDBRANCH  19  21
ENDBRANCH   4  19
TORSDOF 7
