REMARK  Name = ZINC39724282
REMARK  9 active torsions:
REMARK  status: ('A' for Active; 'I' for Inactive)
REMARK    1  A    between atoms: C_1  and  C_2
REMARK    2  A    between atoms: C_2  and  C_3
REMARK    3  A    between atoms: C_4  and  C_35
REMARK    4  A    between atoms: N_12  and  C_33
REMARK    5  A    between atoms: C_13  and  S_16
REMARK    6  A    between atoms: S_16  and  C_17
REMARK    7  A    between atoms: C_17  and  C_18
REMARK    8  A    between atoms: C_26  and  C_30
REMARK    9  A    between atoms: C_33  and  C_34
REMARK                            x       y       z     vdW  Elec       q    Type
REMARK                         _______ _______ _______ _____ _____    ______ ____
ROOT
ATOM      1  S   UNL     1       6.320  -2.035   1.745  0.00  0.00    -0.115 S 
ENDROOT
BRANCH   1  10
ATOM      2  C   UNL     1       0.731  -0.503   1.223  0.00  0.00    -0.047 C 
ATOM      3  C   UNL     1       0.069  -0.848   2.332  0.00  0.00    -0.016 C 
ATOM      4  S   UNL     1       1.312  -1.441   3.476  0.00  0.00    -0.110 S 
ATOM      5  C   UNL     1       2.660  -1.708   2.262  0.00  0.00    +0.134 C 
ATOM      6  C   UNL     1       2.190  -0.633   1.235  0.00  0.00    +0.129 C 
ATOM      7  C   UNL     1       2.978  -0.897  -0.003  0.00  0.00    +0.227 C 
ATOM      8  O   UNL     1       2.507  -0.885  -1.120  0.00  0.00    -0.275 OA
ATOM      9  N   UNL     1       4.297  -1.155   0.267  0.00  0.00    -0.277 N 
ATOM     10  C   UNL     1       4.857  -0.972   1.596  0.00  0.00    +0.205 C 
ATOM     11  N   UNL     1       3.968  -1.280   2.731  0.00  0.00    -0.277 NA
ATOM     12  C   UNL     1      -1.417  -0.757   2.570  0.00  0.00    +0.051 C 
ATOM     13  H   UNL     1       3.888  -0.495   3.359  0.00  0.00    +0.126 HD
BRANCH   2  15
ATOM     14  C   UNL     1      -0.019   1.526   0.010  0.00  0.00    +0.008 C 
ATOM     15  C   UNL     1       0.002  -0.004   0.002  0.00  0.00    +0.029 C 
ENDBRANCH   2  15
BRANCH   9  16
ATOM     16  C   UNL     1       5.166  -1.629  -0.814  0.00  0.00    +0.107 C 
ATOM     17  C   UNL     1       5.803  -0.429  -1.519  0.00  0.00    +0.024 C 
ENDBRANCH   9  16
ENDBRANCH   1  10
BRANCH   1  18
ATOM     18  C   UNL     1       5.674  -3.709   1.483  0.00  0.00    +0.146 C 
BRANCH  18  19
ATOM     19  C   UNL     1       6.801  -4.704   1.581  0.00  0.00    +0.120 A 
ATOM     20  N   UNL     1       6.516  -6.021   1.407  0.00  0.00    -0.310 N 
ATOM     21  H   UNL     1       5.604  -6.295   1.225  0.00  0.00    +0.170 HD
ATOM     22  C   UNL     1       7.494  -6.954   1.486  0.00  0.00    +0.259 A 
ATOM     23  O   UNL     1       7.252  -8.137   1.331  0.00  0.00    -0.267 OA
ATOM     24  C   UNL     1       8.861  -6.482   1.764  0.00  0.00    +0.065 A 
ATOM     25  C   UNL     1       9.936  -7.363   1.864  0.00  0.00    +0.016 A 
ATOM     26  C   UNL     1      11.188  -6.883   2.123  0.00  0.00    +0.016 A 
ATOM     27  C   UNL     1      11.403  -5.508   2.291  0.00  0.00    +0.065 A 
ATOM     28  C   UNL     1      10.344  -4.612   2.196  0.00  0.00    +0.043 A 
ATOM     29  C   UNL     1       9.060  -5.094   1.930  0.00  0.00    +0.079 A 
ATOM     30  N   UNL     1       7.997  -4.258   1.823  0.00  0.00    -0.233 NA
BRANCH  27  31
ATOM     31  C   UNL     1      12.765  -5.007   2.571  0.00  0.00    +0.387 C 
ATOM     32  O   UNL     1      13.699  -5.791   2.655  0.00  0.00    -0.241 OA
ATOM     33  O   UNL     1      12.957  -3.809   2.718  0.00  0.00    -0.241 OA
ENDBRANCH  27  31
ENDBRANCH  18  19
ENDBRANCH   1  18
TORSDOF 6
