REMARK  Name = ZINC23005100
REMARK  5 active torsions:
REMARK  status: ('A' for Active; 'I' for Inactive)
REMARK    1  A    between atoms: C_1  and  C_2
REMARK    2  A    between atoms: C_2  and  C_4
REMARK    3  A    between atoms: C_2  and  N_15
REMARK    4  A    between atoms: N_6  and  C_7
REMARK    5  A    between atoms: C_21  and  C_23
REMARK                            x       y       z     vdW  Elec       q    Type
REMARK                         _______ _______ _______ _____ _____    ______ ____
ROOT
ATOM      1  N   UNL     1      -1.096   2.925   1.589  0.00  0.00    +0.389 N 
ATOM      2  C   UNL     1       0.067   2.129   2.004  0.00  0.00    -0.058 C 
ATOM      3  C   UNL     1      -0.043   1.810   3.499  0.00  0.00    +0.089 C 
ATOM      4  N   UNL     1      -1.349   1.181   3.748  0.00  0.00    -0.301 N 
ATOM      5  C   UNL     1      -2.554   1.853   3.239  0.00  0.00    +0.089 C 
ATOM      6  C   UNL     1      -2.345   2.169   1.754  0.00  0.00    -0.058 C 
ATOM      7  C   UNL     1      -1.438   0.018   4.424  0.00  0.00    +0.246 C 
ATOM      8  O   UNL     1      -0.446  -0.469   4.929  0.00  0.00    -0.270 OA
ATOM      9  H   UNL     1      -1.148   3.806   2.245  0.00  0.00    -0.081 HD
ENDROOT
BRANCH   7  10
ATOM     10  C   UNL     1      -2.743  -0.664   4.551  0.00  0.00    +0.037 A 
ATOM     11  C   UNL     1      -3.673  -0.596   3.512  0.00  0.00    +0.014 A 
ATOM     12  C   UNL     1      -4.887  -1.240   3.634  0.00  0.00    +0.021 A 
ATOM     13  C   UNL     1      -5.188  -1.943   4.789  0.00  0.00    +0.041 A 
ATOM     14  C   UNL     1      -4.271  -2.009   5.825  0.00  0.00    +0.021 A 
ATOM     15  C   UNL     1      -3.052  -1.374   5.713  0.00  0.00    +0.014 A 
ATOM     16 CL   UNL     1      -6.720  -2.746   4.938  0.00  0.00    -0.084 Cl
ENDBRANCH   7  10
BRANCH   1  18
ATOM     17  C   UNL     1      -1.209   2.238  -0.759  0.00  0.00    -0.004 C 
ATOM     18  C   UNL     1      -0.945   3.396   0.206  0.00  0.00    +0.017 C 
BRANCH  18  19
ATOM     19  C   UNL     1      -1.931   4.505  -0.058  0.00  0.00    +0.203 C 
ATOM     20  O   UNL     1      -2.765   4.785   0.777  0.00  0.00    -0.277 OA
ATOM     21  N   UNL     1      -1.886   5.184  -1.221  0.00  0.00    -0.285 N 
ATOM     22  H   UNL     1      -1.186   4.876  -2.011  0.00  0.00    +0.155 HD
BRANCH  21  23
ATOM     23  C   UNL     1      -2.731   6.283  -1.423  0.00  0.00    +0.069 A 
ATOM     24  C   UNL     1      -4.003   6.293  -0.868  0.00  0.00    +0.027 A 
ATOM     25  C   UNL     1      -4.835   7.377  -1.069  0.00  0.00    +0.017 A 
ATOM     26  C   UNL     1      -4.402   8.454  -1.822  0.00  0.00    +0.021 A 
ATOM     27  C   UNL     1      -3.134   8.448  -2.377  0.00  0.00    +0.055 A 
ATOM     28  C   UNL     1      -2.295   7.368  -2.175  0.00  0.00    +0.146 A 
ATOM     29  F   UNL     1      -1.055   7.365  -2.711  0.00  0.00    -0.204 F 
ATOM     30 BR   UNL     1      -5.544   9.936  -2.094  0.00  0.00    -0.050 Br
ENDBRANCH  21  23
ENDBRANCH  18  19
ENDBRANCH   1  18
TORSDOF 4
