REMARK  Name = ZINC35377874
REMARK  11 active torsions:
REMARK  status: ('A' for Active; 'I' for Inactive)
REMARK    1  A    between atoms: C_1  and  C_2
REMARK    2  A    between atoms: C_2  and  C_3
REMARK    3  A    between atoms: C_6  and  N_9
REMARK    4  A    between atoms: C_10  and  C_12
REMARK    5  A    between atoms: C_12  and  C_14
REMARK    6  A    between atoms: C_12  and  S_16
REMARK    7  A    between atoms: C_14  and  C_15
REMARK    8  A    between atoms: S_16  and  C_17
REMARK    9  A    between atoms: C_21  and  C_24
REMARK   10  A    between atoms: C_29  and  N_30
REMARK   11  A    between atoms: C_31  and  C_33
REMARK                            x       y       z     vdW  Elec       q    Type
REMARK                         _______ _______ _______ _____ _____    ______ ____
ROOT
ATOM      1  C   UNL     1       1.418  -5.174   8.767  0.00  0.00    +0.213 A 
ATOM      2  N   UNL     1       0.514  -5.896   9.419  0.00  0.00    -0.180 NA
ATOM      3  C   UNL     1      -0.167  -6.831   8.768  0.00  0.00    +0.300 A 
ATOM      4  O   UNL     1      -1.095  -7.582   9.408  0.00  0.00    -0.263 OA
ATOM      5  C   UNL     1       0.096  -7.026   7.400  0.00  0.00    +0.161 A 
ATOM      6  N   UNL     1       1.012  -6.270   6.807  0.00  0.00    -0.141 NA
ATOM      7  N   UNL     1       1.647  -5.370   7.474  0.00  0.00    -0.122 NA
ENDROOT
BRANCH   5   8
ATOM      8  C   UNL     1      -0.639  -8.058   6.633  0.00  0.00    +0.029 A 
ATOM      9  C   UNL     1      -2.027  -8.147   6.729  0.00  0.00    +0.012 A 
ATOM     10  C   UNL     1      -2.706  -9.111   6.013  0.00  0.00    +0.001 A 
ATOM     11  C   UNL     1      -2.016  -9.991   5.197  0.00  0.00    +0.002 A 
ATOM     12  C   UNL     1      -0.640  -9.913   5.093  0.00  0.00    +0.024 A 
ATOM     13  C   UNL     1       0.056  -8.945   5.802  0.00  0.00    +0.043 A 
BRANCH  13  14
ATOM     14  N   UNL     1       1.447  -8.861   5.694  0.00  0.00    -0.285 N 
ATOM     15  C   UNL     1       2.074  -9.402   4.631  0.00  0.00    +0.214 C 
ATOM     16  O   UNL     1       1.426  -9.879   3.722  0.00  0.00    -0.276 OA
ATOM     17  C   UNL     1       3.579  -9.416   4.571  0.00  0.00    +0.109 C 
ATOM     18  H   UNL     1       1.961  -8.412   6.383  0.00  0.00    +0.155 HD
ENDBRANCH  13  14
ENDBRANCH   5   8
BRANCH   1  19
ATOM     19  S   UNL     1       2.323  -3.932   9.629  0.00  0.00    -0.072 S 
BRANCH  19  20
ATOM     20  C   UNL     1       3.303  -3.124   8.334  0.00  0.00    +0.140 C 
BRANCH  20  22
ATOM     21  N   UNL     1       2.777  -2.183   6.107  0.00  0.00    -0.285 N 
ATOM     22  C   UNL     1       2.382  -2.415   7.375  0.00  0.00    +0.231 C 
ATOM     23  O   UNL     1       1.284  -2.054   7.743  0.00  0.00    -0.274 OA
ATOM     24  H   UNL     1       3.625  -2.534   5.792  0.00  0.00    +0.155 HD
BRANCH  21  28
ATOM     25  C   UNL     1       0.363   0.045   3.546  0.00  0.00    -0.048 A 
ATOM     26  C   UNL     1       0.426   0.368   4.889  0.00  0.00    +0.005 A 
ATOM     27  C   UNL     1       1.226  -0.368   5.741  0.00  0.00    +0.023 A 
ATOM     28  C   UNL     1       1.966  -1.435   5.247  0.00  0.00    +0.033 A 
ATOM     29  C   UNL     1       1.899  -1.757   3.898  0.00  0.00    +0.023 A 
ATOM     30  C   UNL     1       1.094  -1.020   3.052  0.00  0.00    +0.005 A 
BRANCH  25  32
ATOM     31  C   UNL     1      -1.912   0.238   2.578  0.00  0.00    +0.009 C 
ATOM     32  C   UNL     1      -0.511   0.851   2.619  0.00  0.00    +0.032 C 
ENDBRANCH  25  32
ENDBRANCH  21  28
ENDBRANCH  20  22
BRANCH  20  33
ATOM     33  C   UNL     1       4.254  -2.109   8.972  0.00  0.00    +0.020 C 
ATOM     34  C   UNL     1       5.285  -2.845   9.830  0.00  0.00    +0.005 C 
ENDBRANCH  20  33
ENDBRANCH  19  20
ENDBRANCH   1  19
TORSDOF 8
