REMARK  Name = ZINC59680324
REMARK  7 active torsions:
REMARK  status: ('A' for Active; 'I' for Inactive)
REMARK    1  A    between atoms: C_1  and  O_2
REMARK    2  A    between atoms: O_2  and  C_3
REMARK    3  A    between atoms: C_7  and  C_11
REMARK    4  A    between atoms: C_8  and  O_9
REMARK    5  A    between atoms: O_9  and  C_10
REMARK    6  A    between atoms: N_12  and  N_13
REMARK    7  A    between atoms: C_14  and  C_16
REMARK                            x       y       z     vdW  Elec       q    Type
REMARK                         _______ _______ _______ _____ _____    ______ ____
ROOT
ATOM      1  N   UNL     1       0.865  -6.204  -1.458  0.00  0.00    -0.200 N 
ATOM      2  C   UNL     1       0.317  -6.960  -0.486  0.00  0.00    +0.299 C 
ATOM      3  O   UNL     1      -0.226  -6.428   0.465  0.00  0.00    -0.265 OA
ATOM      4  H   UNL     1       1.297  -6.628  -2.216  0.00  0.00    +0.178 HD
ENDROOT
BRANCH   2   5
ATOM      5  C   UNL     1       0.374  -8.425  -0.574  0.00  0.00    +0.192 A 
ATOM      6  C   UNL     1      -0.146  -9.285   0.340  0.00  0.00    +0.063 A 
ATOM      7  C   UNL     1       0.144 -10.629  -0.156  0.00  0.00    +0.022 A 
ATOM      8  C   UNL     1      -0.119 -11.918   0.314  0.00  0.00    +0.027 A 
ATOM      9  C   UNL     1       0.300 -13.001  -0.408  0.00  0.00    +0.019 A 
ATOM     10  C   UNL     1       0.986 -12.827  -1.604  0.00  0.00    +0.019 A 
ATOM     11  C   UNL     1       1.255 -11.563  -2.084  0.00  0.00    +0.048 A 
ATOM     12  C   UNL     1       0.838 -10.447  -1.367  0.00  0.00    +0.136 A 
ATOM     13  O   UNL     1       0.947  -9.121  -1.579  0.00  0.00    -0.450 OA
ATOM     14 BR   UNL     1      -0.054 -14.747   0.225  0.00  0.00    -0.050 Br
ENDBRANCH   2   5
BRANCH   1  16
ATOM     15  C   UNL     1       1.337  -4.079  -2.311  0.00  0.00    +0.142 C 
ATOM     16  N   UNL     1       0.810  -4.807  -1.374  0.00  0.00    -0.187 NA
BRANCH  15  21
ATOM     17  C   UNL     1       0.606  -0.608  -1.056  0.00  0.00    +0.163 A 
ATOM     18  C   UNL     1       1.173   0.161  -2.062  0.00  0.00    +0.064 A 
ATOM     19  C   UNL     1       1.790  -0.447  -3.142  0.00  0.00    +0.022 A 
ATOM     20  C   UNL     1       1.847  -1.822  -3.229  0.00  0.00    +0.028 A 
ATOM     21  C   UNL     1       1.280  -2.609  -2.222  0.00  0.00    +0.041 A 
ATOM     22  C   UNL     1       0.661  -1.994  -1.127  0.00  0.00    +0.170 A 
ATOM     23 BR   UNL     1       2.558   0.615  -4.506  0.00  0.00    -0.050 Br
BRANCH  17  25
ATOM     24  C   UNL     1      -0.017   1.425   0.010  0.00  0.00    +0.277 C 
ATOM     25  O   UNL     1       0.002  -0.004   0.002  0.00  0.00    -0.491 OA
ENDBRANCH  17  25
BRANCH  22  26
ATOM     26  O   UNL     1       0.111  -2.750  -0.140  0.00  0.00    -0.491 OA
ATOM     27  C   UNL     1      -1.260  -3.123  -0.296  0.00  0.00    +0.277 C 
ENDBRANCH  22  26
ENDBRANCH  15  21
ENDBRANCH   1  16
TORSDOF 5
