REMARK  Name = ZINC39769164
REMARK  8 active torsions:
REMARK  status: ('A' for Active; 'I' for Inactive)
REMARK    1  A    between atoms: C_1  and  C_2
REMARK    2  A    between atoms: C_3  and  C_22
REMARK    3  A    between atoms: C_4  and  N_12
REMARK    4  A    between atoms: N_5  and  C_11
REMARK    5  A    between atoms: C_8  and  C_9
REMARK    6  A    between atoms: C_14  and  C_21
REMARK    7  A    between atoms: C_17  and  C_20
REMARK    8  A    between atoms: N_26  and  C_30
REMARK                            x       y       z     vdW  Elec       q    Type
REMARK                         _______ _______ _______ _____ _____    ______ ____
ROOT
ATOM      1  C   UNL     1       0.138   0.697   0.173  0.00  0.00    +0.046 C 
ATOM      2  C   UNL     1      -0.116  -0.652  -0.450  0.00  0.00    -0.017 A 
ATOM      3  C   UNL     1      -1.294  -1.362  -0.161  0.00  0.00    +0.019 A 
ATOM      4  C   UNL     1      -1.507  -2.616  -0.755  0.00  0.00    +0.111 A 
ATOM      5  N   UNL     1      -0.586  -3.144  -1.602  0.00  0.00    -0.298 N 
ATOM      6  C   UNL     1       0.549  -2.484  -1.895  0.00  0.00    +0.270 A 
ATOM      7  O   UNL     1       1.357  -2.982  -2.659  0.00  0.00    -0.266 OA
ATOM      8  C   UNL     1       0.809  -1.212  -1.326  0.00  0.00    +0.120 A 
ATOM      9  C   UNL     1      -0.833  -4.455  -2.207  0.00  0.00    +0.154 C 
ENDROOT
BRANCH   4  10
ATOM     10  N   UNL     1      -2.648  -3.311  -0.478  0.00  0.00    -0.315 N 
ATOM     11  C   UNL     1      -3.041  -3.583   0.911  0.00  0.00    +0.109 C 
ATOM     12  C   UNL     1      -4.475  -3.089   1.125  0.00  0.00    +0.004 C 
ATOM     13  C   UNL     1      -5.391  -3.726   0.077  0.00  0.00    +0.009 C 
ATOM     14  C   UNL     1      -4.938  -3.304  -1.323  0.00  0.00    +0.004 C 
ATOM     15  C   UNL     1      -3.512  -3.796  -1.564  0.00  0.00    +0.109 C 
ATOM     16  C   UNL     1      -4.974  -1.779  -1.433  0.00  0.00    +0.009 C 
ATOM     17  C   UNL     1      -4.948  -3.484   2.525  0.00  0.00    +0.009 C 
ENDBRANCH   4  10
BRANCH   3  18
ATOM     18  C   UNL     1      -2.290  -0.798   0.752  0.00  0.00    +0.032 C 
ATOM     19  C   UNL     1      -2.993   0.310   0.393  0.00  0.00    +0.077 C 
ATOM     20  C   UNL     1      -3.027   0.998  -0.858  0.00  0.00    +0.259 C 
ATOM     21  O   UNL     1      -2.363   0.613  -1.804  0.00  0.00    -0.269 OA
ATOM     22  N   UNL     1      -3.800   2.065  -0.958  0.00  0.00    -0.252 N 
ATOM     23  C   UNL     1      -4.537   2.492   0.092  0.00  0.00    +0.121 C 
ATOM     24  S   UNL     1      -5.596   3.834   0.184  0.00  0.00    -0.027 S 
ATOM     25  S   UNL     1      -4.131   1.296   1.356  0.00  0.00    -0.061 S 
BRANCH  22  26
ATOM     26  C   UNL     1      -3.860   2.797  -2.226  0.00  0.00    +0.083 C 
ATOM     27  C   UNL     1      -3.400   4.239  -2.005  0.00  0.00    +0.023 C 
ATOM     28  C   UNL     1      -3.462   5.003  -3.329  0.00  0.00    +0.002 C 
ATOM     29  C   UNL     1      -4.900   5.000  -3.852  0.00  0.00    +0.000 C 
ATOM     30  C   UNL     1      -5.359   3.558  -4.074  0.00  0.00    +0.002 C 
ATOM     31  C   UNL     1      -5.297   2.794  -2.749  0.00  0.00    +0.023 C 
ENDBRANCH  22  26
ENDBRANCH   3  18
BRANCH   8  32
ATOM     32  C   UNL     1       2.017  -0.511  -1.646  0.00  0.00    +0.105 C 
ATOM     33  N   UNL     1       2.974   0.044  -1.899  0.00  0.00    -0.191 NA
ENDBRANCH   8  32
TORSDOF 4
