REMARK  Name = ZINC67298157
REMARK  4 active torsions:
REMARK  status: ('A' for Active; 'I' for Inactive)
REMARK    1  A    between atoms: C_4  and  N_11
REMARK    2  A    between atoms: C_5  and  C_7
REMARK    3  A    between atoms: C_13  and  C_23
REMARK    4  A    between atoms: C_18  and  O_22
REMARK                            x       y       z     vdW  Elec       q    Type
REMARK                         _______ _______ _______ _____ _____    ______ ____
ROOT
ATOM      1  N   UNL     1       3.595  -0.647  -0.080  0.00  0.00    -0.325 N 
ATOM      2  C   UNL     1       4.718   0.034  -0.166  0.00  0.00    +0.212 A 
ATOM      3  C   UNL     1       6.020  -0.652  -0.280  0.00  0.00    +0.098 A 
ATOM      4  C   UNL     1       7.056   0.043  -0.888  0.00  0.00    +0.030 A 
ATOM      5  C   UNL     1       6.806   1.368  -1.328  0.00  0.00    +0.018 A 
ATOM      6  C   UNL     1       7.746   2.041  -2.123  0.00  0.00    +0.015 A 
ATOM      7  C   UNL     1       7.477   3.299  -2.576  0.00  0.00    +0.046 A 
ATOM      8  C   UNL     1       6.277   3.927  -2.248  0.00  0.00    +0.120 A 
ATOM      9  C   UNL     1       5.344   3.285  -1.447  0.00  0.00    +0.092 A 
ATOM     10  C   UNL     1       5.604   2.011  -0.973  0.00  0.00    +0.141 A 
ATOM     11  O   UNL     1       4.718   1.391  -0.159  0.00  0.00    -0.438 OA
ATOM     12  H   UNL     1       3.616  -1.617  -0.062  0.00  0.00    +0.169 HD
ENDROOT
BRANCH   3  13
ATOM     13  C   UNL     1       6.213  -2.017   0.233  0.00  0.00    +0.255 C 
ATOM     14  O   UNL     1       5.271  -2.631   0.698  0.00  0.00    -0.270 OA
ATOM     15  N   UNL     1       7.433  -2.589   0.186  0.00  0.00    -0.261 N 
ATOM     16  C   UNL     1       7.638  -3.836   0.762  0.00  0.00    +0.165 A 
ATOM     17  N   UNL     1       6.767  -4.603   1.383  0.00  0.00    -0.233 NA
ATOM     18  C   UNL     1       7.122  -5.773   1.880  0.00  0.00    +0.120 A 
ATOM     19  C   UNL     1       8.416  -6.144   1.720  0.00  0.00    +0.068 A 
ATOM     20  S   UNL     1       9.057  -4.737   0.828  0.00  0.00    -0.061 S 
ATOM     21  H   UNL     1       8.167  -2.129  -0.249  0.00  0.00    +0.157 HD
ENDBRANCH   3  13
BRANCH   1  25
ATOM     22  C   UNL     1      -0.024   1.347   0.112  0.00  0.00    +0.001 A 
ATOM     23  C   UNL     1       0.998   1.691   0.979  0.00  0.00    +0.002 A 
ATOM     24  C   UNL     1       2.208   1.030   0.921  0.00  0.00    +0.026 A 
ATOM     25  C   UNL     1       2.399   0.012  -0.017  0.00  0.00    +0.054 A 
ATOM     26  C   UNL     1       1.362  -0.330  -0.888  0.00  0.00    +0.078 A 
ATOM     27  C   UNL     1       0.158   0.339  -0.818  0.00  0.00    +0.014 A 
BRANCH  26  28
ATOM     28  C   UNL     1       1.558  -1.427  -1.903  0.00  0.00    +0.419 C 
ATOM     29  F   UNL     1       0.388  -1.583  -2.653  0.00  0.00    -0.166 F 
ATOM     30  F   UNL     1       2.617  -1.091  -2.753  0.00  0.00    -0.166 F 
ATOM     31  F   UNL     1       1.853  -2.625  -1.243  0.00  0.00    -0.166 F 
ENDBRANCH  26  28
ENDBRANCH   1  25
BRANCH   8  32
ATOM     32  O   UNL     1       6.019   5.175  -2.715  0.00  0.00    -0.507 OA
ATOM     33  H   UNL     1       5.566   5.189  -3.569  0.00  0.00    +0.292 HD
ENDBRANCH   8  32
TORSDOF 4
