REMARK  Name = ZINC34749954
REMARK  9 active torsions:
REMARK  status: ('A' for Active; 'I' for Inactive)
REMARK    1  A    between atoms: C_1  and  C_2
REMARK    2  A    between atoms: C_2  and  S_3
REMARK    3  A    between atoms: S_3  and  C_4
REMARK    4  A    between atoms: C_15  and  C_17
REMARK    5  A    between atoms: C_15  and  C_18
REMARK    6  A    between atoms: N_22  and  C_25
REMARK    7  A    between atoms: C_25  and  C_26
REMARK    8  A    between atoms: N_28  and  C_29
REMARK    9  A    between atoms: C_32  and  C_35
REMARK                            x       y       z     vdW  Elec       q    Type
REMARK                         _______ _______ _______ _____ _____    ______ ____
ROOT
ATOM      1  C   UNL     1      -0.935  -3.000  -2.418  0.00  0.00    +0.191 A 
ATOM      2  N   UNL     1      -2.005  -3.748  -2.174  0.00  0.00    -0.206 NA
ATOM      3  C   UNL     1      -2.477  -3.922  -0.951  0.00  0.00    +0.134 A 
ATOM      4  C   UNL     1      -1.823  -3.290   0.144  0.00  0.00    +0.051 A 
ATOM      5  C   UNL     1      -2.162  -3.337   1.566  0.00  0.00    -0.020 A 
ATOM      6  C   UNL     1      -1.371  -2.640   2.409  0.00  0.00    +0.021 A 
ATOM      7  S   UNL     1      -0.143  -1.891   1.378  0.00  0.00    -0.071 S 
ATOM      8  C   UNL     1      -0.695  -2.513  -0.189  0.00  0.00    +0.115 A 
ATOM      9  N   UNL     1      -0.283  -2.392  -1.436  0.00  0.00    -0.215 NA
ATOM     10  C   UNL     1      -1.529  -2.544   3.896  0.00  0.00    +0.203 C 
ATOM     11  O   UNL     1      -2.832  -3.045   4.235  0.00  0.00    -0.368 OA
ATOM     12  C   UNL     1      -3.133  -4.304   3.627  0.00  0.00    +0.068 C 
ATOM     13  C   UNL     1      -3.346  -4.124   2.120  0.00  0.00    +0.071 C 
ATOM     14  C   UNL     1      -1.973  -5.273   3.863  0.00  0.00    +0.041 C 
ATOM     15  C   UNL     1      -4.405  -4.878   4.253  0.00  0.00    +0.041 C 
ATOM     16  N   UNL     1      -3.594  -4.709  -0.738  0.00  0.00    -0.318 N 
ATOM     17  C   UNL     1      -3.474  -6.168  -0.594  0.00  0.00    +0.088 C 
ATOM     18  C   UNL     1      -4.479  -6.833  -1.540  0.00  0.00    -0.059 C 
ATOM     19  N   UNL     1      -5.824  -6.306  -1.275  0.00  0.00    +0.387 N 
ATOM     20  C   UNL     1      -5.870  -4.873  -1.593  0.00  0.00    -0.059 C 
ATOM     21  C   UNL     1      -4.934  -4.110  -0.643  0.00  0.00    +0.088 C 
ATOM     22  H   UNL     1      -6.050  -6.441  -0.301  0.00  0.00    -0.081 HD
ENDROOT
BRANCH   1  23
ATOM     23  S   UNL     1      -0.368  -2.817  -4.076  0.00  0.00    -0.086 S 
BRANCH  23  25
ATOM     24  C   UNL     1       1.685  -1.500  -5.314  0.00  0.00    +0.016 C 
ATOM     25  C   UNL     1       1.086  -1.743  -3.927  0.00  0.00    +0.074 C 
ENDBRANCH  23  25
ENDBRANCH   1  23
BRANCH  19  26
ATOM     26  C   UNL     1      -6.801  -7.022  -2.106  0.00  0.00    +0.019 C 
BRANCH  26  27
ATOM     27  C   UNL     1      -8.193  -6.569  -1.747  0.00  0.00    +0.201 C 
ATOM     28  O   UNL     1      -8.354  -5.731  -0.884  0.00  0.00    -0.278 OA
ATOM     29  N   UNL     1      -9.258  -7.093  -2.384  0.00  0.00    -0.287 N 
ATOM     30  H   UNL     1      -9.134  -7.809  -3.027  0.00  0.00    +0.155 HD
BRANCH  29  31
ATOM     31  C   UNL     1     -10.542  -6.606  -2.119  0.00  0.00    +0.033 A 
ATOM     32  C   UNL     1     -11.482  -6.529  -3.139  0.00  0.00    +0.023 A 
ATOM     33  C   UNL     1     -12.749  -6.047  -2.874  0.00  0.00    +0.005 A 
ATOM     34  C   UNL     1     -13.082  -5.641  -1.595  0.00  0.00    -0.050 A 
ATOM     35  C   UNL     1     -12.149  -5.715  -0.578  0.00  0.00    +0.005 A 
ATOM     36  C   UNL     1     -10.882  -6.202  -0.835  0.00  0.00    +0.023 A 
ATOM     37  C   UNL     1     -14.465  -5.116  -1.310  0.00  0.00    +0.044 C 
ENDBRANCH  29  31
ENDBRANCH  26  27
ENDBRANCH  19  26
TORSDOF 5
