REMARK  Name = ZINC39480234
REMARK  2 active torsions:
REMARK  status: ('A' for Active; 'I' for Inactive)
REMARK    1  A    between atoms: C_1  and  N_2
REMARK    2  A    between atoms: C_8  and  O_9
REMARK                            x       y       z     vdW  Elec       q    Type
REMARK                         _______ _______ _______ _____ _____    ______ ____
ROOT
ATOM      1  C   UNL     1      -0.018   1.461   0.010  0.00  0.00    +0.137 C 
ATOM      2  N   UNL     1       0.002  -0.004   0.002  0.00  0.00    -0.283 N 
ATOM      3  C   UNL     1      -1.246  -0.587   0.005  0.00  0.00    +0.081 A 
ATOM      4  C   UNL     1      -2.255   0.123   0.623  0.00  0.00    -0.013 A 
ATOM      5  C   UNL     1      -3.566   0.031   0.329  0.00  0.00    +0.021 A 
ATOM      6  C   UNL     1      -3.941  -1.082  -0.434  0.00  0.00    +0.022 A 
ATOM      7  C   UNL     1      -2.975  -1.990  -0.837  0.00  0.00    +0.062 A 
ATOM      8  C   UNL     1      -1.620  -1.762  -0.632  0.00  0.00    +0.139 A 
ATOM      9 BR   UNL     1      -5.753  -1.343  -0.911  0.00  0.00    -0.050 Br
ATOM     10  C   UNL     1      -1.765   0.591   2.032  0.00  0.00    +0.124 C 
ATOM     11  C   UNL     1      -0.373  -0.032   1.995  0.00  0.00    +0.195 C 
ATOM     12  N   UNL     1       0.755   0.586   1.905  0.00  0.00    -0.217 NA
ATOM     13  C   UNL     1       1.753  -0.137   1.323  0.00  0.00    +0.143 A 
ATOM     14  C   UNL     1       1.256  -0.548  -0.013  0.00  0.00    +0.156 A 
ATOM     15  N   UNL     1       2.016  -1.236  -0.776  0.00  0.00    -0.218 NA
ATOM     16  C   UNL     1       3.237  -1.584  -0.381  0.00  0.00    +0.225 A 
ATOM     17  N   UNL     1       3.721  -1.244   0.798  0.00  0.00    -0.222 NA
ATOM     18  C   UNL     1       3.000  -0.523   1.678  0.00  0.00    +0.160 A 
ATOM     19 CL   UNL     1       3.653  -0.089   3.227  0.00  0.00    -0.060 Cl
ATOM     20  F   UNL     1      -0.316  -1.380   2.064  0.00  0.00    -0.188 F 
ENDROOT
BRANCH   8  21
ATOM     21  O   UNL     1      -0.689  -2.663  -1.044  0.00  0.00    -0.505 OA
ATOM     22  H   UNL     1      -0.468  -3.332  -0.381  0.00  0.00    +0.292 HD
ENDBRANCH   8  21
TORSDOF 1
