REMARK  Name = ZINC09085428
REMARK  8 active torsions:
REMARK  status: ('A' for Active; 'I' for Inactive)
REMARK    1  A    between atoms: C_2  and  C_3
REMARK    2  A    between atoms: C_3  and  N_4
REMARK    3  A    between atoms: C_14  and  S_15
REMARK    4  A    between atoms: S_15  and  C_16
REMARK    5  A    between atoms: C_16  and  C_17
REMARK    6  A    between atoms: N_19  and  C_20
REMARK    7  A    between atoms: C_23  and  S_26
REMARK    8  A    between atoms: S_26  and  N_29
REMARK                            x       y       z     vdW  Elec       q    Type
REMARK                         _______ _______ _______ _____ _____    ______ ____
ROOT
ATOM      1  C   UNL     1      -4.315  -1.753  -0.242  0.00  0.00    +0.173 C 
ENDROOT
BRANCH   1   2
ATOM      2  C   UNL     1      -4.572  -2.557  -1.490  0.00  0.00    +0.227 C 
ATOM      3  O   UNL     1      -3.981  -2.290  -2.515  0.00  0.00    -0.275 OA
ATOM      4  N   UNL     1      -5.458  -3.572  -1.469  0.00  0.00    -0.285 N 
ATOM      5  H   UNL     1      -5.880  -3.829  -0.634  0.00  0.00    +0.155 HD
BRANCH   4   6
ATOM      6  C   UNL     1      -5.768  -4.255  -2.650  0.00  0.00    +0.034 A 
ATOM      7  C   UNL     1      -7.055  -4.733  -2.860  0.00  0.00    +0.025 A 
ATOM      8  C   UNL     1      -7.360  -5.401  -4.029  0.00  0.00    +0.030 A 
ATOM      9  C   UNL     1      -6.381  -5.606  -4.985  0.00  0.00    +0.105 A 
ATOM     10  C   UNL     1      -5.098  -5.138  -4.776  0.00  0.00    +0.030 A 
ATOM     11  C   UNL     1      -4.788  -4.463  -3.611  0.00  0.00    +0.025 A 
BRANCH   9  12
ATOM     12  S   UNL     1      -6.772  -6.467  -6.472  0.00  0.00    +0.056 S 
ATOM     13  O   UNL     1      -8.173  -6.325  -6.667  0.00  0.00    -0.153 OA
ATOM     14  O   UNL     1      -5.822  -6.051  -7.444  0.00  0.00    -0.153 OA
BRANCH  12  15
ATOM     15  N   UNL     1      -6.493  -8.075  -6.196  0.00  0.00    -0.204 NA
ATOM     16  H   UNL     1      -7.014  -8.746  -6.664  0.00  0.00    +0.144 HD
ATOM     17  H   UNL     1      -5.808  -8.347  -5.565  0.00  0.00    +0.144 HD
ENDBRANCH  12  15
ENDBRANCH   9  12
ENDBRANCH   4   6
ENDBRANCH   1   2
BRANCH   1  18
ATOM     18  S   UNL     1      -3.085  -0.472  -0.590  0.00  0.00    -0.078 S 
BRANCH  18  29
ATOM     19  N   UNL     1      -2.126   1.344   1.155  0.00  0.00    -0.283 N 
ATOM     20  C   UNL     1      -2.017   1.965   2.352  0.00  0.00    +0.263 A 
ATOM     21  O   UNL     1      -1.263   2.908   2.508  0.00  0.00    -0.267 OA
ATOM     22  C   UNL     1      -2.842   1.460   3.458  0.00  0.00    +0.065 A 
ATOM     23  C   UNL     1      -2.799   2.032   4.729  0.00  0.00    +0.017 A 
ATOM     24  C   UNL     1      -3.585   1.526   5.726  0.00  0.00    +0.021 A 
ATOM     25  C   UNL     1      -4.428   0.446   5.487  0.00  0.00    +0.043 A 
ATOM     26  C   UNL     1      -4.490  -0.138   4.241  0.00  0.00    +0.048 A 
ATOM     27  C   UNL     1      -3.696   0.361   3.205  0.00  0.00    +0.080 A 
ATOM     28  N   UNL     1      -3.723  -0.181   1.966  0.00  0.00    -0.223 NA
ATOM     29  C   UNL     1      -2.981   0.291   0.995  0.00  0.00    +0.173 A 
ATOM     30 CL   UNL     1      -5.415  -0.172   6.774  0.00  0.00    -0.083 Cl
BRANCH  19  31
ATOM     31  C   UNL     1      -1.326   1.809   0.020  0.00  0.00    +0.154 C 
BRANCH  31  33
ATOM     32  C   UNL     1       1.115   1.747  -0.012  0.00  0.00    +0.005 C 
ATOM     33  C   UNL     1      -0.010   1.075  -0.001  0.00  0.00    -0.013 C 
ENDBRANCH  31  33
ENDBRANCH  19  31
ENDBRANCH  18  29
ENDBRANCH   1  18
TORSDOF 8
