REMARK  Name = ZINC06044935
REMARK  5 active torsions:
REMARK  status: ('A' for Active; 'I' for Inactive)
REMARK    1  A    between atoms: C_3  and  N_17
REMARK    2  A    between atoms: C_5  and  S_7
REMARK    3  A    between atoms: S_7  and  N_10
REMARK    4  A    between atoms: C_18  and  C_20
REMARK    5  A    between atoms: C_21  and  C_22
REMARK                            x       y       z     vdW  Elec       q    Type
REMARK                         _______ _______ _______ _____ _____    ______ ____
ROOT
ATOM      1  C   UNL     1       0.513  -1.178   3.825  0.00  0.00    +0.004 A 
ATOM      2  C   UNL     1       1.880  -1.358   3.907  0.00  0.00    +0.023 A 
ATOM      3  C   UNL     1       2.677  -1.126   2.793  0.00  0.00    +0.036 A 
ATOM      4  C   UNL     1       2.095  -0.720   1.599  0.00  0.00    +0.052 A 
ATOM      5  C   UNL     1       0.729  -0.536   1.526  0.00  0.00    +0.110 A 
ATOM      6  C   UNL     1      -0.062  -0.767   2.637  0.00  0.00    +0.029 A 
ENDROOT
BRANCH   3   7
ATOM      7  N   UNL     1       4.061  -1.308   2.873  0.00  0.00    -0.282 N 
ATOM      8  C   UNL     1       4.715  -1.011   4.013  0.00  0.00    +0.241 C 
ATOM      9  O   UNL     1       4.093  -0.664   5.000  0.00  0.00    -0.270 OA
ATOM     10  H   UNL     1       4.550  -1.648   2.107  0.00  0.00    +0.155 HD
BRANCH   8  11
ATOM     11  C   UNL     1       6.175  -1.104   4.064  0.00  0.00    +0.068 C 
ATOM     12  C   UNL     1       6.830  -0.806   5.206  0.00  0.00    +0.013 C 
BRANCH  12  13
ATOM     13  C   UNL     1       8.297  -0.900   5.257  0.00  0.00    -0.025 A 
ATOM     14  C   UNL     1       9.015  -1.304   4.127  0.00  0.00    +0.011 A 
ATOM     15  C   UNL     1      10.390  -1.384   4.180  0.00  0.00    +0.039 A 
ATOM     16  C   UNL     1      11.060  -1.077   5.355  0.00  0.00    +0.123 A 
ATOM     17  C   UNL     1      10.353  -0.683   6.481  0.00  0.00    +0.039 A 
ATOM     18  C   UNL     1       8.979  -0.593   6.439  0.00  0.00    +0.011 A 
ATOM     19  F   UNL     1      12.408  -1.164   5.403  0.00  0.00    -0.205 F 
ENDBRANCH  12  13
ENDBRANCH   8  11
ENDBRANCH   3   7
BRANCH   5  20
ATOM     20  S   UNL     1      -0.009  -0.013   0.013  0.00  0.00    +0.073 S 
ATOM     21  O   UNL     1      -1.362  -0.446   0.051  0.00  0.00    -0.150 OA
ATOM     22  O   UNL     1       0.883  -0.392  -1.026  0.00  0.00    -0.150 OA
BRANCH  20  23
ATOM     23  N   UNL     1      -0.041   1.642   0.031  0.00  0.00    -0.205 N 
ATOM     24  C   UNL     1       1.132   2.350   0.025  0.00  0.00    +0.088 C 
ATOM     25  C   UNL     1       3.518   2.471  -0.002  0.00  0.00    +0.113 C 
ATOM     26  C   UNL     1       3.743   3.080   1.383  0.00  0.00    +0.021 C 
ATOM     27  C   UNL     1       3.060   4.433   1.493  0.00  0.00    +0.002 C 
ATOM     28  C   UNL     1       1.544   4.347   1.423  0.00  0.00    +0.007 C 
ATOM     29  C   UNL     1       1.097   3.863   0.035  0.00  0.00    +0.070 C 
ATOM     30  H   UNL     1      -0.890   2.111   0.041  0.00  0.00    +0.175 HD
ATOM     31  N   UNL     1       2.247   1.654   0.006  0.00  0.00    -0.375 N 
ATOM     32  H   UNL     1       2.253   0.627  -0.003  0.00  0.00    +0.161 HD
ENDBRANCH  20  23
ENDBRANCH   5  20
TORSDOF 5
