REMARK  Name = ZINC38805337
REMARK  6 active torsions:
REMARK  status: ('A' for Active; 'I' for Inactive)
REMARK    1  A    between atoms: C_1  and  C_2
REMARK    2  A    between atoms: C_3  and  N_9
REMARK    3  A    between atoms: C_4  and  C_8
REMARK    4  A    between atoms: C_10  and  C_12
REMARK    5  A    between atoms: C_15  and  N_18
REMARK    6  A    between atoms: C_19  and  C_21
REMARK                            x       y       z     vdW  Elec       q    Type
REMARK                         _______ _______ _______ _____ _____    ______ ____
ROOT
ATOM      1  N   UNL     1      -0.054  -0.148  -2.374  0.00  0.00    -0.277 N 
ATOM      2  C   UNL     1       0.356  -0.884  -3.427  0.00  0.00    +0.264 C 
ATOM      3  O   UNL     1       0.674  -2.049  -3.269  0.00  0.00    -0.268 OA
ATOM      4  H   UNL     1      -0.379   0.755  -2.511  0.00  0.00    +0.155 HD
ENDROOT
BRANCH   1   7
ATOM      5  C   UNL     1       2.036   0.593  -0.239  0.00  0.00    +0.067 C 
ATOM      6  C   UNL     1       0.897  -0.386  -0.113  0.00  0.00    +0.054 A 
ATOM      7  C   UNL     1      -0.009  -0.691  -1.077  0.00  0.00    +0.077 A 
ATOM      8  C   UNL     1      -0.893  -1.643  -0.549  0.00  0.00    +0.081 A 
ATOM      9  N   UNL     1      -0.534  -1.901   0.683  0.00  0.00    -0.177 NA
ATOM     10  N   UNL     1       0.594  -1.127   0.984  0.00  0.00    -0.280 N 
ATOM     11  H   UNL     1       1.073  -1.121   1.828  0.00  0.00    +0.189 HD
ATOM     12  C   UNL     1      -2.058  -2.264  -1.276  0.00  0.00    +0.069 C 
ENDBRANCH   1   7
BRANCH   2  13
ATOM     13  C   UNL     1       0.416  -0.302  -4.718  0.00  0.00    +0.119 C 
ATOM     14  C   UNL     1       0.065   0.993  -4.875  0.00  0.00    +0.074 C 
ATOM     15  S   UNL     1       0.291   1.289  -6.620  0.00  0.00    -0.088 S 
ATOM     16  C   UNL     1       0.868  -0.390  -7.099  0.00  0.00    +0.244 C 
ATOM     17  N   UNL     1       0.840  -1.073  -5.790  0.00  0.00    -0.212 NA
BRANCH  16  18
ATOM     18  N   UNL     1       2.229  -0.348  -7.640  0.00  0.00    -0.287 N 
ATOM     19  C   UNL     1       2.442   0.096  -8.895  0.00  0.00    +0.212 C 
ATOM     20  O   UNL     1       1.506   0.460  -9.576  0.00  0.00    -0.276 OA
ATOM     21  C   UNL     1       3.841   0.140  -9.451  0.00  0.00    +0.109 C 
ATOM     22  H   UNL     1       2.977  -0.639  -7.095  0.00  0.00    +0.151 HD
ENDBRANCH  16  18
ENDBRANCH   2  13
TORSDOF 3
