REMARK  Name = ZINC49587036
REMARK  7 active torsions:
REMARK  status: ('A' for Active; 'I' for Inactive)
REMARK    1  A    between atoms: C_1  and  C_2
REMARK    2  A    between atoms: C_3  and  C_7
REMARK    3  A    between atoms: N_9  and  C_10
REMARK    4  A    between atoms: C_10  and  C_11
REMARK    5  A    between atoms: C_13  and  C_18
REMARK    6  A    between atoms: C_19  and  C_20
REMARK    7  A    between atoms: C_20  and  N_21
REMARK                            x       y       z     vdW  Elec       q    Type
REMARK                         _______ _______ _______ _____ _____    ______ ____
ROOT
ATOM      1  C   UNL     1      -0.003  -1.843  -5.898  0.00  0.00    +0.006 A 
ATOM      2  C   UNL     1      -1.155  -2.203  -6.566  0.00  0.00    +0.024 A 
ATOM      3  C   UNL     1      -1.142  -3.298  -7.431  0.00  0.00    +0.025 A 
ATOM      4  C   UNL     1       0.036  -4.022  -7.616  0.00  0.00    +0.019 A 
ATOM      5  C   UNL     1       1.182  -3.653  -6.944  0.00  0.00    +0.040 A 
ATOM      6  C   UNL     1       1.166  -2.562  -6.089  0.00  0.00    +0.128 A 
ATOM      7  F   UNL     1       2.293  -2.201  -5.436  0.00  0.00    -0.205 F 
ENDROOT
BRANCH   3   8
ATOM      8  C   UNL     1      -2.335  -3.677  -8.127  0.00  0.00    -0.068 C 
ATOM      9  C   UNL     1      -3.313  -3.988  -8.698  0.00  0.00    -0.117 C 
BRANCH   9  10
ATOM     10  C   UNL     1      -4.539  -4.377  -9.413  0.00  0.00    +0.005 C 
BRANCH  10  11
ATOM     11  N   UNL     1      -4.264  -5.550 -10.254  0.00  0.00    +0.385 N 
ATOM     12  H   UNL     1      -3.542  -5.323 -10.922  0.00  0.00    -0.089 HD
ATOM     13  H   UNL     1      -3.955  -6.315  -9.673  0.00  0.00    -0.089 HD
ATOM     14  H   UNL     1      -5.104  -5.817 -10.744  0.00  0.00    -0.089 HD
ENDBRANCH  10  11
ENDBRANCH   9  10
ENDBRANCH   3   8
BRANCH   1  15
ATOM     15  C   UNL     1      -0.014  -0.661  -4.963  0.00  0.00    +0.142 C 
BRANCH  15  18
ATOM     16  C   UNL     1      -0.008  -0.248  -2.562  0.00  0.00    +0.253 C 
ATOM     17  O   UNL     1      -0.025   0.946  -2.797  0.00  0.00    -0.270 OA
ATOM     18  N   UNL     1      -0.001  -1.134  -3.577  0.00  0.00    -0.307 N 
ATOM     19  H   UNL     1       0.013  -2.086  -3.389  0.00  0.00    +0.149 HD
BRANCH  16  22
ATOM     20  C   UNL     1      -0.018   1.503   0.010  0.00  0.00    +0.067 C 
ATOM     21  C   UNL     1       0.002  -0.004   0.002  0.00  0.00    +0.058 A 
ATOM     22  C   UNL     1       0.006  -0.722  -1.174  0.00  0.00    +0.096 A 
ATOM     23  S   UNL     1       0.032  -2.390  -0.537  0.00  0.00    -0.071 S 
ATOM     24  C   UNL     1       0.035  -2.012   1.103  0.00  0.00    +0.156 A 
ATOM     25  N   UNL     1       0.022  -0.699   1.113  0.00  0.00    -0.252 NA
ENDBRANCH  16  22
ENDBRANCH  15  18
ENDBRANCH   1  15
TORSDOF 6
