REMARK  Name = ZINC40030074
REMARK  11 active torsions:
REMARK  status: ('A' for Active; 'I' for Inactive)
REMARK    1  A    between atoms: C_2  and  C_3
REMARK    2  A    between atoms: C_3  and  N_4
REMARK    3  A    between atoms: C_5  and  C_28
REMARK    4  A    between atoms: C_7  and  C_12
REMARK    5  A    between atoms: C_12  and  C_14
REMARK    6  A    between atoms: C_18  and  O_20
REMARK    7  A    between atoms: O_20  and  C_21
REMARK    8  A    between atoms: C_21  and  C_22
REMARK    9  A    between atoms: C_31  and  O_34
REMARK   10  A    between atoms: O_34  and  C_35
REMARK   11  A    between atoms: C_35  and  C_36
REMARK                            x       y       z     vdW  Elec       q    Type
REMARK                         _______ _______ _______ _____ _____    ______ ____
ROOT
ATOM      1  N   UNL     1       1.290  -1.692   1.145  0.00  0.00    -0.280 N 
ATOM      2  C   UNL     1       1.917  -1.392   2.438  0.00  0.00    +0.145 C 
ATOM      3  C   UNL     1       1.772  -2.640   3.277  0.00  0.00    +0.076 C 
ATOM      4  C   UNL     1       1.122  -3.550   2.514  0.00  0.00    +0.249 C 
ATOM      5  C   UNL     1       0.822  -2.953   1.195  0.00  0.00    +0.288 C 
ATOM      6  O   UNL     1       0.242  -3.517   0.290  0.00  0.00    -0.266 OA
ATOM      7  O   UNL     1       0.795  -4.805   2.898  0.00  0.00    -0.282 OA
ENDROOT
BRANCH   2   8
ATOM      8  C   UNL     1       3.374  -1.063   2.243  0.00  0.00    -0.022 A 
ATOM      9  C   UNL     1       4.154  -1.848   1.413  0.00  0.00    +0.009 A 
ATOM     10  C   UNL     1       5.491  -1.549   1.233  0.00  0.00    +0.046 A 
ATOM     11  C   UNL     1       6.051  -0.460   1.885  0.00  0.00    +0.121 A 
ATOM     12  C   UNL     1       5.266   0.326   2.717  0.00  0.00    +0.046 A 
ATOM     13  C   UNL     1       3.929   0.026   2.889  0.00  0.00    +0.009 A 
BRANCH  11  14
ATOM     14  O   UNL     1       7.365  -0.164   1.710  0.00  0.00    -0.483 OA
BRANCH  14  15
ATOM     15  C   UNL     1       7.874   0.971   2.413  0.00  0.00    +0.324 C 
BRANCH  15  16
ATOM     16  C   UNL     1       9.338   1.142   2.098  0.00  0.00    +0.248 C 
ATOM     17  O   UNL     1       9.891   0.368   1.346  0.00  0.00    -0.272 OA
ATOM     18  N   UNL     1      10.032   2.156   2.652  0.00  0.00    -0.327 N 
ATOM     19  H   UNL     1       9.590   2.775   3.254  0.00  0.00    +0.145 HD
ATOM     20  H   UNL     1      10.975   2.266   2.450  0.00  0.00    +0.145 HD
ENDBRANCH  15  16
ENDBRANCH  14  15
ENDBRANCH  11  14
ENDBRANCH   2   8
BRANCH   3  21
ATOM     21  C   UNL     1       2.245  -2.829   4.651  0.00  0.00    +0.195 C 
ATOM     22  O   UNL     1       3.128  -3.632   4.886  0.00  0.00    -0.287 OA
BRANCH  21  23
ATOM     23  C   UNL     1       1.647  -2.045   5.753  0.00  0.00    +0.026 A 
ATOM     24  C   UNL     1       0.550  -1.215   5.509  0.00  0.00    +0.012 A 
ATOM     25  C   UNL     1      -0.004  -0.485   6.539  0.00  0.00    +0.004 A 
ATOM     26  C   UNL     1       0.523  -0.571   7.815  0.00  0.00    +0.046 A 
ATOM     27  C   UNL     1       1.613  -1.393   8.068  0.00  0.00    +0.122 A 
ATOM     28  C   UNL     1       2.174  -2.135   7.043  0.00  0.00    +0.057 A 
BRANCH  27  29
ATOM     29  O   UNL     1       2.127  -1.472   9.324  0.00  0.00    -0.487 OA
BRANCH  29  30
ATOM     30  C   UNL     1       1.495  -0.684  10.334  0.00  0.00    +0.264 C 
BRANCH  30  31
ATOM     31  C   UNL     1       2.195  -0.900  11.651  0.00  0.00    -0.010 A 
ATOM     32  C   UNL     1       1.779  -1.911  12.498  0.00  0.00    +0.007 A 
ATOM     33  C   UNL     1       2.421  -2.109  13.705  0.00  0.00    +0.000 A 
ATOM     34  C   UNL     1       3.480  -1.297  14.066  0.00  0.00    +0.000 A 
ATOM     35  C   UNL     1       3.897  -0.287  13.220  0.00  0.00    +0.000 A 
ATOM     36  C   UNL     1       3.258  -0.092  12.010  0.00  0.00    +0.007 A 
ENDBRANCH  30  31
ENDBRANCH  29  30
ENDBRANCH  27  29
ENDBRANCH  21  23
ENDBRANCH   3  21
BRANCH   1  37
ATOM     37  C   UNL     1       1.186  -0.779   0.005  0.00  0.00    +0.136 C 
BRANCH  37  39
ATOM     38  C   UNL     1      -0.053   1.323   0.087  0.00  0.00    +0.005 C 
ATOM     39  C   UNL     1      -0.091   0.014   0.111  0.00  0.00    -0.016 C 
ENDBRANCH  37  39
ENDBRANCH   1  37
TORSDOF 11
