REMARK  Name = ZINC02931429
REMARK  5 active torsions:
REMARK  status: ('A' for Active; 'I' for Inactive)
REMARK    1  A    between atoms: C_1  and  C_2
REMARK    2  A    between atoms: C_10  and  C_11
REMARK    3  A    between atoms: C_15  and  C_22
REMARK    4  A    between atoms: C_18  and  C_21
REMARK    5  A    between atoms: N_26  and  C_29
REMARK                            x       y       z     vdW  Elec       q    Type
REMARK                         _______ _______ _______ _____ _____    ______ ____
ROOT
ATOM      1  C   UNL     1      -3.889  -4.283  -2.621  0.00  0.00    +0.046 C 
ATOM      2  C   UNL     1      -3.790  -2.780  -2.597  0.00  0.00    -0.019 A 
ATOM      3  C   UNL     1      -4.540  -2.012  -3.497  0.00  0.00    +0.051 A 
ATOM      4  C   UNL     1      -5.451  -2.441  -4.509  0.00  0.00    +0.133 A 
ATOM      5  N   UNL     1      -6.054  -1.534  -5.260  0.00  0.00    -0.220 NA
ATOM      6  C   UNL     1      -5.844  -0.239  -5.107  0.00  0.00    +0.224 A 
ATOM      7  N   UNL     1      -5.015   0.221  -4.190  0.00  0.00    -0.228 NA
ATOM      8  C   UNL     1      -4.370  -0.609  -3.397  0.00  0.00    +0.114 A 
ATOM      9  S   UNL     1      -3.201  -0.434  -2.073  0.00  0.00    -0.064 S 
ATOM     10  C   UNL     1      -2.975  -2.164  -1.697  0.00  0.00    +0.080 A 
ATOM     11  N   UNL     1      -5.699  -3.784  -4.702  0.00  0.00    -0.312 N 
ATOM     12  C   UNL     1      -5.431  -4.176  -6.093  0.00  0.00    +0.125 C 
ATOM     13  C   UNL     1      -5.641  -5.684  -6.245  0.00  0.00    +0.124 C 
ATOM     14  N   UNL     1      -7.018  -6.025  -5.862  0.00  0.00    -0.327 N 
ATOM     15  C   UNL     1      -7.287  -5.634  -4.471  0.00  0.00    +0.124 C 
ATOM     16  C   UNL     1      -7.076  -4.126  -4.318  0.00  0.00    +0.125 C 
ENDROOT
BRANCH  10  17
ATOM     17  C   UNL     1      -2.116  -2.773  -0.674  0.00  0.00    +0.254 C 
ATOM     18  O   UNL     1      -2.330  -3.911  -0.299  0.00  0.00    -0.269 OA
ATOM     19  N   UNL     1      -1.090  -2.072  -0.151  0.00  0.00    -0.297 N 
ATOM     20  C   UNL     1      -0.315  -2.609   0.976  0.00  0.00    +0.111 C 
ATOM     21  C   UNL     1       1.170  -2.597   0.603  0.00  0.00    +0.004 C 
ATOM     22  C   UNL     1       1.575  -1.183   0.178  0.00  0.00    +0.009 C 
ATOM     23  C   UNL     1       0.764  -0.767  -1.051  0.00  0.00    +0.004 C 
ATOM     24  C   UNL     1      -0.726  -0.758  -0.697  0.00  0.00    +0.111 C 
ATOM     25  C   UNL     1       1.192   0.633  -1.495  0.00  0.00    +0.009 C 
ATOM     26  C   UNL     1       1.414  -3.567  -0.555  0.00  0.00    +0.009 C 
ENDBRANCH  10  17
BRANCH  14  27
ATOM     27  C   UNL     1      -7.269  -7.385  -6.057  0.00  0.00    +0.030 A 
ATOM     28  C   UNL     1      -7.707  -8.171  -4.998  0.00  0.00    +0.023 A 
ATOM     29  C   UNL     1      -7.960  -9.514  -5.196  0.00  0.00    +0.002 A 
ATOM     30  C   UNL     1      -7.766 -10.080  -6.443  0.00  0.00    +0.000 A 
ATOM     31  C   UNL     1      -7.325  -9.302  -7.497  0.00  0.00    +0.002 A 
ATOM     32  C   UNL     1      -7.076  -7.956  -7.308  0.00  0.00    +0.023 A 
ENDBRANCH  14  27
TORSDOF 2
