REMARK  Name = ZINC36287130
REMARK  6 active torsions:
REMARK  status: ('A' for Active; 'I' for Inactive)
REMARK    1  A    between atoms: C_3  and  O_20
REMARK    2  A    between atoms: C_4  and  N_19
REMARK    3  A    between atoms: C_6  and  C_7
REMARK    4  A    between atoms: C_10  and  N_12
REMARK    5  A    between atoms: N_12  and  S_13
REMARK    6  A    between atoms: S_13  and  C_16
REMARK                            x       y       z     vdW  Elec       q    Type
REMARK                         _______ _______ _______ _____ _____    ______ ____
ROOT
ATOM      1  C   UNL     1      -1.272  -0.764   0.011  0.00  0.00    +0.080 A 
ATOM      2  C   UNL     1      -2.466  -0.109  -0.082  0.00  0.00    +0.077 A 
ATOM      3  S   UNL     1      -3.607  -1.485  -0.023  0.00  0.00    -0.057 S 
ATOM      4  C   UNL     1      -2.387  -2.784   0.118  0.00  0.00    +0.202 A 
ATOM      5  N   UNL     1      -1.262  -2.092   0.103  0.00  0.00    -0.222 NA
ENDROOT
BRANCH   1  11
ATOM      6  C   UNL     1      -0.017   1.389   0.010  0.00  0.00    +0.014 A 
ATOM      7  C   UNL     1       1.169   2.097   0.002  0.00  0.00    +0.048 A 
ATOM      8  C   UNL     1       2.380   1.425  -0.013  0.00  0.00    +0.137 A 
ATOM      9  C   UNL     1       2.406   0.031  -0.021  0.00  0.00    +0.067 A 
ATOM     10  C   UNL     1       1.220  -0.683  -0.014  0.00  0.00    +0.036 A 
ATOM     11  C   UNL     1       0.002  -0.004   0.002  0.00  0.00    +0.003 A 
BRANCH   9  12
ATOM     12  N   UNL     1       3.631  -0.647  -0.037  0.00  0.00    -0.355 N 
ATOM     13  H   UNL     1       4.462  -0.146  -0.043  0.00  0.00    +0.142 HD
ATOM     14  H   UNL     1       3.649  -1.616  -0.043  0.00  0.00    +0.142 HD
ENDBRANCH   9  12
BRANCH   8  15
ATOM     15  O   UNL     1       3.546   2.126  -0.020  0.00  0.00    -0.505 OA
ATOM     16  H   UNL     1       3.892   2.324   0.861  0.00  0.00    +0.292 HD
ENDBRANCH   8  15
ENDBRANCH   1  11
BRANCH   4  17
ATOM     17  N   UNL     1      -2.572  -4.153   0.211  0.00  0.00    -0.070 NA
BRANCH  17  18
ATOM     18  S   UNL     1      -4.103  -4.785   0.200  0.00  0.00    +0.126 S 
ATOM     19  O   UNL     1      -4.713  -4.277   1.379  0.00  0.00    -0.148 OA
ATOM     20  O   UNL     1      -4.620  -4.458  -1.082  0.00  0.00    -0.148 OA
BRANCH  18  21
ATOM     21  C   UNL     1      -3.869  -6.578   0.341  0.00  0.00    +0.501 C 
ATOM     22  F   UNL     1      -3.198  -6.868   1.534  0.00  0.00    -0.182 F 
ATOM     23  F   UNL     1      -5.115  -7.212   0.341  0.00  0.00    -0.182 F 
ENDBRANCH  18  21
ENDBRANCH  17  18
ENDBRANCH   4  17
TORSDOF 6
