REMARK  Name = ZINC60355000
REMARK  8 active torsions:
REMARK  status: ('A' for Active; 'I' for Inactive)
REMARK    1  A    between atoms: C_1  and  C_2
REMARK    2  A    between atoms: C_5  and  C_7
REMARK    3  A    between atoms: C_7  and  C_9
REMARK    4  A    between atoms: C_7  and  N_29
REMARK    5  A    between atoms: C_9  and  N_10
REMARK    6  A    between atoms: C_11  and  C_13
REMARK    7  A    between atoms: C_17  and  N_19
REMARK    8  A    between atoms: C_20  and  C_22
REMARK                            x       y       z     vdW  Elec       q    Type
REMARK                         _______ _______ _______ _____ _____    ______ ____
ROOT
ATOM      1  N   UNL     1       3.386  -4.170   0.920  0.00  0.00    -0.312 N 
ATOM      2  C   UNL     1       3.846  -4.418   2.163  0.00  0.00    +0.244 C 
ATOM      3  O   UNL     1       3.604  -3.641   3.066  0.00  0.00    -0.270 OA
ATOM      4  H   UNL     1       3.579  -4.790   0.199  0.00  0.00    +0.149 HD
ENDROOT
BRANCH   2   5
ATOM      5  C   UNL     1       4.643  -5.634   2.427  0.00  0.00    +0.038 A 
ATOM      6  C   UNL     1       4.927  -6.525   1.390  0.00  0.00    +0.013 A 
ATOM      7  C   UNL     1       5.671  -7.660   1.640  0.00  0.00    +0.003 A 
ATOM      8  C   UNL     1       6.139  -7.919   2.915  0.00  0.00    +0.023 A 
ATOM      9  C   UNL     1       5.861  -7.039   3.954  0.00  0.00    +0.034 A 
ATOM     10  C   UNL     1       5.119  -5.893   3.712  0.00  0.00    +0.036 A 
BRANCH   9  11
ATOM     11  N   UNL     1       6.336  -7.306   5.242  0.00  0.00    -0.281 N 
ATOM     12  C   UNL     1       5.612  -6.937   6.317  0.00  0.00    +0.248 C 
ATOM     13  O   UNL     1       4.506  -6.454   6.169  0.00  0.00    -0.270 OA
ATOM     14  H   UNL     1       7.187  -7.757   5.362  0.00  0.00    +0.155 HD
BRANCH  12  15
ATOM     15  C   UNL     1       6.162  -7.118   7.676  0.00  0.00    +0.037 A 
ATOM     16  C   UNL     1       7.434  -7.667   7.849  0.00  0.00    +0.016 A 
ATOM     17  C   UNL     1       7.943  -7.834   9.120  0.00  0.00    +0.039 A 
ATOM     18  C   UNL     1       7.193  -7.459  10.224  0.00  0.00    +0.123 A 
ATOM     19  C   UNL     1       5.929  -6.914  10.058  0.00  0.00    +0.039 A 
ATOM     20  C   UNL     1       5.413  -6.736   8.792  0.00  0.00    +0.016 A 
ATOM     21  F   UNL     1       7.696  -7.625  11.467  0.00  0.00    -0.205 F 
ENDBRANCH  12  15
ENDBRANCH   9  11
ENDBRANCH   2   5
BRANCH   1  22
ATOM     22  C   UNL     1       2.596  -2.965   0.657  0.00  0.00    +0.097 C 
BRANCH  22  23
ATOM     23  C   UNL     1       2.094  -2.989  -0.787  0.00  0.00    +0.016 C 
BRANCH  23  28
ATOM     24  C   UNL     1      -2.128  -5.746  -0.672  0.00  0.00    +0.086 C 
ATOM     25  C   UNL     1      -0.698  -5.338  -0.918  0.00  0.00    +0.102 A 
ATOM     26  C   UNL     1       0.251  -6.103  -1.486  0.00  0.00    +0.044 A 
ATOM     27  C   UNL     1       1.435  -5.330  -1.518  0.00  0.00    +0.043 A 
ATOM     28  C   UNL     1       1.138  -4.139  -0.968  0.00  0.00    +0.093 A 
ATOM     29  O   UNL     1      -0.157  -4.148  -0.611  0.00  0.00    -0.466 OA
ENDBRANCH  23  28
BRANCH  23  30
ATOM     30  N   UNL     1       1.404  -1.727  -1.087  0.00  0.00    +0.387 N 
ATOM     31  C   UNL     1       2.369  -0.598  -1.069  0.00  0.00    -0.078 C 
ATOM     32  C   UNL     1       1.663   0.487  -1.919  0.00  0.00    -0.020 C 
ATOM     33  C   UNL     1       0.978  -0.338  -3.033  0.00  0.00    -0.020 C 
ATOM     34  C   UNL     1       0.850  -1.761  -2.458  0.00  0.00    -0.078 C 
ATOM     35  H   UNL     1       0.666  -1.566  -0.418  0.00  0.00    -0.081 HD
ENDBRANCH  23  30
ENDBRANCH  22  23
ENDBRANCH   1  22
TORSDOF 7
