REMARK  Name = ZINC20837561
REMARK  9 active torsions:
REMARK  status: ('A' for Active; 'I' for Inactive)
REMARK    1  A    between atoms: C_1  and  N_2
REMARK    2  A    between atoms: C_4  and  C_7
REMARK    3  A    between atoms: N_8  and  N_9
REMARK    4  A    between atoms: C_12  and  S_15
REMARK    5  A    between atoms: S_15  and  C_16
REMARK    6  A    between atoms: C_16  and  C_17
REMARK    7  A    between atoms: N_19  and  C_20
REMARK    8  A    between atoms: C_23  and  S_26
REMARK    9  A    between atoms: S_26  and  N_29
REMARK                            x       y       z     vdW  Elec       q    Type
REMARK                         _______ _______ _______ _____ _____    ______ ____
ROOT
ATOM      1  S   UNL     1       8.102  -5.903  -0.111  0.00  0.00    -0.075 S 
ENDROOT
BRANCH   1   5
ATOM      2  N   UNL     1       3.571  -3.336  -0.077  0.00  0.00    -0.205 N 
ATOM      3  C   UNL     1       4.936  -3.583  -0.088  0.00  0.00    +0.232 A 
ATOM      4  N   UNL     1       5.530  -4.814  -0.091  0.00  0.00    -0.186 NA
ATOM      5  C   UNL     1       6.884  -4.630  -0.103  0.00  0.00    +0.211 A 
ATOM      6  N   UNL     1       7.117  -3.340  -0.108  0.00  0.00    -0.144 NA
ATOM      7  N   UNL     1       5.883  -2.676  -0.103  0.00  0.00    -0.245 N 
ATOM      8  H   UNL     1       2.861  -4.175  -0.070  0.00  0.00    +0.177 HD
ATOM      9  H   UNL     1       5.622  -1.608  -0.109  0.00  0.00    +0.192 HD
BRANCH   2  11
ATOM     10  C   UNL     1       1.821  -1.786  -0.065  0.00  0.00    +0.141 C 
ATOM     11  N   UNL     1       3.098  -2.017  -0.075  0.00  0.00    -0.187 NA
BRANCH  10  15
ATOM     12  C   UNL     1      -1.215   2.187  -0.052  0.00  0.00    +0.172 C 
ATOM     13  N   UNL     1      -0.016   1.346  -0.056  0.00  0.00    -0.274 N 
ATOM     14  C   UNL     1       0.002  -0.003  -0.053  0.00  0.00    +0.117 A 
ATOM     15  C   UNL     1       1.323  -0.397  -0.063  0.00  0.00    +0.032 A 
ATOM     16  C   UNL     1       2.110   0.775  -0.072  0.00  0.00    +0.143 A 
ATOM     17  N   UNL     1       1.306   1.804  -0.067  0.00  0.00    -0.179 NA
ENDBRANCH  10  15
ENDBRANCH   2  11
ENDBRANCH   1   5
BRANCH   1  18
ATOM     18  C   UNL     1       9.677  -5.003  -0.127  0.00  0.00    +0.173 C 
BRANCH  18  19
ATOM     19  C   UNL     1      10.818  -5.987  -0.134  0.00  0.00    +0.227 C 
ATOM     20  O   UNL     1      10.591  -7.179  -0.129  0.00  0.00    -0.275 OA
ATOM     21  N   UNL     1      12.091  -5.544  -0.146  0.00  0.00    -0.285 N 
ATOM     22  H   UNL     1      12.297  -4.466  -0.228  0.00  0.00    +0.155 HD
BRANCH  21  23
ATOM     23  C   UNL     1      13.150  -6.454  -0.056  0.00  0.00    +0.034 A 
ATOM     24  C   UNL     1      14.309  -6.107   0.626  0.00  0.00    +0.025 A 
ATOM     25  C   UNL     1      15.350  -7.010   0.719  0.00  0.00    +0.030 A 
ATOM     26  C   UNL     1      15.244  -8.254   0.124  0.00  0.00    +0.105 A 
ATOM     27  C   UNL     1      14.093  -8.600  -0.561  0.00  0.00    +0.030 A 
ATOM     28  C   UNL     1      13.046  -7.704  -0.652  0.00  0.00    +0.025 A 
BRANCH  26  29
ATOM     29  S   UNL     1      16.577  -9.400   0.239  0.00  0.00    +0.056 S 
ATOM     30  O   UNL     1      17.322  -9.041   1.395  0.00  0.00    -0.153 OA
ATOM     31  O   UNL     1      16.016 -10.694   0.065  0.00  0.00    -0.153 OA
BRANCH  29  32
ATOM     32  N   UNL     1      17.565  -9.133  -1.063  0.00  0.00    -0.204 NA
ATOM     33  H   UNL     1      18.414  -9.832  -1.028  0.00  0.00    +0.144 HD
ATOM     34  H   UNL     1      17.940  -8.099  -1.033  0.00  0.00    +0.144 HD
ENDBRANCH  29  32
ENDBRANCH  26  29
ENDBRANCH  21  23
ENDBRANCH  18  19
ENDBRANCH   1  18
TORSDOF 8
