REMARK  Name = ZINC05540467
REMARK  10 active torsions:
REMARK  status: ('A' for Active; 'I' for Inactive)
REMARK    1  A    between atoms: C_1  and  C_2
REMARK    2  A    between atoms: C_4  and  O_9
REMARK    3  A    between atoms: O_9  and  C_10
REMARK    4  A    between atoms: C_10  and  C_11
REMARK    5  A    between atoms: N_13  and  N_14
REMARK    6  A    between atoms: C_15  and  C_17
REMARK    7  A    between atoms: C_18  and  C_19
REMARK    8  A    between atoms: C_22  and  C_25
REMARK    9  A    between atoms: C_25  and  C_26
REMARK   10  A    between atoms: C_25  and  C_27
REMARK                            x       y       z     vdW  Elec       q    Type
REMARK                         _______ _______ _______ _____ _____    ______ ____
ROOT
ATOM      1  N   UNL     1       1.143   1.903   0.001  0.00  0.00    -0.231 N 
ATOM      2  C   UNL     1      -0.014   1.213   0.009  0.00  0.00    +0.253 C 
ATOM      3  O   UNL     1       0.002  -0.004   0.002  0.00  0.00    -0.269 OA
ATOM      4  H   UNL     1       1.130   2.872   0.007  0.00  0.00    +0.173 HD
ENDROOT
BRANCH   1   7
ATOM      5  C   UNL     1       3.524   1.908  -0.021  0.00  0.00    +0.267 C 
ATOM      6  O   UNL     1       3.508   3.121  -0.015  0.00  0.00    -0.271 OA
ATOM      7  N   UNL     1       2.366   1.219  -0.014  0.00  0.00    -0.231 N 
ATOM      8  H   UNL     1       2.379   0.249  -0.019  0.00  0.00    +0.173 HD
BRANCH   5   9
ATOM      9  C   UNL     1       4.839   1.173  -0.038  0.00  0.00    +0.326 C 
BRANCH   9  10
ATOM     10  O   UNL     1       5.913   2.116  -0.043  0.00  0.00    -0.483 OA
BRANCH  10  14
ATOM     11  C   UNL     1      10.731   2.893  -0.085  0.00  0.00    +0.045 C 
ATOM     12  C   UNL     1       9.547   1.960  -0.078  0.00  0.00    -0.029 A 
ATOM     13  C   UNL     1       8.264   2.473  -0.064  0.00  0.00    +0.050 A 
ATOM     14  C   UNL     1       7.175   1.613  -0.058  0.00  0.00    +0.122 A 
ATOM     15  C   UNL     1       7.377   0.241  -0.061  0.00  0.00    +0.047 A 
ATOM     16  C   UNL     1       8.661  -0.268  -0.081  0.00  0.00    +0.024 A 
ATOM     17  C   UNL     1       9.746   0.591  -0.087  0.00  0.00    +0.044 A 
ATOM     18 CL   UNL     1      11.359  -0.051  -0.106  0.00  0.00    -0.083 Cl
ENDBRANCH  10  14
ENDBRANCH   9  10
ENDBRANCH   5   9
ENDBRANCH   1   7
BRANCH   2  19
ATOM     19  C   UNL     1      -1.292   1.928   0.019  0.00  0.00    +0.069 C 
ATOM     20  C   UNL     1      -2.450   1.238   0.020  0.00  0.00    +0.013 C 
BRANCH  20  21
ATOM     21  C   UNL     1      -3.735   1.956   0.030  0.00  0.00    -0.025 A 
ATOM     22  C   UNL     1      -3.758   3.354   0.044  0.00  0.00    +0.008 A 
ATOM     23  C   UNL     1      -4.966   4.020   0.048  0.00  0.00    +0.004 A 
ATOM     24  C   UNL     1      -6.153   3.309   0.049  0.00  0.00    -0.045 A 
ATOM     25  C   UNL     1      -6.138   1.925   0.042  0.00  0.00    +0.004 A 
ATOM     26  C   UNL     1      -4.939   1.244   0.032  0.00  0.00    +0.008 A 
BRANCH  24  27
ATOM     27  C   UNL     1      -7.468   4.044   0.059  0.00  0.00    +0.013 C 
ATOM     28  C   UNL     1      -7.555   4.916   1.314  0.00  0.00    +0.012 C 
ATOM     29  C   UNL     1      -7.567   4.929  -1.185  0.00  0.00    +0.012 C 
ENDBRANCH  24  27
ENDBRANCH  20  21
ENDBRANCH   2  19
TORSDOF 7
