REMARK  Name = ZINC63479801
REMARK  5 active torsions:
REMARK  status: ('A' for Active; 'I' for Inactive)
REMARK    1  A    between atoms: C_1  and  C_2
REMARK    2  A    between atoms: C_10  and  C_12
REMARK    3  A    between atoms: N_17  and  C_20
REMARK    4  A    between atoms: C_23  and  O_26
REMARK    5  A    between atoms: O_26  and  C_27
REMARK                            x       y       z     vdW  Elec       q    Type
REMARK                         _______ _______ _______ _____ _____    ______ ____
ROOT
ATOM      1  C   UNL     1      -1.017  -0.580   2.080  0.00  0.00    +0.242 C 
ATOM      2  O   UNL     1      -1.947  -1.355   2.152  0.00  0.00    -0.273 OA
ATOM      3  N   UNL     1      -1.021   0.547   2.818  0.00  0.00    -0.297 N 
ATOM      4  C   UNL     1       0.027   1.562   2.640  0.00  0.00    +0.126 C 
ATOM      5  C   UNL     1      -0.642   2.909   2.337  0.00  0.00    +0.124 C 
ATOM      6  N   UNL     1      -1.694   3.146   3.335  0.00  0.00    -0.327 N 
ATOM      7  C   UNL     1      -2.742   2.131   3.514  0.00  0.00    +0.124 C 
ATOM      8  C   UNL     1      -2.076   0.787   3.813  0.00  0.00    +0.126 C 
ENDROOT
BRANCH   1  18
ATOM      9  C   UNL     1      -0.393   1.080  -0.618  0.00  0.00    +0.042 C 
ATOM     10  C   UNL     1      -0.141  -0.353  -0.225  0.00  0.00    -0.033 C 
ATOM     11  C   UNL     1      -0.118  -1.429  -1.043  0.00  0.00    +0.000 A 
ATOM     12  C   UNL     1      -0.314  -1.583  -2.490  0.00  0.00    +0.025 A 
ATOM     13  C   UNL     1      -0.230  -2.817  -3.036  0.00  0.00    +0.019 A 
ATOM     14  C   UNL     1       0.039  -3.952  -2.257  0.00  0.00    +0.017 A 
ATOM     15  C   UNL     1       0.230  -3.890  -0.922  0.00  0.00    +0.027 A 
ATOM     16  C   UNL     1       0.165  -2.642  -0.243  0.00  0.00    +0.043 A 
ATOM     17  N   UNL     1       0.311  -2.328   1.021  0.00  0.00    -0.370 N 
ATOM     18  C   UNL     1       0.143  -0.877   1.165  0.00  0.00    +0.193 C 
ATOM     19 BR   UNL     1      -0.481  -3.019  -4.900  0.00  0.00    -0.050 Br
ATOM     20  H   UNL     1       0.502  -2.950   1.741  0.00  0.00    +0.161 HD
ENDBRANCH   1  18
BRANCH   6  21
ATOM     21  C   UNL     1      -1.698   4.316   4.101  0.00  0.00    +0.030 A 
ATOM     22  C   UNL     1      -2.763   4.587   4.951  0.00  0.00    +0.027 A 
ATOM     23  C   UNL     1      -2.766   5.742   5.708  0.00  0.00    +0.047 A 
ATOM     24  C   UNL     1      -1.706   6.632   5.619  0.00  0.00    +0.120 A 
ATOM     25  C   UNL     1      -0.643   6.363   4.771  0.00  0.00    +0.047 A 
ATOM     26  C   UNL     1      -0.635   5.205   4.017  0.00  0.00    +0.027 A 
BRANCH  24  27
ATOM     27  O   UNL     1      -1.710   7.770   6.365  0.00  0.00    -0.495 OA
ATOM     28  C   UNL     1      -0.587   8.641   6.224  0.00  0.00    +0.277 C 
ENDBRANCH  24  27
ENDBRANCH   6  21
TORSDOF 3
