REMARK  Name = ZINC08716677
REMARK  7 active torsions:
REMARK  status: ('A' for Active; 'I' for Inactive)
REMARK    1  A    between atoms: C_1  and  S_2
REMARK    2  A    between atoms: S_2  and  C_3
REMARK    3  A    between atoms: C_7  and  C_11
REMARK    4  A    between atoms: C_11  and  C_12
REMARK    5  A    between atoms: C_11  and  C_19
REMARK    6  A    between atoms: C_22  and  S_26
REMARK    7  A    between atoms: S_26  and  C_27
REMARK                            x       y       z     vdW  Elec       q    Type
REMARK                         _______ _______ _______ _____ _____    ______ ____
ROOT
ATOM      1  C   UNL     1       2.306  -0.516  -6.006  0.00  0.00    +0.100 C 
ENDROOT
BRANCH   1   6
ATOM      2  C   UNL     1       0.802   1.822  -2.838  0.00  0.00    +0.172 A 
ATOM      3  N   UNL     1       1.274   0.574  -2.566  0.00  0.00    -0.302 N 
ATOM      4  C   UNL     1       1.762  -0.197  -3.561  0.00  0.00    +0.260 A 
ATOM      5  O   UNL     1       2.187  -1.317  -3.327  0.00  0.00    -0.267 OA
ATOM      6  C   UNL     1       1.771   0.310  -4.865  0.00  0.00    +0.095 A 
ATOM      7  C   UNL     1       1.279   1.586  -5.088  0.00  0.00    +0.282 A 
ATOM      8  N   UNL     1       0.804   2.302  -4.065  0.00  0.00    -0.185 NA
ATOM      9  O   UNL     1       1.274   2.103  -6.339  0.00  0.00    -0.265 OA
ATOM     10  H   UNL     1       1.260   0.238  -1.656  0.00  0.00    +0.171 HD
BRANCH   2  12
ATOM     11  C   UNL     1      -0.331   4.353  -2.339  0.00  0.00    +0.093 C 
ATOM     12  S   UNL     1       0.171   2.812  -1.524  0.00  0.00    -0.091 S 
ENDBRANCH   2  12
ENDBRANCH   1   6
BRANCH   1  13
ATOM     13  C   UNL     1       2.974   0.388  -7.011  0.00  0.00    +0.095 A 
ATOM     14  C   UNL     1       3.955   1.281  -6.613  0.00  0.00    +0.282 A 
ATOM     15  N   UNL     1       4.536   2.074  -7.517  0.00  0.00    -0.185 NA
ATOM     16  C   UNL     1       4.194   2.026  -8.789  0.00  0.00    +0.172 A 
ATOM     17  N   UNL     1       3.235   1.166  -9.231  0.00  0.00    -0.302 N 
ATOM     18  C   UNL     1       2.618   0.336  -8.364  0.00  0.00    +0.260 A 
ATOM     19  O   UNL     1       1.761  -0.442  -8.751  0.00  0.00    -0.267 OA
ATOM     20  O   UNL     1       4.324   1.349  -5.313  0.00  0.00    -0.265 OA
ATOM     21  H   UNL     1       2.998   1.146 -10.172  0.00  0.00    +0.171 HD
BRANCH  16  22
ATOM     22  S   UNL     1       4.992   3.095  -9.939  0.00  0.00    -0.091 S 
ATOM     23  C   UNL     1       6.164   4.036  -8.923  0.00  0.00    +0.093 C 
ENDBRANCH  16  22
ENDBRANCH   1  13
BRANCH   1  24
ATOM     24  C   UNL     1       1.171  -1.252  -6.670  0.00  0.00    -0.035 A 
ATOM     25  C   UNL     1       0.040  -0.563  -7.067  0.00  0.00    +0.007 A 
ATOM     26  C   UNL     1      -1.002  -1.237  -7.676  0.00  0.00    +0.038 A 
ATOM     27  C   UNL     1      -0.913  -2.602  -7.888  0.00  0.00    +0.123 A 
ATOM     28  C   UNL     1       0.220  -3.291  -7.490  0.00  0.00    +0.038 A 
ATOM     29  C   UNL     1       1.263  -2.614  -6.886  0.00  0.00    +0.007 A 
ATOM     30  F   UNL     1      -1.931  -3.262  -8.483  0.00  0.00    -0.205 F 
ENDBRANCH   1  24
TORSDOF 5
