REMARK  Name = ZINC66122362
REMARK  8 active torsions:
REMARK  status: ('A' for Active; 'I' for Inactive)
REMARK    1  A    between atoms: C_1  and  C_2
REMARK    2  A    between atoms: C_2  and  C_4
REMARK    3  A    between atoms: C_2  and  N_12
REMARK    4  A    between atoms: N_12  and  C_13
REMARK    5  A    between atoms: C_13  and  N_15
REMARK    6  A    between atoms: N_15  and  N_16
REMARK    7  A    between atoms: C_17  and  C_19
REMARK    8  A    between atoms: C_19  and  N_20
REMARK                            x       y       z     vdW  Elec       q    Type
REMARK                         _______ _______ _______ _____ _____    ______ ____
ROOT
ATOM      1  C   UNL     1       2.054  -0.600   1.174  0.00  0.00    +0.147 C 
ATOM      2  S   UNL     1       2.932  -0.173  -0.233  0.00  0.00    -0.017 S 
ENDROOT
BRANCH   1   3
ATOM      3  N   UNL     1       0.711  -0.489   1.189  0.00  0.00    -0.319 N 
ATOM      4  H   UNL     1       0.213  -0.731   1.986  0.00  0.00    +0.148 HD
BRANCH   3   6
ATOM      5  C   UNL     1      -0.019   1.526   0.010  0.00  0.00    +0.033 C 
ATOM      6  C   UNL     1       0.002  -0.004   0.002  0.00  0.00    +0.101 C 
BRANCH   6   7
ATOM      7  C   UNL     1      -1.412  -0.526   0.013  0.00  0.00    -0.009 A 
ATOM      8  C   UNL     1      -2.014  -0.864   1.210  0.00  0.00    +0.008 A 
ATOM      9  C   UNL     1      -3.311  -1.342   1.221  0.00  0.00    +0.020 A 
ATOM     10  C   UNL     1      -4.007  -1.483   0.033  0.00  0.00    +0.042 A 
ATOM     11  C   UNL     1      -3.404  -1.144  -1.165  0.00  0.00    +0.040 A 
ATOM     12  C   UNL     1      -2.108  -0.661  -1.175  0.00  0.00    +0.047 A 
ATOM     13 CL   UNL     1      -1.353  -0.230  -2.678  0.00  0.00    -0.083 Cl
ATOM     14 CL   UNL     1      -5.635  -2.084   0.046  0.00  0.00    -0.083 Cl
ENDBRANCH   6   7
ENDBRANCH   3   6
ENDBRANCH   1   3
BRANCH   1  15
ATOM     15  N   UNL     1       2.706  -1.046   2.266  0.00  0.00    -0.246 N 
ATOM     16  H   UNL     1       3.672  -1.126   2.255  0.00  0.00    +0.172 HD
BRANCH  15  17
ATOM     17  N   UNL     1       1.987  -1.396   3.416  0.00  0.00    -0.234 N 
ATOM     18  C   UNL     1       2.639  -1.842   4.508  0.00  0.00    +0.246 C 
ATOM     19  O   UNL     1       3.848  -1.941   4.495  0.00  0.00    -0.273 OA
ATOM     20  H   UNL     1       1.020  -1.316   3.427  0.00  0.00    +0.173 HD
BRANCH  18  21
ATOM     21  C   UNL     1       1.866  -2.218   5.746  0.00  0.00    +0.203 C 
BRANCH  21  22
ATOM     22  N   UNL     1       2.796  -2.669   6.784  0.00  0.00    -0.291 N 
ATOM     23  C   UNL     1       2.327  -3.058   7.986  0.00  0.00    +0.297 C 
ATOM     24  O   UNL     1       1.132  -3.035   8.209  0.00  0.00    -0.253 OA
ATOM     25  N   UNL     1       3.182  -3.473   8.941  0.00  0.00    -0.313 N 
ATOM     26  H   UNL     1       3.749  -2.688   6.607  0.00  0.00    +0.151 HD
ATOM     27  H   UNL     1       4.136  -3.492   8.764  0.00  0.00    +0.146 HD
ATOM     28  H   UNL     1       2.845  -3.753   9.807  0.00  0.00    +0.146 HD
ENDBRANCH  21  22
ENDBRANCH  18  21
ENDBRANCH  15  17
ENDBRANCH   1  15
TORSDOF 7
