REMARK  Name = ZINC25585484
REMARK  12 active torsions:
REMARK  status: ('A' for Active; 'I' for Inactive)
REMARK    1  A    between atoms: C_1  and  C_2
REMARK    2  A    between atoms: C_3  and  C_16
REMARK    3  A    between atoms: N_7  and  C_8
REMARK    4  A    between atoms: C_8  and  N_10
REMARK    5  A    between atoms: C_11  and  C_13
REMARK    6  A    between atoms: C_13  and  C_14
REMARK    7  A    between atoms: C_13  and  C_15
REMARK    8  A    between atoms: C_16  and  C_22
REMARK    9  A    between atoms: N_17  and  N_18
REMARK   10  A    between atoms: N_18  and  C_19
REMARK   11  A    between atoms: C_19  and  N_21
REMARK   12  A    between atoms: C_23  and  C_24
REMARK                            x       y       z     vdW  Elec       q    Type
REMARK                         _______ _______ _______ _____ _____    ______ ____
ROOT
ATOM      1  C   UNL     1      -3.749   2.176  -0.075  0.00  0.00    +0.097 C 
ATOM      2  N   UNL     1      -3.696   3.483  -0.192  0.00  0.00    -0.180 NA
ENDROOT
BRANCH   1   5
ATOM      3  C   UNL     1      -6.543   3.503  -0.068  0.00  0.00    +0.064 C 
ATOM      4  C   UNL     1      -6.321   2.013  -0.078  0.00  0.00    +0.031 A 
ATOM      5  C   UNL     1      -5.054   1.488  -0.081  0.00  0.00    +0.061 A 
ATOM      6  S   UNL     1      -5.421  -0.261  -0.086  0.00  0.00    -0.050 S 
ATOM      7  C   UNL     1      -7.152  -0.129  -0.091  0.00  0.00    +0.163 A 
ATOM      8  N   UNL     1      -7.336   1.179  -0.089  0.00  0.00    -0.339 N 
ATOM      9  N   UNL     1      -8.101  -1.141  -0.096  0.00  0.00    -0.169 NA
ATOM     10  H   UNL     1      -8.366   1.566  -0.096  0.00  0.00    +0.167 HD
BRANCH   9  11
ATOM     11  C   UNL     1      -9.414  -0.834  -0.100  0.00  0.00    +0.163 C 
ATOM     12  S   UNL     1      -9.909   0.805  -0.097  0.00  0.00    -0.016 S 
BRANCH  11  13
ATOM     13  N   UNL     1     -10.336  -1.816  -0.105  0.00  0.00    -0.266 N 
ATOM     14  C   UNL     1     -11.648  -1.509  -0.108  0.00  0.00    +0.221 C 
ATOM     15  O   UNL     1     -11.999  -0.349  -0.106  0.00  0.00    -0.275 OA
ATOM     16  H   UNL     1     -10.017  -2.869  -0.106  0.00  0.00    +0.157 HD
BRANCH  14  17
ATOM     17  C   UNL     1     -12.679  -2.608  -0.114  0.00  0.00    +0.069 C 
ATOM     18  C   UNL     1     -12.506  -3.477   1.134  0.00  0.00    +0.017 C 
ATOM     19  C   UNL     1     -14.080  -1.993  -0.116  0.00  0.00    +0.017 C 
ENDBRANCH  14  17
ENDBRANCH  11  13
ENDBRANCH   9  11
ENDBRANCH   1   5
BRANCH   2  20
ATOM     20  N   UNL     1      -2.456   4.127  -0.298  0.00  0.00    -0.218 N 
ATOM     21  H   UNL     1      -1.533   3.533  -0.369  0.00  0.00    +0.176 HD
BRANCH  20  22
ATOM     22  C   UNL     1      -2.395   5.473  -0.313  0.00  0.00    +0.147 C 
ATOM     23  S   UNL     1      -0.880   6.260  -0.443  0.00  0.00    -0.017 S 
BRANCH  22  24
ATOM     24  N   UNL     1      -3.527   6.200  -0.226  0.00  0.00    -0.339 N 
ATOM     25  H   UNL     1      -3.477   7.299  -0.238  0.00  0.00    +0.144 HD
ATOM     26  H   UNL     1      -4.500   5.694  -0.143  0.00  0.00    +0.144 HD
ENDBRANCH  22  24
ENDBRANCH  20  22
ENDBRANCH   2  20
BRANCH   1  27
ATOM     27  C   UNL     1      -2.509   1.399   0.062  0.00  0.00    +0.031 C 
ATOM     28  C   UNL     1      -2.555   0.055   0.070  0.00  0.00    +0.010 C 
BRANCH  28  29
ATOM     29  C   UNL     1      -1.306  -0.725   0.081  0.00  0.00    -0.021 A 
ATOM     30  C   UNL     1      -0.070  -0.069   0.084  0.00  0.00    +0.012 A 
ATOM     31  C   UNL     1       1.097  -0.801   0.100  0.00  0.00    +0.050 A 
ATOM     32  C   UNL     1       1.053  -2.188   0.114  0.00  0.00    +0.166 A 
ATOM     33  C   UNL     1      -0.175  -2.849   0.111  0.00  0.00    +0.167 A 
ATOM     34  C   UNL     1      -1.351  -2.122   0.095  0.00  0.00    +0.057 A 
ATOM     35  O   UNL     1       0.053  -4.195   0.127  0.00  0.00    -0.453 OA
ATOM     36  C   UNL     1       1.421  -4.347   0.552  0.00  0.00    +0.466 C 
ATOM     37  O   UNL     1       2.049  -3.122   0.131  0.00  0.00    -0.453 OA
ENDBRANCH  28  29
ENDBRANCH   1  27
TORSDOF 9
