REMARK  Name = ZINC16890369
REMARK  10 active torsions:
REMARK  status: ('A' for Active; 'I' for Inactive)
REMARK    1  A    between atoms: C_1  and  C_2
REMARK    2  A    between atoms: C_10  and  N_21
REMARK    3  A    between atoms: C_11  and  C_12
REMARK    4  A    between atoms: C_22  and  C_24
REMARK    5  A    between atoms: C_26  and  O_34
REMARK    6  A    between atoms: C_27  and  O_32
REMARK    7  A    between atoms: C_28  and  O_30
REMARK    8  A    between atoms: O_30  and  C_31
REMARK    9  A    between atoms: O_32  and  C_33
REMARK   10  A    between atoms: O_34  and  C_35
REMARK                            x       y       z     vdW  Elec       q    Type
REMARK                         _______ _______ _______ _____ _____    ______ ____
ROOT
ATOM      1  C   UNL     1       1.907  11.056  -7.140  0.00  0.00    +0.109 C 
ATOM      2  C   UNL     1       2.016  11.924  -5.913  0.00  0.00    +0.213 C 
ATOM      3  O   UNL     1       1.855  13.123  -6.003  0.00  0.00    -0.276 OA
ATOM      4  N   UNL     1       2.293  11.368  -4.717  0.00  0.00    -0.297 N 
ATOM      5  C   UNL     1       2.407  12.189  -3.502  0.00  0.00    +0.113 C 
ATOM      6  C   UNL     1       1.295  11.810  -2.522  0.00  0.00    +0.055 C 
ATOM      7  C   UNL     1       1.242  10.292  -2.383  0.00  0.00    -0.023 A 
ATOM      8  C   UNL     1       1.786   9.487  -3.325  0.00  0.00    +0.013 A 
ATOM      9  S   UNL     1       1.484   7.840  -2.748  0.00  0.00    -0.076 S 
ATOM     10  C   UNL     1       0.618   8.238  -1.239  0.00  0.00    +0.082 A 
ATOM     11  C   UNL     1       0.614   9.623  -1.258  0.00  0.00    +0.039 A 
ATOM     12  C   UNL     1       2.494   9.913  -4.576  0.00  0.00    +0.150 C 
ENDROOT
BRANCH  11  13
ATOM     13  C   UNL     1      -0.008  10.394  -0.168  0.00  0.00    +0.112 A 
ATOM     14  N   UNL     1      -0.095  11.701  -0.025  0.00  0.00    -0.239 NA
ATOM     15  C   UNL     1      -0.704  12.274   1.033  0.00  0.00    +0.079 A 
ATOM     16  C   UNL     1      -0.869  13.653   1.304  0.00  0.00    +0.029 A 
ATOM     17  C   UNL     1      -1.514  14.071   2.439  0.00  0.00    +0.002 A 
ATOM     18  C   UNL     1      -2.024  13.166   3.358  0.00  0.00    +0.001 A 
ATOM     19  C   UNL     1      -1.880  11.810   3.126  0.00  0.00    +0.017 A 
ATOM     20  C   UNL     1      -1.236  11.381   1.992  0.00  0.00    +0.040 A 
ATOM     21  S   UNL     1      -0.831   9.795   1.301  0.00  0.00    -0.067 S 
ENDBRANCH  11  13
BRANCH  10  22
ATOM     22  N   UNL     1       0.088   7.377  -0.286  0.00  0.00    -0.275 N 
ATOM     23  C   UNL     1       0.194   6.044  -0.449  0.00  0.00    +0.249 C 
ATOM     24  O   UNL     1       0.753   5.593  -1.430  0.00  0.00    -0.270 OA
ATOM     25  H   UNL     1      -0.358   7.736   0.497  0.00  0.00    +0.156 HD
BRANCH  23  26
ATOM     26  C   UNL     1      -0.369   5.130   0.564  0.00  0.00    +0.044 A 
ATOM     27  C   UNL     1      -1.012   5.646   1.692  0.00  0.00    +0.062 A 
ATOM     28  C   UNL     1      -1.538   4.787   2.639  0.00  0.00    +0.166 A 
ATOM     29  C   UNL     1      -1.432   3.409   2.467  0.00  0.00    +0.204 A 
ATOM     30  C   UNL     1      -0.787   2.893   1.346  0.00  0.00    +0.166 A 
ATOM     31  C   UNL     1      -0.260   3.747   0.396  0.00  0.00    +0.062 A 
BRANCH  30  32
ATOM     32  O   UNL     1      -0.682   1.547   1.184  0.00  0.00    -0.491 OA
ATOM     33  C   UNL     1      -0.013   1.086   0.008  0.00  0.00    +0.277 C 
ENDBRANCH  30  32
BRANCH  29  34
ATOM     34  O   UNL     1      -1.955   2.568   3.397  0.00  0.00    -0.488 OA
ATOM     35  C   UNL     1      -1.099   2.176   4.472  0.00  0.00    +0.277 C 
ENDBRANCH  29  34
BRANCH  28  36
ATOM     36  O   UNL     1      -2.163   5.289   3.738  0.00  0.00    -0.491 OA
ATOM     37  C   UNL     1      -2.240   6.711   3.848  0.00  0.00    +0.277 C 
ENDBRANCH  28  36
ENDBRANCH  23  26
ENDBRANCH  10  22
TORSDOF 6
