REMARK  Name = ZINC13067235
REMARK  10 active torsions:
REMARK  status: ('A' for Active; 'I' for Inactive)
REMARK    1  A    between atoms: C_1  and  C_2
REMARK    2  A    between atoms: C_2  and  O_3
REMARK    3  A    between atoms: O_3  and  C_4
REMARK    4  A    between atoms: C_6  and  C_24
REMARK    5  A    between atoms: C_9  and  O_10
REMARK    6  A    between atoms: O_10  and  S_11
REMARK    7  A    between atoms: S_11  and  C_14
REMARK    8  A    between atoms: C_16  and  C_22
REMARK    9  A    between atoms: C_19  and  O_20
REMARK   10  A    between atoms: O_20  and  C_21
REMARK                            x       y       z     vdW  Elec       q    Type
REMARK                         _______ _______ _______ _____ _____    ______ ____
ROOT
ATOM      1  C   UNL     1       4.113   1.478  -2.322  0.00  0.00    +0.165 A 
ATOM      2  C   UNL     1       3.358   1.672  -1.176  0.00  0.00    +0.055 A 
ATOM      3  C   UNL     1       1.977   1.656  -1.247  0.00  0.00    -0.015 A 
ATOM      4  C   UNL     1       1.347   1.457  -2.461  0.00  0.00    +0.010 A 
ATOM      5  C   UNL     1       2.094   1.268  -3.609  0.00  0.00    +0.053 A 
ATOM      6  C   UNL     1       3.478   1.278  -3.544  0.00  0.00    +0.198 A 
ENDROOT
BRANCH   3   7
ATOM      7  C   UNL     1       1.158   1.862   0.001  0.00  0.00    +0.191 C 
ATOM      8  C   UNL     1       0.545   3.248   0.013  0.00  0.00    +0.245 C 
ATOM      9  O   UNL     1       1.132   4.309   0.014  0.00  0.00    -0.273 OA
ATOM     10  N   UNL     1      -0.789   3.056   0.025  0.00  0.00    -0.238 N 
ATOM     11  C   UNL     1      -1.101   1.755   0.016  0.00  0.00    +0.307 C 
ATOM     12  O   UNL     1      -2.240   1.333   0.019  0.00  0.00    -0.252 OA
ATOM     13  N   UNL     1      -0.011   0.966   0.007  0.00  0.00    -0.284 N 
ATOM     14  H   UNL     1      -1.443   3.773   0.034  0.00  0.00    +0.159 HD
ATOM     15  H   UNL     1       0.002  -0.004   0.002  0.00  0.00    +0.151 HD
ENDBRANCH   3   7
BRANCH   1  16
ATOM     16  O   UNL     1       5.471   1.488  -2.253  0.00  0.00    -0.488 OA
BRANCH  16  18
ATOM     17  C   UNL     1       7.579   1.679  -1.087  0.00  0.00    +0.048 C 
ATOM     18  C   UNL     1       6.054   1.699  -0.966  0.00  0.00    +0.226 C 
ENDBRANCH  16  18
ENDBRANCH   1  16
BRANCH   6  19
ATOM     19  O   UNL     1       4.214   1.093  -4.672  0.00  0.00    -0.338 OA
BRANCH  19  20
ATOM     20  S   UNL     1       4.550   2.381  -5.410  0.00  0.00    +0.155 S 
ATOM     21  O   UNL     1       5.129   1.999  -6.651  0.00  0.00    -0.131 OA
ATOM     22  O   UNL     1       3.397   3.208  -5.330  0.00  0.00    -0.131 OA
BRANCH  20  23
ATOM     23  C   UNL     1       5.817   3.192  -4.492  0.00  0.00    +0.170 A 
ATOM     24  C   UNL     1       7.140   2.930  -4.767  0.00  0.00    +0.049 A 
ATOM     25  C   UNL     1       8.144   3.574  -4.038  0.00  0.00    +0.065 A 
ATOM     26  C   UNL     1       7.799   4.483  -3.034  0.00  0.00    +0.019 A 
ATOM     27  C   UNL     1       6.474   4.740  -2.765  0.00  0.00    +0.048 A 
ATOM     28  C   UNL     1       5.478   4.100  -3.496  0.00  0.00    +0.148 A 
BRANCH  25  29
ATOM     29  C   UNL     1       9.563   3.297  -4.330  0.00  0.00    +0.387 C 
ATOM     30  O   UNL     1       9.861   2.507  -5.203  0.00  0.00    -0.241 OA
ATOM     31  O   UNL     1      10.529   3.919  -3.626  0.00  0.00    -0.241 OA
ENDBRANCH  25  29
BRANCH  28  32
ATOM     32  O   UNL     1       4.173   4.360  -3.232  0.00  0.00    -0.493 OA
ATOM     33  C   UNL     1       3.896   5.304  -2.196  0.00  0.00    +0.277 C 
ENDBRANCH  28  32
ENDBRANCH  20  23
ENDBRANCH  19  20
ENDBRANCH   6  19
TORSDOF 8
