REMARK  Name = ZINC35465877
REMARK  15 active torsions:
REMARK  status: ('A' for Active; 'I' for Inactive)
REMARK    1  A    between atoms: C_1  and  C_2
REMARK    2  A    between atoms: C_5  and  C_33
REMARK    3  A    between atoms: C_7  and  C_27
REMARK    4  A    between atoms: C_7  and  C_28
REMARK    5  A    between atoms: C_13  and  C_26
REMARK    6  A    between atoms: C_14  and  C_22
REMARK    7  A    between atoms: C_17  and  C_20
REMARK    8  A    between atoms: C_17  and  O_21
REMARK    9  A    between atoms: C_22  and  O_24
REMARK   10  A    between atoms: O_24  and  C_25
REMARK   11  A    between atoms: C_28  and  C_29
REMARK   12  A    between atoms: C_29  and  C_30
REMARK   13  A    between atoms: C_33  and  C_34
REMARK   14  A    between atoms: C_33  and  C_35
REMARK   15  A    between atoms: C_33  and  O_36
REMARK                            x       y       z     vdW  Elec       q    Type
REMARK                         _______ _______ _______ _____ _____    ______ ____
ROOT
ATOM      1  C   UNL     1       0.381   1.460  -0.870  0.00  0.00    +0.013 C 
ATOM      2  C   UNL     1      -0.390   0.233  -1.368  0.00  0.00    -0.005 C 
ATOM      3  C   UNL     1      -1.757   0.745  -1.863  0.00  0.00    +0.009 C 
ATOM      4  C   UNL     1      -2.471   1.453  -0.712  0.00  0.00    +0.007 C 
ATOM      5  C   UNL     1      -2.748   0.479   0.423  0.00  0.00    +0.026 C 
ATOM      6  C   UNL     1      -1.502  -0.269   0.892  0.00  0.00    -0.023 C 
ATOM      7  C   UNL     1      -0.657  -0.781  -0.258  0.00  0.00    +0.007 C 
ATOM      8  C   UNL     1       0.609  -1.487   0.218  0.00  0.00    +0.035 C 
ATOM      9  C   UNL     1       1.323  -2.099  -0.989  0.00  0.00    -0.062 C 
ATOM     10  C   UNL     1       1.606  -3.376  -1.040  0.00  0.00    +0.008 C 
ATOM     11  C   UNL     1       1.669  -1.122  -2.066  0.00  0.00    +0.073 C 
ATOM     12  C   UNL     1       0.354  -0.427  -2.497  0.00  0.00    +0.150 C 
ATOM     13  C   UNL     1       0.831   0.411  -3.656  0.00  0.00    +0.190 C 
ATOM     14  O   UNL     1       0.457   1.506  -3.984  0.00  0.00    -0.293 OA
ATOM     15  C   UNL     1       1.895  -0.458  -4.328  0.00  0.00    +0.180 C 
ATOM     16  C   UNL     1       2.092  -1.676  -3.415  0.00  0.00    +0.183 C 
ATOM     17  O   UNL     1       2.489  -2.774  -3.702  0.00  0.00    -0.293 OA
ATOM     18  C   UNL     1       1.427  -0.904  -5.714  0.00  0.00    +0.058 C 
ATOM     19  C   UNL     1       2.778  -0.183  -1.585  0.00  0.00    +0.025 C 
ATOM     20  C   UNL     1      -0.715   0.587   1.883  0.00  0.00    +0.012 C 
ENDROOT
BRANCH   5  21
ATOM     21  C   UNL     1      -3.344   1.246   1.612  0.00  0.00    +0.064 C 
ATOM     22  C   UNL     1      -3.471   0.306   2.813  0.00  0.00    +0.041 C 
ATOM     23  C   UNL     1      -2.429   2.416   1.975  0.00  0.00    +0.041 C 
BRANCH  21  24
ATOM     24  O   UNL     1      -4.636   1.743   1.257  0.00  0.00    -0.389 OA
ATOM     25  H   UNL     1      -4.641   2.292   0.461  0.00  0.00    +0.210 HD
ENDBRANCH  21  24
ENDBRANCH   5  21
BRANCH  15  26
ATOM     26  O   UNL     1       3.118   0.271  -4.457  0.00  0.00    -0.374 OA
ATOM     27  H   UNL     1       3.832  -0.229  -4.877  0.00  0.00    +0.211 HD
ENDBRANCH  15  26
BRANCH  12  28
ATOM     28  C   UNL     1      -0.541  -1.501  -3.103  0.00  0.00    +0.322 C 
ATOM     29  O   UNL     1      -1.150  -1.276  -4.123  0.00  0.00    -0.250 OA
BRANCH  28  30
ATOM     30  O   UNL     1      -0.653  -2.698  -2.505  0.00  0.00    -0.467 OA
ATOM     31  C   UNL     1      -1.510  -3.657  -3.129  0.00  0.00    +0.280 C 
ENDBRANCH  28  30
ENDBRANCH  12  28
BRANCH   6  32
ATOM     32  C   UNL     1      -2.016  -1.502   1.683  0.00  0.00    +0.018 C 
BRANCH  32  33
ATOM     33  C   UNL     1      -3.001  -2.289   0.816  0.00  0.00    +0.126 C 
BRANCH  33  34
ATOM     34  C   UNL     1      -3.350  -3.584   1.503  0.00  0.00    +0.356 C 
ATOM     35  O   UNL     1      -2.857  -3.853   2.585  0.00  0.00    -0.246 OA
ATOM     36  O   UNL     1      -4.126  -4.363   0.976  0.00  0.00    -0.246 OA
ENDBRANCH  33  34
ENDBRANCH  32  33
ENDBRANCH   6  32
TORSDOF 8
