REMARK  Name = ZINC21849446
REMARK  7 active torsions:
REMARK  status: ('A' for Active; 'I' for Inactive)
REMARK    1  A    between atoms: C_1  and  C_2
REMARK    2  A    between atoms: C_2  and  C_4
REMARK    3  A    between atoms: C_2  and  N_10
REMARK    4  A    between atoms: C_11  and  C_13
REMARK    5  A    between atoms: C_13  and  N_14
REMARK    6  A    between atoms: N_17  and  S_20
REMARK    7  A    between atoms: S_20  and  C_23
REMARK                            x       y       z     vdW  Elec       q    Type
REMARK                         _______ _______ _______ _____ _____    ______ ____
ROOT
ATOM      1  N   UNL     1      -0.724   1.573  -1.181  0.00  0.00    +0.387 N 
ATOM      2  C   UNL     1      -0.013   1.086   0.008  0.00  0.00    -0.061 C 
ATOM      3  C   UNL     1      -0.731   1.581   1.268  0.00  0.00    +0.091 C 
ATOM      4  N   UNL     1      -0.872   3.042   1.182  0.00  0.00    -0.180 NA
ATOM      5  C   UNL     1      -1.452   3.615  -0.042  0.00  0.00    +0.091 C 
ATOM      6  C   UNL     1      -0.705   3.040  -1.250  0.00  0.00    -0.061 C 
ATOM      7  H   UNL     1      -1.774   1.256  -1.096  0.00  0.00    -0.081 HD
ENDROOT
BRANCH   4   8
ATOM      8  S   UNL     1      -0.390   4.017   2.431  0.00  0.00    +0.062 S 
ATOM      9  O   UNL     1       0.587   3.288   3.162  0.00  0.00    -0.153 OA
ATOM     10  O   UNL     1      -0.125   5.295   1.870  0.00  0.00    -0.153 OA
BRANCH   8  11
ATOM     11  C   UNL     1      -1.776   4.215   3.502  0.00  0.00    +0.125 A 
ATOM     12  C   UNL     1      -1.734   3.707   4.787  0.00  0.00    +0.050 A 
ATOM     13  C   UNL     1      -2.820   3.867   5.629  0.00  0.00    +0.043 A 
ATOM     14  C   UNL     1      -3.951   4.526   5.181  0.00  0.00    +0.021 A 
ATOM     15  C   UNL     1      -3.995   5.029   3.895  0.00  0.00    +0.023 A 
ATOM     16  C   UNL     1      -2.907   4.873   3.054  0.00  0.00    +0.067 A 
ATOM     17 CL   UNL     1      -2.962   5.505   1.438  0.00  0.00    -0.082 Cl
ATOM     18 CL   UNL     1      -2.765   3.236   7.245  0.00  0.00    -0.083 Cl
ENDBRANCH   8  11
ENDBRANCH   4   8
BRANCH   1  19
ATOM     19  C   UNL     1      -0.170   0.981  -2.406  0.00  0.00    +0.019 C 
BRANCH  19  21
ATOM     20  N   UNL     1      -0.756   0.862  -4.806  0.00  0.00    -0.310 N 
ATOM     21  C   UNL     1      -1.068   1.304  -3.572  0.00  0.00    +0.197 C 
ATOM     22  O   UNL     1      -2.071   1.963  -3.400  0.00  0.00    -0.278 OA
ATOM     23  H   UNL     1       0.154   0.264  -4.962  0.00  0.00    +0.149 HD
BRANCH  20  25
ATOM     24  C   UNL     1      -2.758   0.146  -6.015  0.00  0.00    +0.033 C 
ATOM     25  C   UNL     1      -1.629   1.176  -5.939  0.00  0.00    +0.100 C 
BRANCH  25  26
ATOM     26  C   UNL     1      -0.829   1.138  -7.216  0.00  0.00    -0.027 A 
ATOM     27  C   UNL     1       0.130   0.160  -7.402  0.00  0.00    +0.005 A 
ATOM     28  C   UNL     1       0.861   0.123  -8.574  0.00  0.00    +0.000 A 
ATOM     29  C   UNL     1       0.639   1.069  -9.557  0.00  0.00    +0.000 A 
ATOM     30  C   UNL     1      -0.316   2.051  -9.369  0.00  0.00    +0.000 A 
ATOM     31  C   UNL     1      -1.050   2.085  -8.198  0.00  0.00    +0.005 A 
ENDBRANCH  25  26
ENDBRANCH  20  25
ENDBRANCH  19  21
ENDBRANCH   1  19
TORSDOF 6
