REMARK  Name = ZINC64505233
REMARK  2 active torsions:
REMARK  status: ('A' for Active; 'I' for Inactive)
REMARK    1  A    between atoms: C_4  and  C_7
REMARK    2  A    between atoms: C_10  and  C_14
REMARK                            x       y       z     vdW  Elec       q    Type
REMARK                         _______ _______ _______ _____ _____    ______ ____
ROOT
ATOM      1  C   UNL     1       3.711  -0.707  -0.038  0.00  0.00    +0.180 C 
ATOM      2  N   UNL     1       3.584  -1.997   0.674  0.00  0.00    -0.265 NA
ATOM      3  C   UNL     1       4.533  -1.940   1.808  0.00  0.00    +0.247 C 
ATOM      4  O   UNL     1       5.529  -0.972   1.407  0.00  0.00    -0.274 OA
ATOM      5  N   UNL     1       4.738   0.064   0.702  0.00  0.00    -0.177 NA
ATOM      6  H   UNL     1       2.639  -2.139   0.999  0.00  0.00    +0.127 HD
ATOM      7  H   UNL     1       5.318   0.594   0.069  0.00  0.00    +0.156 HD
ENDROOT
BRANCH   3   8
ATOM      8  C   UNL     1       5.168  -3.289   2.029  0.00  0.00    +0.061 A 
ATOM      9  H   UNL     1       5.393  -6.171   0.580  0.00  0.00    +0.165 HD
ATOM     10  C   UNL     1       4.999  -4.270   1.119  0.00  0.00    +0.094 A 
ATOM     11  N   UNL     1       5.546  -5.501   1.265  0.00  0.00    -0.360 N 
ATOM     12  C   UNL     1       6.314  -5.825   2.361  0.00  0.00    +0.050 A 
ATOM     13  C   UNL     1       6.871  -7.093   2.501  0.00  0.00    +0.026 A 
ATOM     14  C   UNL     1       7.634  -7.384   3.611  0.00  0.00    +0.002 A 
ATOM     15  C   UNL     1       7.853  -6.427   4.591  0.00  0.00    +0.001 A 
ATOM     16  C   UNL     1       7.315  -5.176   4.473  0.00  0.00    +0.014 A 
ATOM     17  C   UNL     1       6.540  -4.860   3.358  0.00  0.00    +0.045 A 
ATOM     18  C   UNL     1       5.946  -3.522   3.188  0.00  0.00    +0.196 A 
ATOM     19  O   UNL     1       6.115  -2.647   4.020  0.00  0.00    -0.287 OA
ENDBRANCH   3   8
BRANCH   1  23
ATOM     20  C   UNL     1      -0.017   1.378   0.010  0.00  0.00    +0.000 A 
ATOM     21  C   UNL     1       1.171   2.086   0.002  0.00  0.00    +0.000 A 
ATOM     22  C   UNL     1       2.377   1.411  -0.013  0.00  0.00    +0.006 A 
ATOM     23  C   UNL     1       2.396   0.029  -0.020  0.00  0.00    -0.014 A 
ATOM     24  C   UNL     1       1.208  -0.679  -0.012  0.00  0.00    +0.006 A 
ATOM     25  C   UNL     1       0.002  -0.004   0.002  0.00  0.00    +0.000 A 
ENDBRANCH   1  23
TORSDOF 2
