REMARK  Name = ZINC04831040
REMARK  3 active torsions:
REMARK  status: ('A' for Active; 'I' for Inactive)
REMARK    1  A    between atoms: C_1  and  C_2
REMARK    2  A    between atoms: C_3  and  C_10
REMARK    3  A    between atoms: C_11  and  N_12
REMARK                            x       y       z     vdW  Elec       q    Type
REMARK                         _______ _______ _______ _____ _____    ______ ____
ROOT
ATOM      1  C   UNL     1      -1.677   4.231   0.041  0.00  0.00    +0.047 C 
ATOM      2  C   UNL     1      -0.759   3.036   0.026  0.00  0.00    -0.011 A 
ATOM      3  C   UNL     1       0.660   3.066   0.012  0.00  0.00    +0.011 A 
ATOM      4  C   UNL     1       1.087   1.771   0.001  0.00  0.00    +0.086 A 
ATOM      5  N   UNL     1      -0.011   0.966   0.007  0.00  0.00    -0.345 N 
ATOM      6  H   UNL     1       0.002  -0.004   0.002  0.00  0.00    +0.167 HD
ATOM      7  C   UNL     1      -1.133   1.743   0.016  0.00  0.00    +0.082 A 
ATOM      8  I   UNL     1      -3.107   1.041   0.020  0.00  0.00    -0.024 I 
ATOM      9  I   UNL     1       3.082   1.133  -0.021  0.00  0.00    -0.023 I 
ENDROOT
BRANCH   3  10
ATOM     10  C   UNL     1       1.514   4.272   0.010  0.00  0.00    +0.035 C 
ATOM     11  C   UNL     1       2.508   4.383   0.880  0.00  0.00    +0.179 C 
BRANCH  11  12
ATOM     12  N   UNL     1       3.363   5.592   0.878  0.00  0.00    +0.049 N 
ATOM     13  O   UNL     1       3.154   6.484   0.076  0.00  0.00    -0.127 OA
ATOM     14  O   UNL     1       4.276   5.693   1.678  0.00  0.00    -0.127 OA
ENDBRANCH  11  12
ENDBRANCH   3  10
TORSDOF 2
