REMARK  Name = ZINC09728717
REMARK  2 active torsions:
REMARK  status: ('A' for Active; 'I' for Inactive)
REMARK    1  A    between atoms: C_9  and  C_13
REMARK    2  A    between atoms: N_18  and  C_21
REMARK                            x       y       z     vdW  Elec       q    Type
REMARK                         _______ _______ _______ _____ _____    ______ ____
ROOT
ATOM      1  C   UNL     1       3.182   6.611  -0.492  0.00  0.00    +0.267 C 
ATOM      2  O   UNL     1       4.361   6.344  -0.629  0.00  0.00    -0.268 OA
ATOM      3  N   UNL     1       2.776   7.896  -0.514  0.00  0.00    -0.293 N 
ATOM      4  C   UNL     1       1.381   8.252  -0.211  0.00  0.00    +0.127 C 
ATOM      5  C   UNL     1       1.387   9.354   0.860  0.00  0.00    +0.124 C 
ATOM      6  N   UNL     1       2.227  10.469   0.404  0.00  0.00    -0.327 N 
ATOM      7  C   UNL     1       3.626  10.052   0.243  0.00  0.00    +0.124 C 
ATOM      8  C   UNL     1       3.713   8.979  -0.848  0.00  0.00    +0.127 C 
ENDROOT
BRANCH   1  17
ATOM      9  C   UNL     1       0.082  -0.017   0.265  0.00  0.00    +0.001 A 
ATOM     10  C   UNL     1       1.286  -0.643   0.539  0.00  0.00    +0.004 A 
ATOM     11  C   UNL     1       2.452   0.089   0.657  0.00  0.00    +0.046 A 
ATOM     12  C   UNL     1       2.428   1.466   0.503  0.00  0.00    +0.130 A 
ATOM     13  C   UNL     1       1.203   2.094   0.209  0.00  0.00    +0.042 A 
ATOM     14  C   UNL     1       0.038   1.355   0.099  0.00  0.00    +0.013 A 
ATOM     15  C   UNL     1       1.249   3.554   0.007  0.00  0.00    +0.076 A 
ATOM     16  C   UNL     1       2.476   4.173  -0.137  0.00  0.00    +0.047 A 
ATOM     17  C   UNL     1       2.196   5.528  -0.303  0.00  0.00    +0.154 A 
ATOM     18  N   UNL     1       0.878   5.661  -0.258  0.00  0.00    -0.168 NA
ATOM     19  N   UNL     1       0.312   4.513  -0.079  0.00  0.00    -0.276 N 
ATOM     20  H   UNL     1      -0.674   4.362  -0.014  0.00  0.00    +0.189 HD
ATOM     21  C   UNL     1       3.759   3.393  -0.100  0.00  0.00    +0.269 C 
ATOM     22  O   UNL     1       3.558   2.197   0.659  0.00  0.00    -0.487 OA
ENDBRANCH   1  17
BRANCH   6  23
ATOM     23  C   UNL     1       2.126  11.561   1.272  0.00  0.00    +0.030 A 
ATOM     24  C   UNL     1       3.268  12.094   1.854  0.00  0.00    +0.026 A 
ATOM     25  C   UNL     1       3.167  13.175   2.707  0.00  0.00    +0.040 A 
ATOM     26  C   UNL     1       1.926  13.720   2.991  0.00  0.00    +0.124 A 
ATOM     27  C   UNL     1       0.785  13.187   2.416  0.00  0.00    +0.040 A 
ATOM     28  C   UNL     1       0.882  12.109   1.558  0.00  0.00    +0.026 A 
ATOM     29  F   UNL     1       1.829  14.775   3.830  0.00  0.00    -0.205 F 
ENDBRANCH   6  23
TORSDOF 2
