REMARK  Name = ZINC63242504
REMARK  8 active torsions:
REMARK  status: ('A' for Active; 'I' for Inactive)
REMARK    1  A    between atoms: C_1  and  C_2
REMARK    2  A    between atoms: C_5  and  S_23
REMARK    3  A    between atoms: C_7  and  C_8
REMARK    4  A    between atoms: N_10  and  C_11
REMARK    5  A    between atoms: C_11  and  C_12
REMARK    6  A    between atoms: C_11  and  C_13
REMARK    7  A    between atoms: C_16  and  N_19
REMARK    8  A    between atoms: S_23  and  N_26
REMARK                            x       y       z     vdW  Elec       q    Type
REMARK                         _______ _______ _______ _____ _____    ______ ____
ROOT
ATOM      1  C   UNL     1       0.233   0.022   2.480  0.00  0.00    +0.245 C 
ATOM      2  O   UNL     1       0.130   1.234   2.503  0.00  0.00    -0.270 OA
ATOM      3  N   UNL     1       0.457  -0.657   3.622  0.00  0.00    -0.305 N 
ATOM      4  H   UNL     1       0.538  -1.623   3.604  0.00  0.00    +0.150 HD
ENDROOT
BRANCH   1  11
ATOM      5  C   UNL     1      -0.093   1.506   0.017  0.00  0.00    +0.044 C 
ATOM      6  C   UNL     1      -0.046  -0.001   0.005  0.00  0.00    -0.038 A 
ATOM      7  C   UNL     1      -0.153  -0.686  -1.188  0.00  0.00    +0.006 A 
ATOM      8  C   UNL     1      -0.110  -2.069  -1.201  0.00  0.00    +0.029 A 
ATOM      9  C   UNL     1       0.040  -2.774  -0.020  0.00  0.00    +0.106 A 
ATOM     10  C   UNL     1       0.148  -2.101   1.179  0.00  0.00    +0.041 A 
ATOM     11  C   UNL     1       0.111  -0.705   1.199  0.00  0.00    +0.041 A 
BRANCH   9  12
ATOM     12  S   UNL     1       0.092  -4.535  -0.048  0.00  0.00    +0.056 S 
ATOM     13  O   UNL     1      -0.309  -4.973   1.243  0.00  0.00    -0.153 OA
ATOM     14  O   UNL     1      -0.578  -4.942  -1.233  0.00  0.00    -0.153 OA
BRANCH  12  15
ATOM     15  N   UNL     1       1.678  -4.975  -0.226  0.00  0.00    -0.204 NA
ATOM     16  H   UNL     1       2.366  -4.294  -0.292  0.00  0.00    +0.144 HD
ATOM     17  H   UNL     1       1.920  -5.913  -0.264  0.00  0.00    +0.144 HD
ENDBRANCH  12  15
ENDBRANCH   9  12
ENDBRANCH   1  11
BRANCH   3  18
ATOM     18  C   UNL     1       0.577   0.065   4.892  0.00  0.00    +0.100 C 
ATOM     19  C   UNL     1       2.018   0.548   5.069  0.00  0.00    +0.033 C 
BRANCH  18  20
ATOM     20  C   UNL     1       0.212  -0.855   6.029  0.00  0.00    -0.027 A 
ATOM     21  C   UNL     1       0.627  -2.174   6.009  0.00  0.00    +0.007 A 
ATOM     22  C   UNL     1       0.294  -3.019   7.050  0.00  0.00    +0.023 A 
ATOM     23  C   UNL     1      -0.457  -2.543   8.116  0.00  0.00    +0.035 A 
ATOM     24  C   UNL     1      -0.873  -1.218   8.132  0.00  0.00    +0.023 A 
ATOM     25  C   UNL     1      -0.532  -0.377   7.091  0.00  0.00    +0.007 A 
BRANCH  23  26
ATOM     26  N   UNL     1      -0.796  -3.398   9.171  0.00  0.00    -0.270 N 
ATOM     27  C   UNL     1       0.069  -4.350   9.572  0.00  0.00    +0.301 C 
ATOM     28  O   UNL     1       1.105  -4.526   8.961  0.00  0.00    -0.253 OA
ATOM     29  N   UNL     1      -0.214  -5.106  10.651  0.00  0.00    -0.313 N 
ATOM     30  H   UNL     1      -1.654  -3.304   9.614  0.00  0.00    +0.156 HD
ATOM     31  H   UNL     1      -1.040  -4.965  11.139  0.00  0.00    +0.146 HD
ATOM     32  H   UNL     1       0.409  -5.791  10.940  0.00  0.00    +0.146 HD
ENDBRANCH  23  26
ENDBRANCH  18  20
ENDBRANCH   3  18
TORSDOF 6
