REMARK  Name = ZINC64744000
REMARK  9 active torsions:
REMARK  status: ('A' for Active; 'I' for Inactive)
REMARK    1  A    between atoms: C_1  and  C_2
REMARK    2  A    between atoms: C_2  and  O_3
REMARK    3  A    between atoms: O_3  and  C_4
REMARK    4  A    between atoms: C_9  and  C_10
REMARK    5  A    between atoms: C_10  and  N_11
REMARK    6  A    between atoms: C_12  and  C_14
REMARK    7  A    between atoms: C_14  and  C_16
REMARK    8  A    between atoms: C_14  and  C_17
REMARK    9  A    between atoms: C_23  and  C_25
REMARK                            x       y       z     vdW  Elec       q    Type
REMARK                         _______ _______ _______ _____ _____    ______ ____
ROOT
ATOM      1  C   UNL     1       5.910   1.419  -4.377  0.00  0.00    +0.004 C 
ATOM      2  C   UNL     1       6.094   0.663  -5.695  0.00  0.00    +0.023 C 
ATOM      3  C   UNL     1       6.647   1.620  -6.755  0.00  0.00    +0.108 C 
ATOM      4  N   UNL     1       7.876   2.239  -6.239  0.00  0.00    -0.300 N 
ATOM      5  C   UNL     1       7.832   2.915  -4.935  0.00  0.00    +0.108 C 
ATOM      6  C   UNL     1       7.265   1.943  -3.895  0.00  0.00    +0.023 C 
ATOM      7  C   UNL     1       9.021   2.187  -6.947  0.00  0.00    +0.242 C 
ATOM      8  O   UNL     1       9.044   1.626  -8.022  0.00  0.00    -0.273 OA
ENDROOT
BRANCH   7   9
ATOM      9  C   UNL     1      10.272   2.827  -6.404  0.00  0.00    +0.190 C 
ATOM     10  C   UNL     1      10.071   4.318  -6.251  0.00  0.00    +0.016 C 
ATOM     11  C   UNL     1      10.989   4.905  -7.052  0.00  0.00    -0.002 A 
ATOM     12  C   UNL     1      11.303   6.309  -7.343  0.00  0.00    +0.029 A 
ATOM     13  C   UNL     1      12.303   6.592  -8.210  0.00  0.00    +0.042 A 
ATOM     14  C   UNL     1      13.044   5.579  -8.837  0.00  0.00    +0.022 A 
ATOM     15  C   UNL     1      12.814   4.267  -8.620  0.00  0.00    +0.027 A 
ATOM     16  C   UNL     1      11.787   3.855  -7.726  0.00  0.00    +0.043 A 
ATOM     17  N   UNL     1      11.377   2.664  -7.356  0.00  0.00    -0.370 N 
ATOM     18 CL   UNL     1      12.677   8.251  -8.557  0.00  0.00    -0.084 Cl
ATOM     19  H   UNL     1      11.743   1.819  -7.659  0.00  0.00    +0.161 HD
ENDBRANCH   7   9
BRANCH   1  20
ATOM     20  C   UNL     1       5.325   0.475  -3.325  0.00  0.00    +0.075 C 
ATOM     21  C   UNL     1       5.140   1.231  -2.008  0.00  0.00    +0.017 C 
BRANCH  20  23
ATOM     22  N   UNL     1       3.287  -0.895  -3.030  0.00  0.00    -0.311 N 
ATOM     23  C   UNL     1       3.991  -0.042  -3.799  0.00  0.00    +0.216 C 
ATOM     24  O   UNL     1       3.552   0.311  -4.873  0.00  0.00    -0.276 OA
ATOM     25  H   UNL     1       3.638  -1.177  -2.171  0.00  0.00    +0.149 HD
BRANCH  22  26
ATOM     26  C   UNL     1       1.990  -1.397  -3.491  0.00  0.00    +0.143 C 
BRANCH  26  32
ATOM     27  C   UNL     1       0.777  -1.810  -1.336  0.00  0.00    +0.125 A 
ATOM     28  C   UNL     1       0.243  -2.669  -0.386  0.00  0.00    +0.046 A 
ATOM     29  C   UNL     1       0.351  -4.036  -0.554  0.00  0.00    +0.004 A 
ATOM     30  C   UNL     1       0.991  -4.548  -1.667  0.00  0.00    +0.001 A 
ATOM     31  C   UNL     1       1.525  -3.695  -2.615  0.00  0.00    +0.009 A 
ATOM     32  C   UNL     1       1.414  -2.327  -2.455  0.00  0.00    +0.011 A 
BRANCH  27  33
ATOM     33  O   UNL     1       0.671  -0.465  -1.174  0.00  0.00    -0.492 OA
BRANCH  33  35
ATOM     34  C   UNL     1      -0.019   1.526   0.010  0.00  0.00    +0.048 C 
ATOM     35  C   UNL     1       0.002  -0.004   0.002  0.00  0.00    +0.225 C 
ENDBRANCH  33  35
ENDBRANCH  27  33
ENDBRANCH  26  32
ENDBRANCH  22  26
ENDBRANCH  20  23
ENDBRANCH   1  20
TORSDOF 7
