REMARK  Name = ZINC57434746
REMARK  8 active torsions:
REMARK  status: ('A' for Active; 'I' for Inactive)
REMARK    1  A    between atoms: C_1  and  C_2
REMARK    2  A    between atoms: C_6  and  S_8
REMARK    3  A    between atoms: S_8  and  N_11
REMARK    4  A    between atoms: N_11  and  N_12
REMARK    5  A    between atoms: C_13  and  C_15
REMARK    6  A    between atoms: C_20  and  N_21
REMARK    7  A    between atoms: N_21  and  S_22
REMARK    8  A    between atoms: S_22  and  C_25
REMARK                            x       y       z     vdW  Elec       q    Type
REMARK                         _______ _______ _______ _____ _____    ______ ____
ROOT
ATOM      1  N   UNL     1       2.479  -2.094   3.328  0.00  0.00    -0.228 N 
ATOM      2  C   UNL     1       3.151  -1.962   4.489  0.00  0.00    +0.261 C 
ATOM      3  O   UNL     1       3.032  -2.804   5.359  0.00  0.00    -0.269 OA
ATOM      4  H   UNL     1       2.574  -1.423   2.634  0.00  0.00    +0.171 HD
ENDROOT
BRANCH   2   5
ATOM      5  C   UNL     1       4.030  -0.799   4.704  0.00  0.00    +0.062 A 
ATOM      6  C   UNL     1       4.165   0.174   3.709  0.00  0.00    +0.015 A 
ATOM      7  C   UNL     1       4.988   1.259   3.917  0.00  0.00    +0.001 A 
ATOM      8  C   UNL     1       5.685   1.392   5.108  0.00  0.00    +0.002 A 
ATOM      9  C   UNL     1       5.562   0.441   6.099  0.00  0.00    +0.027 A 
ATOM     10  C   UNL     1       4.732  -0.657   5.911  0.00  0.00    +0.086 A 
BRANCH  10  11
ATOM     11  N   UNL     1       4.602  -1.614   6.910  0.00  0.00    -0.097 NA
BRANCH  11  12
ATOM     12  S   UNL     1       5.432  -1.443   8.332  0.00  0.00    +0.098 S 
ATOM     13  O   UNL     1       6.812  -1.564   8.015  0.00  0.00    -0.148 OA
ATOM     14  O   UNL     1       4.897  -0.296   8.980  0.00  0.00    -0.148 OA
BRANCH  12  15
ATOM     15  C   UNL     1       5.025  -2.827   9.343  0.00  0.00    +0.148 A 
ATOM     16  C   UNL     1       5.640  -4.032   9.429  0.00  0.00    +0.037 A 
ATOM     17  C   UNL     1       5.140  -4.980  10.302  0.00  0.00    +0.010 A 
ATOM     18  C   UNL     1       4.049  -4.676  11.047  0.00  0.00    +0.047 A 
ATOM     19  S   UNL     1       3.699  -3.005  10.525  0.00  0.00    -0.077 S 
ENDBRANCH  12  15
ENDBRANCH  11  12
ENDBRANCH  10  11
ENDBRANCH   2   5
BRANCH   1  20
ATOM     20  N   UNL     1       1.644  -3.200   3.123  0.00  0.00    -0.108 NA
ATOM     21  H   UNL     1       1.995  -4.098   3.224  0.00  0.00    +0.172 HD
BRANCH  20  22
ATOM     22  S   UNL     1       0.057  -2.973   2.709  0.00  0.00    +0.074 S 
ATOM     23  O   UNL     1      -0.500  -2.110   3.691  0.00  0.00    -0.152 OA
ATOM     24  O   UNL     1      -0.479  -4.260   2.433  0.00  0.00    -0.152 OA
BRANCH  22  30
ATOM     25  C   UNL     1      -0.018   1.503   0.010  0.00  0.00    +0.044 C 
ATOM     26  C   UNL     1       0.002  -0.004   0.002  0.00  0.00    -0.049 A 
ATOM     27  C   UNL     1       0.006  -0.689  -1.199  0.00  0.00    +0.003 A 
ATOM     28  C   UNL     1       0.025  -2.071  -1.207  0.00  0.00    +0.002 A 
ATOM     29  C   UNL     1       0.040  -2.768  -0.013  0.00  0.00    +0.028 A 
ATOM     30  C   UNL     1       0.037  -2.084   1.188  0.00  0.00    +0.107 A 
ATOM     31  C   UNL     1       0.023  -0.702   1.195  0.00  0.00    +0.032 A 
ENDBRANCH  22  30
ENDBRANCH  20  22
ENDBRANCH   1  20
TORSDOF 7
