REMARK  Name = ZINC63671475
REMARK  5 active torsions:
REMARK  status: ('A' for Active; 'I' for Inactive)
REMARK    1  A    between atoms: C_1  and  N_2
REMARK    2  A    between atoms: C_5  and  C_18
REMARK    3  A    between atoms: N_20  and  C_21
REMARK    4  A    between atoms: C_21  and  C_22
REMARK    5  A    between atoms: C_22  and  C_23
REMARK                            x       y       z     vdW  Elec       q    Type
REMARK                         _______ _______ _______ _____ _____    ______ ____
ROOT
ATOM      1  C   UNL     1      -4.866  -0.126   0.572  0.00  0.00    +0.244 C 
ATOM      2  O   UNL     1      -4.879   1.062   0.830  0.00  0.00    -0.270 OA
ATOM      3  N   UNL     1      -6.019  -0.825   0.560  0.00  0.00    -0.311 N 
ATOM      4  H   UNL     1      -6.009  -1.773   0.354  0.00  0.00    +0.149 HD
ENDROOT
BRANCH   1   9
ATOM      5  C   UNL     1      -0.018   1.461   0.010  0.00  0.00    +0.138 C 
ATOM      6  N   UNL     1       0.002  -0.004   0.002  0.00  0.00    -0.271 N 
ATOM      7  C   UNL     1      -1.203  -0.717   0.004  0.00  0.00    +0.058 A 
ATOM      8  C   UNL     1      -2.395  -0.077   0.285  0.00  0.00    +0.038 A 
ATOM      9  C   UNL     1      -3.590  -0.803   0.272  0.00  0.00    +0.039 A 
ATOM     10  C   UNL     1      -3.576  -2.169  -0.024  0.00  0.00    +0.015 A 
ATOM     11  C   UNL     1      -2.384  -2.802  -0.300  0.00  0.00    +0.026 A 
ATOM     12  C   UNL     1      -1.195  -2.083  -0.284  0.00  0.00    +0.052 A 
ATOM     13  N   UNL     1       0.018  -2.736  -0.544  0.00  0.00    -0.317 N 
ATOM     14  C   UNL     1      -0.049  -3.999  -1.279  0.00  0.00    +0.106 C 
ATOM     15  C   UNL     1       1.180  -4.189  -2.162  0.00  0.00    +0.019 C 
ATOM     16  C   UNL     1       2.428  -4.014  -1.289  0.00  0.00    +0.004 C 
ATOM     17  C   UNL     1       2.493  -2.564  -0.825  0.00  0.00    +0.032 C 
ATOM     18  C   UNL     1       1.254  -2.160  -0.043  0.00  0.00    +0.160 C 
ATOM     19  C   UNL     1       1.175  -0.656  -0.013  0.00  0.00    +0.240 C 
ATOM     20  O   UNL     1       2.205  -0.014   0.003  0.00  0.00    -0.273 OA
ENDBRANCH   1   9
BRANCH   3  21
ATOM     21  C   UNL     1      -7.286  -0.154   0.858  0.00  0.00    +0.109 C 
BRANCH  21  22
ATOM     22  C   UNL     1      -8.431  -1.166   0.777  0.00  0.00    +0.052 C 
BRANCH  22  23
ATOM     23  C   UNL     1      -9.735  -0.475   1.083  0.00  0.00    -0.040 C 
ATOM     24  C   UNL     1     -10.613   0.037   0.191  0.00  0.00    +0.000 A 
ATOM     25  C   UNL     1     -10.616   0.103  -1.275  0.00  0.00    +0.030 A 
ATOM     26  C   UNL     1     -11.659   0.693  -1.904  0.00  0.00    +0.042 A 
ATOM     27  C   UNL     1     -12.733   1.244  -1.190  0.00  0.00    +0.022 A 
ATOM     28  C   UNL     1     -12.801   1.222   0.158  0.00  0.00    +0.027 A 
ATOM     29  C   UNL     1     -11.759   0.625   0.920  0.00  0.00    +0.043 A 
ATOM     30  N   UNL     1     -11.596   0.482   2.213  0.00  0.00    -0.380 N 
ATOM     31  C   UNL     1     -10.329  -0.219   2.450  0.00  0.00    +0.144 C 
ATOM     32 CL   UNL     1     -11.666   0.772  -3.638  0.00  0.00    -0.084 Cl
ATOM     33  H   UNL     1     -12.212   0.786   2.898  0.00  0.00    +0.160 HD
ENDBRANCH  22  23
ENDBRANCH  21  22
ENDBRANCH   3  21
TORSDOF 4
