REMARK  Name = ZINC05468995
REMARK  5 active torsions:
REMARK  status: ('A' for Active; 'I' for Inactive)
REMARK    1  A    between atoms: C_1  and  C_2
REMARK    2  A    between atoms: C_2  and  C_3
REMARK    3  A    between atoms: C_10  and  C_15
REMARK    4  A    between atoms: C_10  and  C_16
REMARK    5  A    between atoms: C_12  and  C_14
REMARK                            x       y       z     vdW  Elec       q    Type
REMARK                         _______ _______ _______ _____ _____    ______ ____
ROOT
ATOM      1  C   UNL     1      -5.284   0.256  -0.787  0.00  0.00    +0.142 C 
ATOM      2  C   UNL     1      -4.150   0.942  -1.514  0.00  0.00    +0.254 C 
ATOM      3  O   UNL     1      -4.269   1.309  -2.664  0.00  0.00    -0.272 OA
ATOM      4  N   UNL     1      -3.006   1.130  -0.836  0.00  0.00    -0.136 N 
ATOM      5  C   UNL     1      -2.955   0.823   0.520  0.00  0.00    +0.180 C 
ATOM      6  N   UNL     1      -2.050   1.030   1.384  0.00  0.00    -0.255 NA
ATOM      7  C   UNL     1      -0.715   1.572   1.274  0.00  0.00    +0.064 C 
ATOM      8  C   UNL     1      -0.013   1.086   0.008  0.00  0.00    +0.081 C 
ATOM      9  C   UNL     1      -0.720   1.572  -1.205  0.00  0.00    +0.037 C 
ATOM     10  N   UNL     1      -1.889   1.661  -1.534  0.00  0.00    -0.180 NA
ATOM     11  C   UNL     1       0.224   2.068  -2.270  0.00  0.00    +0.062 C 
ATOM     12  C   UNL     1       0.100   1.141   2.494  0.00  0.00    +0.036 C 
ATOM     13  C   UNL     1      -0.797   3.100   1.244  0.00  0.00    +0.036 C 
ATOM     14  S   UNL     1      -4.537   0.071   0.878  0.00  0.00    -0.076 S 
ENDROOT
BRANCH   1  16
ATOM     15  C   UNL     1      -7.686   0.365  -0.108  0.00  0.00    +0.005 C 
ATOM     16  C   UNL     1      -6.530   1.143  -0.741  0.00  0.00    +0.021 C 
ENDBRANCH   1  16
TORSDOF 1
