REMARK  Name = ZINC40676758
REMARK  5 active torsions:
REMARK  status: ('A' for Active; 'I' for Inactive)
REMARK    1  A    between atoms: C_1  and  C_2
REMARK    2  A    between atoms: C_3  and  C_16
REMARK    3  A    between atoms: C_6  and  S_10
REMARK    4  A    between atoms: C_7  and  C_8
REMARK    5  A    between atoms: S_10  and  C_11
REMARK                            x       y       z     vdW  Elec       q    Type
REMARK                         _______ _______ _______ _____ _____    ______ ____
ROOT
ATOM      1  C   UNL     1      -0.018   1.503   0.010  0.00  0.00    +0.047 C 
ATOM      2  C   UNL     1       0.002  -0.004   0.002  0.00  0.00    -0.008 A 
ATOM      3  C   UNL     1       0.006  -0.712  -1.188  0.00  0.00    +0.065 A 
ATOM      4  N   UNL     1       0.024  -2.031  -1.176  0.00  0.00    -0.153 NA
ATOM      5  N   UNL     1       0.039  -2.713  -0.090  0.00  0.00    -0.141 NA
ATOM      6  C   UNL     1       0.037  -2.139   1.106  0.00  0.00    +0.143 A 
ATOM      7  C   UNL     1       0.023  -0.733   1.198  0.00  0.00    +0.090 A 
ATOM      8  C   UNL     1      -0.010   0.027  -2.502  0.00  0.00    +0.068 C 
ENDROOT
BRANCH   7   9
ATOM      9  C   UNL     1       0.026  -0.073   2.469  0.00  0.00    +0.102 C 
ATOM     10  N   UNL     1       0.029   0.450   3.477  0.00  0.00    -0.191 NA
ENDBRANCH   7   9
BRANCH   6  11
ATOM     11  S   UNL     1       0.058  -3.125   2.566  0.00  0.00    -0.040 S 
BRANCH  11  12
ATOM     12  C   UNL     1       0.077  -4.780   1.962  0.00  0.00    +0.141 A 
ATOM     13  N   UNL     1       0.083  -5.195   0.712  0.00  0.00    -0.241 NA
ATOM     14  C   UNL     1       0.098  -6.483   0.422  0.00  0.00    +0.120 A 
ATOM     15  C   UNL     1       0.109  -7.350   1.464  0.00  0.00    +0.067 A 
ATOM     16  S   UNL     1       0.101  -6.214   2.842  0.00  0.00    -0.069 S 
ENDBRANCH  11  12
ENDBRANCH   6  11
TORSDOF 3
