REMARK  Name = ZINC44815270
REMARK  9 active torsions:
REMARK  status: ('A' for Active; 'I' for Inactive)
REMARK    1  A    between atoms: C_1  and  C_2
REMARK    2  A    between atoms: C_4  and  C_30
REMARK    3  A    between atoms: C_6  and  C_8
REMARK    4  A    between atoms: C_14  and  C_17
REMARK    5  A    between atoms: N_19  and  C_20
REMARK    6  A    between atoms: C_22  and  C_28
REMARK    7  A    between atoms: C_22  and  C_29
REMARK    8  A    between atoms: C_24  and  C_26
REMARK    9  A    between atoms: C_24  and  C_27
REMARK                            x       y       z     vdW  Elec       q    Type
REMARK                         _______ _______ _______ _____ _____    ______ ____
ROOT
ATOM      1  C   UNL     1      -0.072  -2.584   3.072  0.00  0.00    +0.247 C 
ATOM      2  O   UNL     1      -0.171  -3.792   2.977  0.00  0.00    -0.270 OA
ATOM      3  N   UNL     1       0.091  -2.015   4.283  0.00  0.00    -0.297 N 
ATOM      4  C   UNL     1       0.087  -0.553   4.429  0.00  0.00    +0.108 C 
ATOM      5  C   UNL     1      -0.947  -0.167   5.491  0.00  0.00    +0.020 C 
ATOM      6  C   UNL     1      -0.652  -0.927   6.786  0.00  0.00    +0.016 C 
ATOM      7  C   UNL     1      -0.761  -2.432   6.531  0.00  0.00    +0.092 C 
ATOM      8  C   UNL     1       0.270  -2.845   5.482  0.00  0.00    +0.120 C 
ENDROOT
BRANCH   1  14
ATOM      9  C   UNL     1       1.356   1.496   0.580  0.00  0.00    +0.044 C 
ATOM     10  C   UNL     1       0.554   0.223   0.657  0.00  0.00    -0.049 A 
ATOM     11  C   UNL     1      -0.241  -0.158  -0.410  0.00  0.00    +0.006 A 
ATOM     12  C   UNL     1      -0.980  -1.325  -0.348  0.00  0.00    -0.049 A 
ATOM     13  C   UNL     1      -0.930  -2.118   0.780  0.00  0.00    +0.016 A 
ATOM     14  C   UNL     1      -0.130  -1.740   1.860  0.00  0.00    +0.037 A 
ATOM     15  C   UNL     1       0.617  -0.564   1.789  0.00  0.00    +0.016 A 
ATOM     16  C   UNL     1      -1.843  -1.732  -1.515  0.00  0.00    +0.044 C 
ENDBRANCH   1  14
BRANCH   7  17
ATOM     17  C   UNL     1      -0.503  -3.179   7.814  0.00  0.00    +0.218 C 
ATOM     18  O   UNL     1      -0.256  -2.568   8.833  0.00  0.00    -0.275 OA
ATOM     19  N   UNL     1      -0.546  -4.526   7.830  0.00  0.00    -0.312 N 
ATOM     20  H   UNL     1      -0.743  -5.015   7.016  0.00  0.00    +0.149 HD
BRANCH  19  21
ATOM     21  C   UNL     1      -0.294  -5.254   9.081  0.00  0.00    +0.070 C 
ATOM     22  C   UNL     1       1.211  -5.481   9.236  0.00  0.00    +0.009 C 
ATOM     23  C   UNL     1       1.488  -6.249  10.528  0.00  0.00    -0.072 C 
ATOM     24  N   UNL     1       0.727  -7.487  10.604  0.00  0.00    +0.386 N 
ATOM     25  C   UNL     1      -0.689  -7.431  10.274  0.00  0.00    -0.072 C 
ATOM     26  C   UNL     1      -0.981  -6.618   9.016  0.00  0.00    +0.009 C 
ATOM     27  C   UNL     1      -1.523  -6.902  11.443  0.00  0.00    -0.010 C 
ATOM     28  C   UNL     1      -1.159  -8.880  10.003  0.00  0.00    -0.010 C 
ATOM     29  C   UNL     1       1.247  -5.349  11.740  0.00  0.00    -0.010 C 
ATOM     30  C   UNL     1       2.988  -6.623  10.526  0.00  0.00    -0.010 C 
ATOM     31  H   UNL     1       1.173  -8.176   9.994  0.00  0.00    -0.084 HD
ATOM     32  H   UNL     1       0.822  -7.865  11.550  0.00  0.00    -0.084 HD
ENDBRANCH  19  21
ENDBRANCH   7  17
TORSDOF 3
