REMARK  Name = ZINC12660127
REMARK  13 active torsions:
REMARK  status: ('A' for Active; 'I' for Inactive)
REMARK    1  A    between atoms: C_1  and  C_2
REMARK    2  A    between atoms: C_2  and  C_35
REMARK    3  A    between atoms: C_8  and  C_31
REMARK    4  A    between atoms: C_10  and  C_11
REMARK    5  A    between atoms: C_11  and  C_13
REMARK    6  A    between atoms: C_11  and  O_30
REMARK    7  A    between atoms: C_13  and  C_14
REMARK    8  A    between atoms: C_21  and  O_22
REMARK    9  A    between atoms: O_22  and  C_23
REMARK   10  A    between atoms: C_29  and  N_73
REMARK   11  A    between atoms: C_31  and  C_32
REMARK   12  A    between atoms: C_31  and  C_33
REMARK   13  A    between atoms: C_31  and  C_34
REMARK                            x       y       z     vdW  Elec       q    Type
REMARK                         _______ _______ _______ _____ _____    ______ ____
ROOT
ATOM      1  C   UNL     1       0.910   4.059   0.337  0.00  0.00    +0.144 C 
ENDROOT
BRANCH   1  11
ATOM      2  C   UNL     1      -1.521   7.521  -3.940  0.00  0.00    +0.016 C 
ATOM      3  C   UNL     1      -1.777   6.871  -2.579  0.00  0.00    -0.009 C 
ATOM      4  C   UNL     1      -2.150   5.384  -2.757  0.00  0.00    +0.015 C 
ATOM      5  C   UNL     1      -1.510   4.730  -1.514  0.00  0.00    +0.036 C 
ATOM      6  C   UNL     1      -0.355   5.634  -1.141  0.00  0.00    -0.038 A 
ATOM      7  C   UNL     1      -0.508   6.864  -1.753  0.00  0.00    -0.038 A 
ATOM      8  C   UNL     1       0.437   7.856  -1.553  0.00  0.00    +0.008 A 
ATOM      9  C   UNL     1       1.532   7.620  -0.743  0.00  0.00    -0.041 A 
ATOM     10  C   UNL     1       1.682   6.392  -0.127  0.00  0.00    +0.010 A 
ATOM     11  C   UNL     1       0.743   5.399  -0.331  0.00  0.00    -0.015 A 
ATOM     12  C   UNL     1      -2.890   7.612  -1.836  0.00  0.00    +0.016 C 
BRANCH   9  13
ATOM     13  C   UNL     1       2.557   8.703  -0.527  0.00  0.00    -0.013 C 
ATOM     14  C   UNL     1       1.885   9.922   0.107  0.00  0.00    +0.015 C 
ATOM     15  C   UNL     1       3.657   8.185   0.403  0.00  0.00    +0.015 C 
ATOM     16  C   UNL     1       3.171   9.100  -1.871  0.00  0.00    +0.015 C 
ENDBRANCH   9  13
ENDBRANCH   1  11
BRANCH   1  17
ATOM     17  O   UNL     1       1.633   4.222   1.558  0.00  0.00    -0.387 OA
ATOM     18  H   UNL     1       2.518   4.597   1.445  0.00  0.00    +0.210 HD
ENDBRANCH   1  17
BRANCH   1  19
ATOM     19  C   UNL     1       1.683   3.120  -0.592  0.00  0.00    +0.025 C 
BRANCH  19  20
ATOM     20  C   UNL     1       1.869   1.764   0.093  0.00  0.00    -0.031 C 
ATOM     21  C   UNL     1       0.521   1.210   0.471  0.00  0.00    -0.012 A 
ATOM     22  C   UNL     1       0.301   0.598   1.688  0.00  0.00    -0.040 A 
ATOM     23  C   UNL     1      -0.953   0.091   1.992  0.00  0.00    +0.053 A 
ATOM     24  C   UNL     1      -1.993   0.195   1.083  0.00  0.00    +0.170 A 
ATOM     25  C   UNL     1      -1.777   0.814  -0.144  0.00  0.00    +0.208 A 
ATOM     26  C   UNL     1      -0.520   1.320  -0.445  0.00  0.00    +0.167 A 
ATOM     27  O   UNL     1      -2.942   0.792  -0.856  0.00  0.00    -0.449 OA
ATOM     28  C   UNL     1      -3.762  -0.207  -0.220  0.00  0.00    +0.467 C 
ATOM     29  O   UNL     1      -3.293  -0.217   1.141  0.00  0.00    -0.452 OA
ATOM     30  C   UNL     1       1.397   0.462   2.713  0.00  0.00    +0.017 C 
ATOM     31  C   UNL     1       2.759   0.682   2.054  0.00  0.00    -0.074 C 
ATOM     32  C   UNL     1       4.057   2.384   0.918  0.00  0.00    -0.095 C 
ATOM     33  N   UNL     1       2.694   1.949   1.298  0.00  0.00    +0.383 N 
ATOM     34  H   UNL     1       2.267   2.671   1.890  0.00  0.00    -0.081 HD
BRANCH  26  35
ATOM     35  O   UNL     1      -0.305   1.927  -1.643  0.00  0.00    -0.491 OA
ATOM     36  C   UNL     1       0.126   1.096  -2.723  0.00  0.00    +0.277 C 
ENDBRANCH  26  35
ENDBRANCH  19  20
ENDBRANCH   1  19
TORSDOF 6
