REMARK  Name = ZINC40795555
REMARK  7 active torsions:
REMARK  status: ('A' for Active; 'I' for Inactive)
REMARK    1  A    between atoms: C_4  and  N_8
REMARK    2  A    between atoms: C_10  and  N_29
REMARK    3  A    between atoms: C_11  and  N_15
REMARK    4  A    between atoms: N_15  and  N_16
REMARK    5  A    between atoms: C_17  and  C_19
REMARK    6  A    between atoms: C_19  and  O_20
REMARK    7  A    between atoms: O_20  and  C_21
REMARK                            x       y       z     vdW  Elec       q    Type
REMARK                         _______ _______ _______ _____ _____    ______ ____
ROOT
ATOM      1  N   UNL     1       3.623  -0.652  -0.037  0.00  0.00    -0.296 N 
ATOM      2  C   UNL     1       3.647  -2.038   0.061  0.00  0.00    +0.149 A 
ATOM      3  C   UNL     1       4.861  -2.721   0.156  0.00  0.00    +0.107 A 
ATOM      4  C   UNL     1       4.828  -4.114   0.252  0.00  0.00    +0.161 A 
ATOM      5  N   UNL     1       3.650  -4.732   0.248  0.00  0.00    -0.217 NA
ATOM      6  C   UNL     1       2.526  -4.050   0.156  0.00  0.00    +0.225 A 
ATOM      7  N   UNL     1       2.513  -2.735   0.069  0.00  0.00    -0.219 NA
ATOM      8  H   UNL     1       4.453  -0.157  -0.126  0.00  0.00    +0.154 HD
ENDROOT
BRANCH   1  12
ATOM      9  C   UNL     1      -0.014   1.383   0.054  0.00  0.00    +0.041 A 
ATOM     10  C   UNL     1       1.083   1.958  -0.561  0.00  0.00    +0.043 A 
ATOM     11  C   UNL     1       2.290   1.287  -0.593  0.00  0.00    +0.145 A 
ATOM     12  C   UNL     1       2.402   0.031  -0.005  0.00  0.00    +0.071 A 
ATOM     13  C   UNL     1       1.300  -0.544   0.611  0.00  0.00    +0.064 A 
ATOM     14  C   UNL     1       0.093   0.133   0.640  0.00  0.00    +0.125 A 
ATOM     15  F   UNL     1      -0.980  -0.426   1.240  0.00  0.00    -0.205 F 
ATOM     16  F   UNL     1       3.361   1.849  -1.195  0.00  0.00    -0.204 F 
ENDBRANCH   1  12
BRANCH   3  17
ATOM     17  N   UNL     1       6.081  -2.027   0.156  0.00  0.00    -0.353 N 
ATOM     18  H   UNL     1       6.089  -1.059   0.089  0.00  0.00    +0.143 HD
ATOM     19  H   UNL     1       6.917  -2.515   0.224  0.00  0.00    +0.143 HD
ENDBRANCH   3  17
BRANCH   4  20
ATOM     20  N   UNL     1       6.008  -4.842   0.349  0.00  0.00    -0.247 N 
ATOM     21  H   UNL     1       6.862  -4.384   0.351  0.00  0.00    +0.172 HD
BRANCH  20  22
ATOM     22  N   UNL     1       5.962  -6.239   0.444  0.00  0.00    -0.232 N 
ATOM     23  C   UNL     1       7.106  -6.946   0.538  0.00  0.00    +0.267 C 
ATOM     24  O   UNL     1       8.174  -6.373   0.540  0.00  0.00    -0.271 OA
ATOM     25  H   UNL     1       5.107  -6.698   0.442  0.00  0.00    +0.173 HD
BRANCH  23  26
ATOM     26  C   UNL     1       7.057  -8.449   0.640  0.00  0.00    +0.326 C 
BRANCH  26  27
ATOM     27  O   UNL     1       8.387  -8.964   0.729  0.00  0.00    -0.481 OA
BRANCH  27  28
ATOM     28  C   UNL     1       8.521 -10.313   0.828  0.00  0.00    +0.140 A 
ATOM     29  C   UNL     1       7.396 -11.124   0.834  0.00  0.00    +0.048 A 
ATOM     30  C   UNL     1       7.534 -12.495   0.934  0.00  0.00    +0.023 A 
ATOM     31  C   UNL     1       8.794 -13.060   1.029  0.00  0.00    +0.043 A 
ATOM     32  C   UNL     1       9.918 -12.253   1.023  0.00  0.00    +0.043 A 
ATOM     33  C   UNL     1       9.784 -10.881   0.917  0.00  0.00    +0.084 A 
ATOM     34 CL   UNL     1      11.195  -9.870   0.902  0.00  0.00    -0.080 Cl
ATOM     35 CL   UNL     1       8.964 -14.783   1.156  0.00  0.00    -0.083 Cl
ENDBRANCH  27  28
ENDBRANCH  26  27
ENDBRANCH  23  26
ENDBRANCH  20  22
ENDBRANCH   4  20
TORSDOF 7
