REMARK  Name = ZINC40645283
REMARK  9 active torsions:
REMARK  status: ('A' for Active; 'I' for Inactive)
REMARK    1  A    between atoms: C_1  and  C_2
REMARK    2  A    between atoms: C_2  and  C_29
REMARK    3  A    between atoms: C_4  and  N_10
REMARK    4  A    between atoms: C_6  and  C_8
REMARK    5  A    between atoms: C_6  and  C_9
REMARK    6  A    between atoms: C_12  and  N_26
REMARK    7  A    between atoms: C_13  and  N_17
REMARK    8  A    between atoms: N_17  and  C_18
REMARK    9  A    between atoms: C_18  and  C_19
REMARK                            x       y       z     vdW  Elec       q    Type
REMARK                         _______ _______ _______ _____ _____    ______ ____
ROOT
ATOM      1  N   UNL     1       1.633  -2.333  -2.511  0.00  0.00    -0.324 N 
ATOM      2  C   UNL     1       1.546  -3.639  -2.967  0.00  0.00    +0.155 A 
ATOM      3  C   UNL     1       2.182  -4.021  -4.144  0.00  0.00    +0.205 A 
ATOM      4  C   UNL     1       2.064  -5.344  -4.558  0.00  0.00    +0.155 A 
ATOM      5  N   UNL     1       1.351  -6.191  -3.818  0.00  0.00    -0.218 NA
ATOM      6  C   UNL     1       0.763  -5.792  -2.709  0.00  0.00    +0.225 A 
ATOM      7  N   UNL     1       0.856  -4.549  -2.281  0.00  0.00    -0.218 NA
ATOM      8  H   UNL     1       2.137  -1.676  -3.016  0.00  0.00    +0.148 HD
ENDROOT
BRANCH   1  12
ATOM      9  C   UNL     1      -0.019   1.542   0.011  0.00  0.00    -0.010 C 
ATOM     10  C   UNL     1       0.002  -0.004   0.002  0.00  0.00    -0.072 C 
ATOM     11  C   UNL     1       0.670  -0.443  -1.297  0.00  0.00    +0.009 C 
ATOM     12  C   UNL     1       0.963  -1.944  -1.265  0.00  0.00    +0.069 C 
ATOM     13  C   UNL     1       1.892  -2.223  -0.084  0.00  0.00    +0.009 C 
ATOM     14  C   UNL     1       1.233  -1.798   1.224  0.00  0.00    -0.072 C 
ATOM     15  N   UNL     1       0.711  -0.443   1.191  0.00  0.00    +0.386 N 
ATOM     16  C   UNL     1       2.314  -1.859   2.328  0.00  0.00    -0.010 C 
ATOM     17  C   UNL     1       0.143  -2.805   1.606  0.00  0.00    -0.010 C 
ATOM     18  C   UNL     1      -1.457  -0.473   0.018  0.00  0.00    -0.010 C 
ATOM     19  H   UNL     1       1.489   0.204   1.356  0.00  0.00    -0.084 HD
ATOM     20  H   UNL     1       0.093  -0.317   1.998  0.00  0.00    -0.084 HD
ENDBRANCH   1  12
BRANCH   3  21
ATOM     21  N   UNL     1       2.964  -3.044  -4.936  0.00  0.00    +0.063 N 
ATOM     22  O   UNL     1       4.143  -2.892  -4.714  0.00  0.00    -0.126 OA
ATOM     23  O   UNL     1       2.423  -2.398  -5.803  0.00  0.00    -0.126 OA
ENDBRANCH   3  21
BRANCH   4  24
ATOM     24  N   UNL     1       2.679  -5.773  -5.724  0.00  0.00    -0.323 N 
ATOM     25  H   UNL     1       3.196  -5.150  -6.258  0.00  0.00    +0.148 HD
BRANCH  24  26
ATOM     26  C   UNL     1       2.547  -7.169  -6.150  0.00  0.00    +0.139 C 
BRANCH  26  27
ATOM     27  C   UNL     1       3.304  -7.374  -7.438  0.00  0.00    -0.012 A 
ATOM     28  C   UNL     1       2.627  -7.384  -8.643  0.00  0.00    +0.006 A 
ATOM     29  C   UNL     1       3.320  -7.573  -9.824  0.00  0.00    +0.000 A 
ATOM     30  C   UNL     1       4.691  -7.751  -9.800  0.00  0.00    +0.001 A 
ATOM     31  C   UNL     1       5.369  -7.741  -8.596  0.00  0.00    +0.020 A 
ATOM     32  C   UNL     1       4.676  -7.546  -7.414  0.00  0.00    +0.046 A 
ATOM     33 CL   UNL     1       5.528  -7.527  -5.902  0.00  0.00    -0.083 Cl
ENDBRANCH  26  27
ENDBRANCH  24  26
ENDBRANCH   4  24
TORSDOF 5
