REMARK  Name = ZINC02965682
REMARK  2 active torsions:
REMARK  status: ('A' for Active; 'I' for Inactive)
REMARK    1  A    between atoms: C_6  and  N_7
REMARK    2  A    between atoms: C_13  and  C_15
REMARK                            x       y       z     vdW  Elec       q    Type
REMARK                         _______ _______ _______ _____ _____    ______ ____
ROOT
ATOM      1  C   UNL     1      -1.247   1.773   0.014  0.00  0.00    +0.054 A 
ATOM      2  C   UNL     1      -0.735   2.315   1.220  0.00  0.00    +0.018 A 
ATOM      3  C   UNL     1       0.438   2.993   1.202  0.00  0.00    +0.047 A 
ATOM      4  C   UNL     1       1.139   3.162  -0.017  0.00  0.00    +0.141 A 
ATOM      5  N   UNL     1       2.282   3.830   0.003  0.00  0.00    -0.229 NA
ATOM      6  C   UNL     1       3.008   4.032  -1.107  0.00  0.00    +0.079 A 
ATOM      7  C   UNL     1       4.216   4.740  -1.075  0.00  0.00    +0.030 A 
ATOM      8  C   UNL     1       4.922   4.924  -2.228  0.00  0.00    +0.022 A 
ATOM      9  C   UNL     1       4.461   4.420  -3.440  0.00  0.00    +0.042 A 
ATOM     10  C   UNL     1       3.285   3.725  -3.505  0.00  0.00    +0.035 A 
ATOM     11  C   UNL     1       2.542   3.520  -2.342  0.00  0.00    +0.067 A 
ATOM     12  C   UNL     1       1.275   2.784  -2.350  0.00  0.00    +0.266 A 
ATOM     13  O   UNL     1       0.825   2.321  -3.382  0.00  0.00    -0.267 OA
ATOM     14  N   UNL     1       0.621   2.634  -1.174  0.00  0.00    -0.267 N 
ATOM     15  C   UNL     1      -0.557   1.954  -1.161  0.00  0.00    +0.109 A 
ATOM     16 CL   UNL     1       5.388   4.676  -4.885  0.00  0.00    -0.084 Cl
ENDROOT
BRANCH   1  23
ATOM     17  N   UNL     1      -2.539  -2.993   0.687  0.00  0.00    -0.327 N 
ATOM     18  C   UNL     1      -3.760  -2.191   0.845  0.00  0.00    +0.124 C 
ATOM     19  C   UNL     1      -3.771  -1.071  -0.201  0.00  0.00    +0.127 C 
ATOM     20  N   UNL     1      -2.513  -0.317  -0.090  0.00  0.00    -0.295 N 
ATOM     21  C   UNL     1      -1.248  -1.067  -0.109  0.00  0.00    +0.127 C 
ATOM     22  C   UNL     1      -1.337  -2.187   0.939  0.00  0.00    +0.124 C 
ATOM     23  C   UNL     1      -2.520   1.026   0.019  0.00  0.00    +0.248 C 
ATOM     24  O   UNL     1      -3.574   1.623   0.122  0.00  0.00    -0.270 OA
BRANCH  17  30
ATOM     25  C   UNL     1      -3.662  -4.348   2.339  0.00  0.00    +0.026 A 
ATOM     26  C   UNL     1      -3.692  -5.465   3.151  0.00  0.00    +0.040 A 
ATOM     27  C   UNL     1      -2.629  -6.352   3.149  0.00  0.00    +0.124 A 
ATOM     28  C   UNL     1      -1.536  -6.125   2.329  0.00  0.00    +0.040 A 
ATOM     29  C   UNL     1      -1.504  -5.012   1.512  0.00  0.00    +0.026 A 
ATOM     30  C   UNL     1      -2.570  -4.120   1.513  0.00  0.00    +0.030 A 
ATOM     31  F   UNL     1      -2.659  -7.442   3.947  0.00  0.00    -0.205 F 
ENDBRANCH  17  30
ENDBRANCH   1  23
TORSDOF 2
