REMARK  Name = ZINC40150727
REMARK  6 active torsions:
REMARK  status: ('A' for Active; 'I' for Inactive)
REMARK    1  A    between atoms: C_1  and  C_2
REMARK    2  A    between atoms: C_15  and  C_17
REMARK    3  A    between atoms: C_20  and  S_23
REMARK    4  A    between atoms: S_23  and  N_26
REMARK    5  A    between atoms: C_28  and  C_35
REMARK    6  A    between atoms: C_31  and  C_34
REMARK                            x       y       z     vdW  Elec       q    Type
REMARK                         _______ _______ _______ _____ _____    ______ ____
ROOT
ATOM      1  C   UNL     1       3.360  -3.943   0.239  0.00  0.00    +0.037 A 
ATOM      2  C   UNL     1       2.708  -4.479   1.351  0.00  0.00    +0.015 A 
ATOM      3  C   UNL     1       3.399  -5.292   2.225  0.00  0.00    +0.029 A 
ATOM      4  C   UNL     1       4.734  -5.577   2.002  0.00  0.00    +0.106 A 
ATOM      5  C   UNL     1       5.386  -5.049   0.902  0.00  0.00    +0.029 A 
ATOM      6  C   UNL     1       4.705  -4.239   0.016  0.00  0.00    +0.015 A 
ENDROOT
BRANCH   1  20
ATOM      7  C   UNL     1       4.065  -2.344  -5.805  0.00  0.00    +0.019 C 
ATOM      8  C   UNL     1       4.128  -1.919  -4.336  0.00  0.00    +0.050 C 
ATOM      9  C   UNL     1       2.724  -1.919  -3.750  0.00  0.00    +0.033 C 
ATOM     10  C   UNL     1       2.593  -1.291  -2.388  0.00  0.00    +0.115 C 
ATOM     11  N   UNL     1       3.276  -2.090  -1.359  0.00  0.00    -0.266 N 
ATOM     12  C   UNL     1       4.619  -1.808  -1.079  0.00  0.00    +0.051 A 
ATOM     13  C   UNL     1       4.956  -1.171   0.110  0.00  0.00    +0.044 A 
ATOM     14  C   UNL     1       6.277  -0.850   0.366  0.00  0.00    +0.043 A 
ATOM     15  C   UNL     1       7.268  -1.151  -0.552  0.00  0.00    +0.021 A 
ATOM     16  C   UNL     1       6.944  -1.802  -1.732  0.00  0.00    +0.018 A 
ATOM     17  C   UNL     1       5.627  -2.142  -1.973  0.00  0.00    +0.030 A 
ATOM     18  S   UNL     1       5.183  -3.079  -3.418  0.00  0.00    -0.120 S 
ATOM     19 CL   UNL     1       6.696  -0.059   1.853  0.00  0.00    -0.083 Cl
ATOM     20  C   UNL     1       2.626  -3.071  -0.703  0.00  0.00    +0.251 C 
ATOM     21  O   UNL     1       1.435  -3.239  -0.884  0.00  0.00    -0.270 OA
ENDBRANCH   1  20
BRANCH   4  22
ATOM     22  S   UNL     1       5.609  -6.615   3.125  0.00  0.00    +0.061 S 
ATOM     23  O   UNL     1       6.986  -6.287   2.993  0.00  0.00    -0.153 OA
ATOM     24  O   UNL     1       4.924  -6.540   4.367  0.00  0.00    -0.153 OA
BRANCH  22  25
ATOM     25  N   UNL     1       5.440  -8.172   2.585  0.00  0.00    -0.172 NA
ATOM     26  C   UNL     1       4.314  -9.009   3.029  0.00  0.00    +0.140 C 
ATOM     27  C   UNL     1       4.874 -10.350   3.520  0.00  0.00    +0.131 C 
ATOM     28  O   UNL     1       5.719 -10.905   2.510  0.00  0.00    -0.371 OA
ATOM     29  C   UNL     1       6.867 -10.110   2.205  0.00  0.00    +0.131 C 
ATOM     30  C   UNL     1       6.407  -8.756   1.642  0.00  0.00    +0.140 C 
ATOM     31  C   UNL     1       7.726 -10.831   1.164  0.00  0.00    +0.039 C 
ATOM     32  C   UNL     1       3.719 -11.311   3.808  0.00  0.00    +0.039 C 
ENDBRANCH  22  25
ENDBRANCH   4  22
TORSDOF 3
