REMARK  Name = ZINC05889418
REMARK  9 active torsions:
REMARK  status: ('A' for Active; 'I' for Inactive)
REMARK    1  A    between atoms: C_8  and  C_10
REMARK    2  A    between atoms: C_10  and  C_11
REMARK    3  A    between atoms: C_11  and  C_20
REMARK    4  A    between atoms: N_12  and  N_13
REMARK    5  A    between atoms: C_14  and  C_16
REMARK    6  A    between atoms: N_18  and  N_19
REMARK    7  A    between atoms: C_20  and  C_21
REMARK    8  A    between atoms: C_21  and  C_22
REMARK    9  A    between atoms: N_24  and  C_25
REMARK                            x       y       z     vdW  Elec       q    Type
REMARK                         _______ _______ _______ _____ _____    ______ ____
ROOT
ATOM      1  C   UNL     1      -1.808   7.623  -1.367  0.00  0.00    +0.044 C 
ATOM      2  N   UNL     1      -1.661   6.701  -2.243  0.00  0.00    -0.188 NA
ENDROOT
BRANCH   2   3
ATOM      3  N   UNL     1      -1.518   5.367  -1.839  0.00  0.00    -0.199 N 
ATOM      4  C   UNL     1      -1.465   4.386  -2.761  0.00  0.00    +0.319 C 
ATOM      5  O   UNL     1      -1.450   4.663  -3.943  0.00  0.00    -0.263 OA
ATOM      6  H   UNL     1      -1.456   5.150  -0.895  0.00  0.00    +0.178 HD
BRANCH   4   7
ATOM      7  C   UNL     1      -1.425   2.957  -2.329  0.00  0.00    +0.314 C 
ATOM      8  O   UNL     1      -1.532   2.676  -1.153  0.00  0.00    -0.264 OA
ATOM      9  N   UNL     1      -1.270   1.980  -3.244  0.00  0.00    -0.246 N 
ATOM     10  H   UNL     1      -1.185   2.205  -4.184  0.00  0.00    +0.169 HD
BRANCH   9  11
ATOM     11  N   UNL     1      -1.233   0.673  -2.849  0.00  0.00    -0.254 NA
ATOM     12  H   UNL     1      -2.061   0.431  -2.325  0.00  0.00    +0.140 HD
ATOM     13  H   UNL     1      -1.113   0.059  -3.641  0.00  0.00    +0.140 HD
ENDBRANCH   9  11
ENDBRANCH   4   7
ENDBRANCH   2   3
BRANCH   1  14
ATOM     14  C   UNL     1      -1.716   7.290   0.100  0.00  0.00    +0.115 C 
BRANCH  14  22
ATOM     15  C   UNL     1      -6.686   3.939   1.568  0.00  0.00    +0.002 A 
ATOM     16  C   UNL     1      -7.349   5.031   2.110  0.00  0.00    +0.001 A 
ATOM     17  C   UNL     1      -6.734   6.269   2.107  0.00  0.00    +0.017 A 
ATOM     18  C   UNL     1      -5.472   6.393   1.577  0.00  0.00    +0.039 A 
ATOM     19  C   UNL     1      -4.774   5.298   1.018  0.00  0.00    +0.078 A 
ATOM     20  C   UNL     1      -5.440   4.052   1.036  0.00  0.00    +0.029 A 
ATOM     21  N   UNL     1      -3.549   5.601   0.539  0.00  0.00    -0.244 NA
ATOM     22  C   UNL     1      -3.057   6.807   0.590  0.00  0.00    +0.085 A 
ATOM     23  S   UNL     1      -4.316   7.722   1.359  0.00  0.00    -0.072 S 
ENDBRANCH  14  22
ENDBRANCH   1  14
BRANCH   1  24
ATOM     24  C   UNL     1      -2.074   9.041  -1.803  0.00  0.00    +0.062 C 
BRANCH  24  25
ATOM     25  C   UNL     1      -2.119   9.105  -3.331  0.00  0.00    +0.102 C 
BRANCH  25  26
ATOM     26  C   UNL     1      -2.385  10.523  -3.767  0.00  0.00    +0.218 C 
ATOM     27  O   UNL     1      -2.524  11.396  -2.937  0.00  0.00    -0.275 OA
ATOM     28  N   UNL     1      -2.467  10.820  -5.079  0.00  0.00    -0.285 N 
ATOM     29  H   UNL     1      -2.431  10.111  -5.740  0.00  0.00    +0.155 HD
BRANCH  28  30
ATOM     30  C   UNL     1      -2.605  12.152  -5.488  0.00  0.00    +0.033 A 
ATOM     31  C   UNL     1      -3.361  12.460  -6.611  0.00  0.00    +0.025 A 
ATOM     32  C   UNL     1      -3.499  13.775  -7.009  0.00  0.00    +0.022 A 
ATOM     33  C   UNL     1      -2.876  14.784  -6.296  0.00  0.00    +0.041 A 
ATOM     34  C   UNL     1      -2.118  14.479  -5.179  0.00  0.00    +0.022 A 
ATOM     35  C   UNL     1      -1.981  13.166  -4.774  0.00  0.00    +0.025 A 
ATOM     36 CL   UNL     1      -3.047  16.436  -6.802  0.00  0.00    -0.084 Cl
ENDBRANCH  28  30
ENDBRANCH  25  26
ENDBRANCH  24  25
ENDBRANCH   1  24
TORSDOF 9
