REMARK  Name = ZINC39699828
REMARK  6 active torsions:
REMARK  status: ('A' for Active; 'I' for Inactive)
REMARK    1  A    between atoms: C_1  and  C_2
REMARK    2  A    between atoms: C_2  and  C_3
REMARK    3  A    between atoms: C_3  and  C_4
REMARK    4  A    between atoms: C_8  and  C_18
REMARK    5  A    between atoms: C_14  and  C_16
REMARK    6  A    between atoms: C_14  and  C_17
REMARK                            x       y       z     vdW  Elec       q    Type
REMARK                         _______ _______ _______ _____ _____    ______ ____
ROOT
ATOM      1  C   UNL     1      -1.413  -2.041   0.005  0.00  0.00    +0.039 C 
ATOM      2  N   UNL     1      -0.252  -2.631  -0.004  0.00  0.00    -0.184 NA
ATOM      3  C   UNL     1      -0.117  -3.963  -0.013  0.00  0.00    +0.257 C 
ATOM      4  O   UNL     1       0.981  -4.482  -0.018  0.00  0.00    -0.272 OA
ATOM      5  C   UNL     1      -1.379  -4.803  -0.014  0.00  0.00    +0.205 C 
ATOM      6  C   UNL     1      -2.696  -4.051  -0.005  0.00  0.00    -0.034 C 
ATOM      7  C   UNL     1      -2.656  -2.715   0.013  0.00  0.00    -0.002 C 
ATOM      8  C   UNL     1      -3.921  -1.894   0.043  0.00  0.00    +0.197 C 
ATOM      9  O   UNL     1      -5.043  -2.693  -0.328  0.00  0.00    -0.369 OA
ATOM     10  C   UNL     1      -5.139  -3.911   0.419  0.00  0.00    +0.068 C 
ATOM     11  C   UNL     1      -3.985  -4.823  -0.016  0.00  0.00    +0.067 C 
ATOM     12  C   UNL     1      -6.474  -4.596   0.122  0.00  0.00    +0.041 C 
ATOM     13  C   UNL     1      -5.034  -3.608   1.915  0.00  0.00    +0.041 C 
ENDROOT
BRANCH   5  14
ATOM     14  C   UNL     1      -1.345  -5.676   1.171  0.00  0.00    +0.080 C 
ATOM     15  N   UNL     1      -1.320  -6.350   2.085  0.00  0.00    -0.195 NA
ENDBRANCH   5  14
BRANCH   1  16
ATOM     16  C   UNL     1      -1.433  -0.534   0.013  0.00  0.00    +0.053 C 
BRANCH  16  18
ATOM     17  C   UNL     1      -0.019   1.526   0.010  0.00  0.00    +0.004 C 
ATOM     18  C   UNL     1       0.002  -0.004   0.002  0.00  0.00    +0.003 C 
ENDBRANCH  16  18
ENDBRANCH   1  16
TORSDOF 3
