REMARK  Name = ZINC12907344
REMARK  3 active torsions:
REMARK  status: ('A' for Active; 'I' for Inactive)
REMARK    1  A    between atoms: C_8  and  C_11
REMARK    2  A    between atoms: N_16  and  S_19
REMARK    3  A    between atoms: S_19  and  C_22
REMARK                            x       y       z     vdW  Elec       q    Type
REMARK                         _______ _______ _______ _____ _____    ______ ____
ROOT
ATOM      1  C   UNL     1      -0.018   1.458   0.010  0.00  0.00    +0.246 C 
ATOM      2  O   UNL     1       1.095   1.951   0.010  0.00  0.00    -0.270 OA
ATOM      3  N   UNL     1      -1.107   2.252   0.024  0.00  0.00    -0.295 N 
ATOM      4  C   UNL     1      -2.453   1.673   0.128  0.00  0.00    +0.125 C 
ATOM      5  C   UNL     1      -3.165   2.312   1.333  0.00  0.00    +0.128 C 
ATOM      6  N   UNL     1      -3.027   3.772   1.239  0.00  0.00    -0.174 NA
ATOM      7  C   UNL     1      -1.680   4.350   1.130  0.00  0.00    +0.128 C 
ATOM      8  C   UNL     1      -0.969   3.712  -0.070  0.00  0.00    +0.125 C 
ENDROOT
BRANCH   1  16
ATOM      9  C   UNL     1      -0.911  -4.214  -2.194  0.00  0.00    +0.001 A 
ATOM     10  C   UNL     1      -1.010  -4.832  -0.958  0.00  0.00    +0.004 A 
ATOM     11  C   UNL     1      -0.961  -4.088   0.207  0.00  0.00    +0.046 A 
ATOM     12  C   UNL     1      -0.811  -2.715   0.141  0.00  0.00    +0.128 A 
ATOM     13  C   UNL     1      -0.709  -2.086  -1.112  0.00  0.00    +0.017 A 
ATOM     14  C   UNL     1      -0.761  -2.845  -2.280  0.00  0.00    +0.011 A 
ATOM     15  C   UNL     1      -0.552  -0.624  -1.151  0.00  0.00    +0.023 C 
ATOM     16  C   UNL     1      -0.173   0.004  -0.011  0.00  0.00    +0.052 C 
ATOM     17  C   UNL     1       0.080  -0.802   1.236  0.00  0.00    +0.269 C 
ATOM     18  O   UNL     1      -0.759  -1.957   1.264  0.00  0.00    -0.487 OA
ENDBRANCH   1  16
BRANCH   6  19
ATOM     19  S   UNL     1      -4.364   4.748   1.255  0.00  0.00    +0.062 S 
ATOM     20  O   UNL     1      -5.393   4.016   1.909  0.00  0.00    -0.153 OA
ATOM     21  O   UNL     1      -3.931   6.023   1.708  0.00  0.00    -0.153 OA
BRANCH  19  22
ATOM     22  C   UNL     1      -4.879   4.955  -0.417  0.00  0.00    +0.125 A 
ATOM     23  C   UNL     1      -6.096   4.451  -0.834  0.00  0.00    +0.050 A 
ATOM     24  C   UNL     1      -6.502   4.618  -2.145  0.00  0.00    +0.043 A 
ATOM     25  C   UNL     1      -5.685   5.281  -3.043  0.00  0.00    +0.021 A 
ATOM     26  C   UNL     1      -4.465   5.780  -2.629  0.00  0.00    +0.023 A 
ATOM     27  C   UNL     1      -4.061   5.617  -1.315  0.00  0.00    +0.067 A 
ATOM     28 CL   UNL     1      -2.529   6.245  -0.794  0.00  0.00    -0.082 Cl
ATOM     29 CL   UNL     1      -8.035   3.990  -2.667  0.00  0.00    -0.083 Cl
ENDBRANCH  19  22
ENDBRANCH   6  19
TORSDOF 3
