REMARK  Name = ZINC08835160
REMARK  9 active torsions:
REMARK  status: ('A' for Active; 'I' for Inactive)
REMARK    1  A    between atoms: C_1  and  C_2
REMARK    2  A    between atoms: C_5  and  C_11
REMARK    3  A    between atoms: C_7  and  N_8
REMARK    4  A    between atoms: N_13  and  C_14
REMARK    5  A    between atoms: C_14  and  N_16
REMARK    6  A    between atoms: N_16  and  C_17
REMARK    7  A    between atoms: C_19  and  C_33
REMARK    8  A    between atoms: C_20  and  O_32
REMARK    9  A    between atoms: C_21  and  C_23
REMARK                            x       y       z     vdW  Elec       q    Type
REMARK                         _______ _______ _______ _____ _____    ______ ____
ROOT
ATOM      1  N   UNL     1      -0.009   0.940   0.129  0.00  0.00    -0.297 N 
ATOM      2  H   UNL     1      -0.850   1.234   0.513  0.00  0.00    +0.154 HD
ENDROOT
BRANCH   1   3
ATOM      3  C   UNL     1       1.153   1.699   0.322  0.00  0.00    +0.034 A 
ATOM      4  C   UNL     1       1.118   3.078   0.150  0.00  0.00    +0.030 A 
ATOM      5  C   UNL     1       2.259   3.833   0.340  0.00  0.00    -0.007 A 
ATOM      6  C   UNL     1       3.447   3.219   0.703  0.00  0.00    +0.130 A 
ATOM      7  C   UNL     1       3.490   1.831   0.877  0.00  0.00    +0.051 A 
ATOM      8  C   UNL     1       2.333   1.074   0.690  0.00  0.00    +0.037 A 
ATOM      9  C   UNL     1       2.211   5.327   0.153  0.00  0.00    +0.047 C 
BRANCH   7  10
ATOM     10  C   UNL     1       4.754   1.170   1.262  0.00  0.00    +0.113 A 
ATOM     11  N   UNL     1       4.988  -0.108   1.470  0.00  0.00    -0.239 NA
ATOM     12  C   UNL     1       6.202  -0.575   1.820  0.00  0.00    +0.079 A 
ATOM     13  C   UNL     1       6.586  -1.914   2.071  0.00  0.00    +0.029 A 
ATOM     14  C   UNL     1       7.864  -2.219   2.418  0.00  0.00    +0.002 A 
ATOM     15  C   UNL     1       8.841  -1.240   2.540  0.00  0.00    +0.001 A 
ATOM     16  C   UNL     1       8.508   0.081   2.303  0.00  0.00    +0.017 A 
ATOM     17  C   UNL     1       7.220   0.400   1.952  0.00  0.00    +0.040 A 
ATOM     18  S   UNL     1       6.358   1.903   1.558  0.00  0.00    -0.067 S 
ENDBRANCH   7  10
BRANCH   6  19
ATOM     19  O   UNL     1       4.568   3.963   0.889  0.00  0.00    -0.506 OA
ATOM     20  H   UNL     1       4.685   4.279   1.795  0.00  0.00    +0.292 HD
ENDBRANCH   6  19
ENDBRANCH   1   3
BRANCH   1  21
ATOM     21  C   UNL     1       0.043  -0.201  -0.587  0.00  0.00    +0.141 C 
ATOM     22  S   UNL     1       1.543  -0.770  -1.183  0.00  0.00    -0.018 S 
BRANCH  21  25
ATOM     23  C   UNL     1      -1.036  -2.034  -1.548  0.00  0.00    +0.250 C 
ATOM     24  O   UNL     1       0.029  -2.439  -1.972  0.00  0.00    -0.270 OA
ATOM     25  N   UNL     1      -1.087  -0.893  -0.833  0.00  0.00    -0.264 N 
ATOM     26  H   UNL     1      -1.937  -0.571  -0.495  0.00  0.00    +0.157 HD
BRANCH  23  31
ATOM     27  C   UNL     1      -5.858  -4.992  -2.598  0.00  0.00    +0.046 C 
ATOM     28  C   UNL     1      -4.595  -4.217  -2.323  0.00  0.00    -0.020 A 
ATOM     29  C   UNL     1      -4.652  -3.046  -1.589  0.00  0.00    +0.006 A 
ATOM     30  C   UNL     1      -3.499  -2.335  -1.329  0.00  0.00    +0.013 A 
ATOM     31  C   UNL     1      -2.274  -2.794  -1.818  0.00  0.00    +0.039 A 
ATOM     32  C   UNL     1      -2.224  -3.976  -2.559  0.00  0.00    +0.046 A 
ATOM     33  C   UNL     1      -3.385  -4.680  -2.807  0.00  0.00    +0.130 A 
BRANCH  33  34
ATOM     34  N   UNL     1      -3.334  -5.934  -3.593  0.00  0.00    +0.057 N 
ATOM     35  O   UNL     1      -2.268  -6.345  -4.015  0.00  0.00    -0.126 OA
ATOM     36  O   UNL     1      -4.358  -6.554  -3.817  0.00  0.00    -0.126 OA
ENDBRANCH  33  34
ENDBRANCH  23  31
ENDBRANCH  21  25
ENDBRANCH   1  21
TORSDOF 7
