REMARK  Name = ZINC41663117
REMARK  5 active torsions:
REMARK  status: ('A' for Active; 'I' for Inactive)
REMARK    1  A    between atoms: C_1  and  N_2
REMARK    2  A    between atoms: N_2  and  C_3
REMARK    3  A    between atoms: N_2  and  C_4
REMARK    4  A    between atoms: C_7  and  C_10
REMARK    5  A    between atoms: N_22  and  C_25
REMARK                            x       y       z     vdW  Elec       q    Type
REMARK                         _______ _______ _______ _____ _____    ______ ____
ROOT
ATOM      1  C   UNL     1      -0.006  -2.788  -4.881  0.00  0.00    +0.058 C 
ATOM      2  C   UNL     1      -0.124  -2.108  -6.051  0.00  0.00    +0.176 C 
ATOM      3  C   UNL     1      -0.148  -0.647  -6.206  0.00  0.00    +0.231 C 
ATOM      4  O   UNL     1      -0.068   0.198  -5.331  0.00  0.00    -0.283 OA
ATOM      5  C   UNL     1      -0.289  -0.432  -7.658  0.00  0.00    +0.068 A 
ATOM      6  C   UNL     1      -0.373   0.713  -8.451  0.00  0.00    +0.019 A 
ATOM      7  C   UNL     1      -0.504   0.594  -9.804  0.00  0.00    +0.047 A 
ATOM      8  C   UNL     1      -0.553  -0.666 -10.400  0.00  0.00    +0.130 A 
ATOM      9  C   UNL     1      -0.469  -1.810  -9.625  0.00  0.00    +0.051 A 
ATOM     10  C   UNL     1      -0.338  -1.706  -8.244  0.00  0.00    +0.147 A 
ATOM     11  O   UNL     1      -0.235  -2.652  -7.286  0.00  0.00    -0.451 OA
ATOM     12  C   UNL     1      -0.513  -3.178 -10.257  0.00  0.00    +0.130 C 
ATOM     13  N   UNL     1      -1.057  -3.074 -11.619  0.00  0.00    -0.261 NA
ATOM     14  C   UNL     1      -0.368  -2.004 -12.359  0.00  0.00    +0.319 C 
ATOM     15  O   UNL     1      -0.686  -0.750 -11.750  0.00  0.00    -0.476 OA
ENDROOT
BRANCH  13  16
ATOM     16  C   UNL     1      -0.951  -4.356 -12.327  0.00  0.00    +0.083 C 
ATOM     17  C   UNL     1       0.530  -4.700 -12.560  0.00  0.00    +0.043 C 
ATOM     18  C   UNL     1       0.648  -5.866 -13.571  0.00  0.00    +0.167 C 
ATOM     19  S   UNL     1      -0.870  -5.671 -14.592  0.00  0.00    -0.029 S 
ATOM     20  O   UNL     1      -0.498  -5.259 -15.900  0.00  0.00    -0.174 OA
ATOM     21  O   UNL     1      -1.688  -6.821 -14.427  0.00  0.00    -0.174 OA
ATOM     22  C   UNL     1      -1.647  -4.250 -13.714  0.00  0.00    +0.184 C 
ENDBRANCH  13  16
BRANCH   1  26
ATOM     23  C   UNL     1      -0.211  -0.716  -1.199  0.00  0.00    +0.029 A 
ATOM     24  C   UNL     1       0.703  -1.754  -1.362  0.00  0.00    +0.023 A 
ATOM     25  C   UNL     1       0.773  -2.426  -2.549  0.00  0.00    +0.010 A 
ATOM     26  C   UNL     1      -0.078  -2.070  -3.604  0.00  0.00    -0.021 A 
ATOM     27  C   UNL     1      -0.996  -1.025  -3.436  0.00  0.00    +0.010 A 
ATOM     28  C   UNL     1      -1.062  -0.362  -2.244  0.00  0.00    +0.023 A 
BRANCH  23  30
ATOM     29  C   UNL     1      -1.243   1.054   0.187  0.00  0.00    +0.129 C 
ATOM     30  N   UNL     1      -0.278  -0.034   0.011  0.00  0.00    -0.336 N 
ATOM     31  C   UNL     1       0.616  -0.405   1.111  0.00  0.00    +0.129 C 
ENDBRANCH  23  30
ENDBRANCH   1  26
TORSDOF 3
