REMARK  Name = ZINC13318678
REMARK  9 active torsions:
REMARK  status: ('A' for Active; 'I' for Inactive)
REMARK    1  A    between atoms: C_1  and  C_2
REMARK    2  A    between atoms: C_5  and  N_9
REMARK    3  A    between atoms: C_6  and  C_8
REMARK    4  A    between atoms: C_10  and  S_14
REMARK    5  A    between atoms: S_14  and  C_15
REMARK    6  A    between atoms: C_15  and  C_16
REMARK    7  A    between atoms: N_18  and  C_19
REMARK    8  A    between atoms: C_21  and  C_27
REMARK    9  A    between atoms: C_23  and  C_25
REMARK                            x       y       z     vdW  Elec       q    Type
REMARK                         _______ _______ _______ _____ _____    ______ ____
ROOT
ATOM      1  C   UNL     1      -0.924  -0.199   0.440  0.00  0.00    +0.227 C 
ATOM      2  O   UNL     1      -1.280  -1.350   0.300  0.00  0.00    -0.275 OA
ATOM      3  N   UNL     1       0.357   0.076   0.753  0.00  0.00    -0.285 N 
ATOM      4  H   UNL     1       0.660   0.997   0.792  0.00  0.00    +0.155 HD
ENDROOT
BRANCH   3   5
ATOM      5  C   UNL     1       1.252  -0.966   1.022  0.00  0.00    +0.035 A 
ATOM      6  C   UNL     1       0.800  -2.124   1.637  0.00  0.00    +0.038 A 
ATOM      7  C   UNL     1       1.689  -3.168   1.902  0.00  0.00    +0.066 A 
ATOM      8  C   UNL     1       3.033  -3.041   1.558  0.00  0.00    +0.030 A 
ATOM      9  C   UNL     1       3.485  -1.874   0.945  0.00  0.00    +0.066 A 
ATOM     10  C   UNL     1       2.590  -0.836   0.678  0.00  0.00    +0.038 A 
BRANCH   9  11
ATOM     11  C   UNL     1       4.909  -1.735   0.577  0.00  0.00    +0.387 C 
ATOM     12  O   UNL     1       5.302  -0.717   0.042  0.00  0.00    -0.241 OA
ATOM     13  O   UNL     1       5.772  -2.736   0.835  0.00  0.00    -0.241 OA
ENDBRANCH   9  11
BRANCH   7  14
ATOM     14  C   UNL     1       1.205  -4.404   2.552  0.00  0.00    +0.387 C 
ATOM     15  O   UNL     1       0.034  -4.514   2.853  0.00  0.00    -0.241 OA
ATOM     16  O   UNL     1       2.064  -5.409   2.812  0.00  0.00    -0.241 OA
ENDBRANCH   7  14
ENDBRANCH   3   5
BRANCH   1  17
ATOM     17  C   UNL     1      -1.913   0.923   0.257  0.00  0.00    +0.173 C 
BRANCH  17  18
ATOM     18  S   UNL     1      -3.534   0.236  -0.163  0.00  0.00    -0.075 S 
BRANCH  18  20
ATOM     19  N   UNL     1      -5.783   1.821  -0.631  0.00  0.00    -0.187 N 
ATOM     20  C   UNL     1      -4.467   1.723  -0.315  0.00  0.00    +0.214 A 
ATOM     21  N   UNL     1      -4.018   2.948  -0.151  0.00  0.00    -0.101 NA
ATOM     22  N   UNL     1      -4.959   3.801  -0.335  0.00  0.00    -0.022 NA
ATOM     23  N   UNL     1      -6.061   3.199  -0.627  0.00  0.00    -0.038 NA
BRANCH  19  28
ATOM     24  C   UNL     1      -9.393  -2.421  -1.722  0.00  0.00    +0.044 C 
ATOM     25  C   UNL     1      -8.435  -1.295  -1.432  0.00  0.00    -0.050 A 
ATOM     26  C   UNL     1      -7.195  -1.269  -2.044  0.00  0.00    +0.005 A 
ATOM     27  C   UNL     1      -6.316  -0.235  -1.785  0.00  0.00    +0.028 A 
ATOM     28  C   UNL     1      -6.675   0.773  -0.900  0.00  0.00    +0.073 A 
ATOM     29  C   UNL     1      -7.920   0.745  -0.287  0.00  0.00    -0.025 A 
ATOM     30  C   UNL     1      -8.796  -0.289  -0.555  0.00  0.00    +0.008 A 
ATOM     31  C   UNL     1      -8.316   1.841   0.668  0.00  0.00    +0.046 C 
ENDBRANCH  19  28
ENDBRANCH  18  20
ENDBRANCH  17  18
ENDBRANCH   1  17
TORSDOF 7
