REMARK  Name = ZINC01139238
REMARK  4 active torsions:
REMARK  status: ('A' for Active; 'I' for Inactive)
REMARK    1  A    between atoms: C_1  and  C_2
REMARK    2  A    between atoms: C_3  and  C_17
REMARK    3  A    between atoms: C_4  and  C_10
REMARK    4  A    between atoms: N_19  and  C_20
REMARK                            x       y       z     vdW  Elec       q    Type
REMARK                         _______ _______ _______ _____ _____    ______ ____
ROOT
ATOM      1  C   UNL     1       3.102   8.550   0.719  0.00  0.00    +0.061 C 
ATOM      2  C   UNL     1       4.179   7.545   0.403  0.00  0.00    +0.017 C 
ATOM      3  C   UNL     1       3.879   6.229   0.399  0.00  0.00    +0.056 C 
ATOM      4  C   UNL     1       4.990   5.253   0.070  0.00  0.00    +0.139 C 
ATOM      5  N   UNL     1       6.317   5.824  -0.215  0.00  0.00    -0.315 N 
ATOM      6  C   UNL     1       6.463   7.162  -0.167  0.00  0.00    +0.135 C 
ATOM      7  S   UNL     1       8.001   7.840  -0.495  0.00  0.00    -0.019 S 
ATOM      8  N   UNL     1       5.445   7.980   0.131  0.00  0.00    -0.300 N 
ATOM      9  H   UNL     1       7.069   5.250  -0.433  0.00  0.00    +0.149 HD
ATOM     10  H   UNL     1       5.615   8.934   0.150  0.00  0.00    +0.154 HD
ENDROOT
BRANCH   4  11
ATOM     11  C   UNL     1       5.133   4.302   1.230  0.00  0.00    -0.023 A 
ATOM     12  C   UNL     1       5.673   4.744   2.423  0.00  0.00    +0.007 A 
ATOM     13  C   UNL     1       5.800   3.874   3.490  0.00  0.00    +0.015 A 
ATOM     14  C   UNL     1       5.395   2.558   3.360  0.00  0.00    +0.018 A 
ATOM     15  C   UNL     1       4.859   2.114   2.164  0.00  0.00    +0.015 A 
ATOM     16  C   UNL     1       4.728   2.987   1.100  0.00  0.00    +0.007 A 
ATOM     17 BR   UNL     1       5.575   1.365   4.816  0.00  0.00    -0.050 Br
ENDBRANCH   4  11
BRANCH   3  18
ATOM     18  C   UNL     1       2.568   5.776   0.687  0.00  0.00    +0.248 C 
ATOM     19  O   UNL     1       1.782   5.570  -0.220  0.00  0.00    -0.270 OA
ATOM     20  N   UNL     1       2.191   5.574   1.965  0.00  0.00    -0.282 N 
ATOM     21  H   UNL     1       2.771   5.850   2.691  0.00  0.00    +0.155 HD
BRANCH  20  22
ATOM     22  C   UNL     1       0.962   4.965   2.244  0.00  0.00    +0.037 A 
ATOM     23  C   UNL     1      -0.114   5.144   1.384  0.00  0.00    +0.026 A 
ATOM     24  C   UNL     1      -1.326   4.543   1.659  0.00  0.00    +0.043 A 
ATOM     25  C   UNL     1      -1.469   3.756   2.789  0.00  0.00    +0.159 A 
ATOM     26  C   UNL     1      -0.398   3.578   3.652  0.00  0.00    +0.160 A 
ATOM     27  C   UNL     1       0.817   4.179   3.379  0.00  0.00    +0.064 A 
ATOM     28  F   UNL     1      -0.540   2.814   4.757  0.00  0.00    -0.202 F 
ATOM     29  F   UNL     1      -2.654   3.163   3.054  0.00  0.00    -0.202 F 
ENDBRANCH  20  22
ENDBRANCH   3  18
TORSDOF 3
