REMARK  Name = ZINC50352690
REMARK  4 active torsions:
REMARK  status: ('A' for Active; 'I' for Inactive)
REMARK    1  A    between atoms: C_3  and  N_18
REMARK    2  A    between atoms: C_4  and  N_8
REMARK    3  A    between atoms: N_8  and  S_9
REMARK    4  A    between atoms: S_9  and  C_12
REMARK                            x       y       z     vdW  Elec       q    Type
REMARK                         _______ _______ _______ _____ _____    ______ ____
ROOT
ATOM      1  C   UNL     1       0.203   1.719   0.183  0.00  0.00    +0.003 A 
ATOM      2  C   UNL     1       1.445   2.312   0.045  0.00  0.00    +0.025 A 
ATOM      3  C   UNL     1       2.585   1.526  -0.028  0.00  0.00    +0.051 A 
ATOM      4  C   UNL     1       2.475   0.138   0.038  0.00  0.00    +0.113 A 
ATOM      5  C   UNL     1       1.226  -0.450   0.176  0.00  0.00    +0.067 A 
ATOM      6  C   UNL     1       0.094   0.342   0.248  0.00  0.00    +0.022 A 
ATOM      7 CL   UNL     1       1.084  -2.178   0.258  0.00  0.00    -0.081 Cl
ENDROOT
BRANCH   3   8
ATOM      8  N   UNL     1       3.842   2.125  -0.169  0.00  0.00    -0.356 N 
ATOM      9  H   UNL     1       3.917   3.091  -0.215  0.00  0.00    +0.142 HD
ATOM     10  H   UNL     1       4.639   1.574  -0.220  0.00  0.00    +0.142 HD
ENDBRANCH   3   8
BRANCH   4  11
ATOM     11  N   UNL     1       3.623  -0.662  -0.036  0.00  0.00    -0.094 NA
BRANCH  11  12
ATOM     12  S   UNL     1       4.062  -1.603   1.254  0.00  0.00    +0.098 S 
ATOM     13  O   UNL     1       4.142  -0.738   2.379  0.00  0.00    -0.148 OA
ATOM     14  O   UNL     1       3.217  -2.745   1.230  0.00  0.00    -0.148 OA
BRANCH  12  15
ATOM     15  C   UNL     1       5.698  -2.180   0.946  0.00  0.00    +0.149 A 
ATOM     16  C   UNL     1       6.881  -1.614   1.287  0.00  0.00    +0.038 A 
ATOM     17  C   UNL     1       8.056  -2.253   0.937  0.00  0.00    +0.030 A 
ATOM     18  C   UNL     1       7.989  -3.428   0.262  0.00  0.00    +0.080 A 
ATOM     19  S   UNL     1       6.226  -3.666   0.110  0.00  0.00    -0.057 S 
ATOM     20 CL   UNL     1       9.282  -4.440  -0.301  0.00  0.00    -0.076 Cl
ENDBRANCH  12  15
ENDBRANCH  11  12
ENDBRANCH   4  11
TORSDOF 4
