REMARK  Name = ZINC01859538
REMARK  5 active torsions:
REMARK  status: ('A' for Active; 'I' for Inactive)
REMARK    1  A    between atoms: C_4  and  N_7
REMARK    2  A    between atoms: C_15  and  C_19
REMARK    3  A    between atoms: C_15  and  N_23
REMARK    4  A    between atoms: N_23  and  S_24
REMARK    5  A    between atoms: S_24  and  C_27
REMARK                            x       y       z     vdW  Elec       q    Type
REMARK                         _______ _______ _______ _____ _____    ______ ____
ROOT
ATOM      1  N   UNL     1       3.623  -0.651  -0.037  0.00  0.00    -0.209 N 
ATOM      2  C   UNL     1       3.643  -2.031   0.054  0.00  0.00    +0.133 C 
ATOM      3  C   UNL     1       4.889  -2.675   0.034  0.00  0.00    +0.054 C 
ATOM      4  C   UNL     1       6.035  -1.953  -0.073  0.00  0.00    +0.250 C 
ATOM      5  N   UNL     1       5.965  -0.586  -0.160  0.00  0.00    -0.236 N 
ATOM      6  C   UNL     1       4.773   0.037  -0.147  0.00  0.00    +0.318 C 
ATOM      7  O   UNL     1       4.734   1.249  -0.231  0.00  0.00    -0.251 OA
ATOM      8  O   UNL     1       7.231  -2.576  -0.092  0.00  0.00    -0.270 OA
ATOM      9  C   UNL     1       4.582  -4.150   0.148  0.00  0.00    +0.119 C 
ATOM     10  C   UNL     1       3.067  -4.173   0.227  0.00  0.00    +0.235 C 
ATOM     11  O   UNL     1       2.363  -5.159   0.328  0.00  0.00    -0.275 OA
ATOM     12  N   UNL     1       2.658  -2.917   0.163  0.00  0.00    -0.165 NA
ATOM     13  H   UNL     1       6.780  -0.065  -0.236  0.00  0.00    +0.159 HD
ENDROOT
BRANCH   1  17
ATOM     14  C   UNL     1      -0.016   1.380   0.011  0.00  0.00    +0.000 A 
ATOM     15  C   UNL     1       0.648   1.126   1.197  0.00  0.00    +0.002 A 
ATOM     16  C   UNL     1       1.854   0.453   1.184  0.00  0.00    +0.024 A 
ATOM     17  C   UNL     1       2.400   0.031  -0.021  0.00  0.00    +0.044 A 
ATOM     18  C   UNL     1       1.730   0.287  -1.210  0.00  0.00    +0.024 A 
ATOM     19  C   UNL     1       0.524   0.961  -1.191  0.00  0.00    +0.002 A 
ENDBRANCH   1  17
BRANCH   9  20
ATOM     20  C   UNL     1       5.072  -4.904  -1.091  0.00  0.00    +0.388 C 
ATOM     21  F   UNL     1       6.455  -4.739  -1.220  0.00  0.00    -0.172 F 
ATOM     22  F   UNL     1       4.774  -6.264  -0.957  0.00  0.00    -0.172 F 
ATOM     23  F   UNL     1       4.433  -4.396  -2.228  0.00  0.00    -0.172 F 
ENDBRANCH   9  20
BRANCH   9  24
ATOM     24  N   UNL     1       5.173  -4.711   1.365  0.00  0.00    +0.492 NA
BRANCH  24  25
ATOM     25  S   UNL     1       4.977  -6.317   1.718  0.00  0.00    -0.058 S 
ATOM     26  O   UNL     1       3.592  -6.510   1.972  0.00  0.00    -0.191 OA
ATOM     27  O   UNL     1       5.676  -7.041   0.715  0.00  0.00    -0.191 OA
BRANCH  25  28
ATOM     28  C   UNL     1       5.815  -6.623   3.237  0.00  0.00    +0.066 A 
ATOM     29  C   UNL     1       7.147  -6.993   3.229  0.00  0.00    +0.026 A 
ATOM     30  C   UNL     1       7.805  -7.233   4.421  0.00  0.00    +0.022 A 
ATOM     31  C   UNL     1       7.130  -7.104   5.622  0.00  0.00    +0.041 A 
ATOM     32  C   UNL     1       5.797  -6.734   5.629  0.00  0.00    +0.022 A 
ATOM     33  C   UNL     1       5.142  -6.488   4.437  0.00  0.00    +0.026 A 
ATOM     34 CL   UNL     1       7.956  -7.406   7.119  0.00  0.00    -0.084 Cl
ENDBRANCH  25  28
ENDBRANCH  24  25
ENDBRANCH   9  24
TORSDOF 5
