REMARK  Name = ZINC38905739
REMARK  10 active torsions:
REMARK  status: ('A' for Active; 'I' for Inactive)
REMARK    1  A    between atoms: C_1  and  C_2
REMARK    2  A    between atoms: C_7  and  O_8
REMARK    3  A    between atoms: O_8  and  C_9
REMARK    4  A    between atoms: C_9  and  C_10
REMARK    5  A    between atoms: C_10  and  C_12
REMARK    6  A    between atoms: C_10  and  N_13
REMARK    7  A    between atoms: C_14  and  C_16
REMARK    8  A    between atoms: N_21  and  C_23
REMARK    9  A    between atoms: C_23  and  C_24
REMARK   10  A    between atoms: C_26  and  C_29
REMARK                            x       y       z     vdW  Elec       q    Type
REMARK                         _______ _______ _______ _____ _____    ______ ____
ROOT
ATOM      1  C   UNL     1      -2.971   2.083   6.069  0.00  0.00    +0.058 C 
ATOM      2  C   UNL     1      -4.109   1.194   5.559  0.00  0.00    +0.009 C 
ATOM      3  C   UNL     1      -5.433   1.952   5.688  0.00  0.00    -0.018 C 
ATOM      4  C   UNL     1      -5.635   2.372   7.145  0.00  0.00    -0.078 C 
ATOM      5  N   UNL     1      -4.529   3.241   7.565  0.00  0.00    +0.386 N 
ATOM      6  C   UNL     1      -3.263   2.499   7.513  0.00  0.00    -0.065 C 
ATOM      7  H   UNL     1      -4.475   4.038   6.948  0.00  0.00    -0.081 HD
ENDROOT
BRANCH   1   9
ATOM      8  N   UNL     1      -1.214   0.848   4.843  0.00  0.00    -0.309 N 
ATOM      9  C   UNL     1      -1.674   1.318   6.019  0.00  0.00    +0.215 C 
ATOM     10  O   UNL     1      -1.043   1.126   7.037  0.00  0.00    -0.276 OA
ATOM     11  H   UNL     1      -1.719   1.001   4.028  0.00  0.00    +0.149 HD
BRANCH   8  12
ATOM     12  C   UNL     1       0.047   0.104   4.793  0.00  0.00    +0.107 C 
ATOM     13  C   UNL     1       1.215   1.087   4.689  0.00  0.00    +0.031 C 
BRANCH  12  14
ATOM     14  C   UNL     1       0.048  -0.820   3.574  0.00  0.00    +0.251 C 
BRANCH  14  15
ATOM     15  O   UNL     1       0.025  -0.033   2.381  0.00  0.00    -0.490 OA
BRANCH  15  22
ATOM     16  C   UNL     1      -0.018   1.503   0.010  0.00  0.00    +0.047 C 
ATOM     17  C   UNL     1       0.002  -0.004   0.002  0.00  0.00    -0.009 A 
ATOM     18  C   UNL     1       0.006  -0.689  -1.198  0.00  0.00    +0.007 A 
ATOM     19  C   UNL     1       0.024  -2.071  -1.206  0.00  0.00    +0.000 A 
ATOM     20  C   UNL     1       0.039  -2.772  -0.014  0.00  0.00    +0.004 A 
ATOM     21  C   UNL     1       0.036  -2.092   1.188  0.00  0.00    +0.046 A 
ATOM     22  C   UNL     1       0.023  -0.705   1.199  0.00  0.00    +0.123 A 
ENDBRANCH  15  22
ENDBRANCH  14  15
ENDBRANCH  12  14
ENDBRANCH   8  12
ENDBRANCH   1   9
BRANCH   5  23
ATOM     23  C   UNL     1      -4.766   3.704   8.939  0.00  0.00    +0.022 C 
BRANCH  23  24
ATOM     24  C   UNL     1      -5.994   4.578   8.969  0.00  0.00    +0.211 A 
ATOM     25  N   UNL     1      -7.214   4.169   9.173  0.00  0.00    -0.193 NA
ATOM     26  C   UNL     1      -8.062   5.213   9.135  0.00  0.00    +0.202 A 
ATOM     27  N   UNL     1      -7.373   6.303   8.903  0.00  0.00    -0.056 NA
ATOM     28  O   UNL     1      -6.014   5.906   8.798  0.00  0.00    -0.340 OA
BRANCH  26  29
ATOM     29  C   UNL     1      -9.532   5.141   9.322  0.00  0.00    +0.023 A 
ATOM     30  C   UNL     1     -10.146   3.915   9.568  0.00  0.00    +0.013 A 
ATOM     31  C   UNL     1     -11.514   3.853   9.742  0.00  0.00    +0.016 A 
ATOM     32  C   UNL     1     -12.275   5.007   9.672  0.00  0.00    +0.018 A 
ATOM     33  C   UNL     1     -11.670   6.228   9.428  0.00  0.00    +0.016 A 
ATOM     34  C   UNL     1     -10.302   6.301   9.259  0.00  0.00    +0.013 A 
ATOM     35 BR   UNL     1     -14.149   4.916   9.911  0.00  0.00    -0.050 Br
ENDBRANCH  26  29
ENDBRANCH  23  24
ENDBRANCH   5  23
TORSDOF 8
