REMARK  Name = ZINC09296888
REMARK  6 active torsions:
REMARK  status: ('A' for Active; 'I' for Inactive)
REMARK    1  A    between atoms: C_1  and  C_2
REMARK    2  A    between atoms: C_2  and  O_3
REMARK    3  A    between atoms: O_3  and  C_4
REMARK    4  A    between atoms: C_7  and  N_10
REMARK    5  A    between atoms: C_13  and  C_24
REMARK    6  A    between atoms: C_15  and  C_17
REMARK                            x       y       z     vdW  Elec       q    Type
REMARK                         _______ _______ _______ _____ _____    ______ ____
ROOT
ATOM      1  N   UNL     1       3.520  -5.023  -0.059  0.00  0.00    -0.245 N 
ATOM      2  C   UNL     1       2.485  -4.105  -0.045  0.00  0.00    +0.170 A 
ATOM      3  C   UNL     1       1.289  -4.847  -0.038  0.00  0.00    +0.117 A 
ATOM      4  C   UNL     1       0.076  -4.158  -0.022  0.00  0.00    +0.154 A 
ATOM      5  N   UNL     1       0.100  -2.824  -0.010  0.00  0.00    -0.220 NA
ATOM      6  C   UNL     1       1.246  -2.164  -0.022  0.00  0.00    +0.163 A 
ATOM      7  N   UNL     1       2.421  -2.785  -0.036  0.00  0.00    -0.208 NA
ATOM      8  N   UNL     1       1.646  -6.183  -0.049  0.00  0.00    -0.303 N 
ATOM      9  H   UNL     1       1.034  -6.935  -0.047  0.00  0.00    +0.171 HD
ATOM     10  C   UNL     1       2.991  -6.261  -0.062  0.00  0.00    +0.333 A 
ATOM     11  O   UNL     1       3.632  -7.295  -0.074  0.00  0.00    -0.246 OA
ENDROOT
BRANCH   6  12
ATOM     12  C   UNL     1       1.220  -0.681  -0.013  0.00  0.00    +0.020 A 
ATOM     13  C   UNL     1       2.413   0.040  -0.021  0.00  0.00    +0.011 A 
ATOM     14  C   UNL     1       2.382   1.419  -0.013  0.00  0.00    +0.002 A 
ATOM     15  C   UNL     1       1.171   2.087   0.002  0.00  0.00    +0.015 A 
ATOM     16  C   UNL     1      -0.017   1.377   0.010  0.00  0.00    +0.019 A 
ATOM     17  C   UNL     1       0.002  -0.004   0.002  0.00  0.00    +0.027 A 
ATOM     18 BR   UNL     1      -1.668   2.299   0.022  0.00  0.00    -0.050 Br
ENDBRANCH   6  12
BRANCH   1  22
ATOM     19  C   UNL     1       7.590  -4.108  -0.095  0.00  0.00    +0.121 A 
ATOM     20  C   UNL     1       7.177  -5.432  -0.097  0.00  0.00    +0.047 A 
ATOM     21  C   UNL     1       5.830  -5.736  -0.086  0.00  0.00    +0.030 A 
ATOM     22  C   UNL     1       4.889  -4.715  -0.071  0.00  0.00    +0.053 A 
ATOM     23  C   UNL     1       5.303  -3.390  -0.073  0.00  0.00    +0.030 A 
ATOM     24  C   UNL     1       6.650  -3.088  -0.080  0.00  0.00    +0.047 A 
BRANCH  19  25
ATOM     25  O   UNL     1       8.916  -3.810  -0.106  0.00  0.00    -0.492 OA
BRANCH  25  27
ATOM     26  C   UNL     1      10.794  -2.288  -0.118  0.00  0.00    +0.048 C 
ATOM     27  C   UNL     1       9.270  -2.425  -0.103  0.00  0.00    +0.225 C 
ENDBRANCH  25  27
ENDBRANCH  19  25
ENDBRANCH   1  22
BRANCH   4  28
ATOM     28  C   UNL     1      -1.211  -4.891  -0.014  0.00  0.00    +0.262 C 
ATOM     29  O   UNL     1      -1.217  -6.107  -0.021  0.00  0.00    -0.269 OA
ATOM     30  N   UNL     1      -2.374  -4.211   0.001  0.00  0.00    -0.324 N 
ATOM     31  H   UNL     1      -2.369  -3.241   0.007  0.00  0.00    +0.145 HD
ATOM     32  H   UNL     1      -3.217  -4.692   0.006  0.00  0.00    +0.145 HD
ENDBRANCH   4  28
TORSDOF 5
