REMARK  Name = ZINC40333768
REMARK  4 active torsions:
REMARK  status: ('A' for Active; 'I' for Inactive)
REMARK    1  A    between atoms: C_3  and  C_7
REMARK    2  A    between atoms: N_12  and  S_13
REMARK    3  A    between atoms: S_13  and  C_16
REMARK    4  A    between atoms: C_19  and  N_22
REMARK                            x       y       z     vdW  Elec       q    Type
REMARK                         _______ _______ _______ _____ _____    ______ ____
ROOT
ATOM      1  S   UNL     1       3.854  -1.115   2.083  0.00  0.00    +0.061 S 
ATOM      2  O   UNL     1       4.910  -2.017   2.383  0.00  0.00    -0.153 OA
ATOM      3  O   UNL     1       3.589   0.037   2.871  0.00  0.00    -0.153 OA
ENDROOT
BRANCH   1   4
ATOM      4  C   UNL     1       2.371  -2.064   2.064  0.00  0.00    +0.106 A 
ATOM      5  C   UNL     1       1.153  -1.447   2.286  0.00  0.00    +0.030 A 
ATOM      6  C   UNL     1      -0.012  -2.188   2.272  0.00  0.00    +0.024 A 
ATOM      7  C   UNL     1       0.040  -3.556   2.034  0.00  0.00    +0.025 A 
ATOM      8  C   UNL     1       1.265  -4.173   1.812  0.00  0.00    +0.024 A 
ATOM      9  C   UNL     1       2.425  -3.425   1.822  0.00  0.00    +0.030 A 
BRANCH   7  10
ATOM     10  N   UNL     1      -1.136  -4.309   2.020  0.00  0.00    -0.358 N 
ATOM     11  H   UNL     1      -1.990  -3.877   2.176  0.00  0.00    +0.142 HD
ATOM     12  H   UNL     1      -1.099  -5.264   1.854  0.00  0.00    +0.142 HD
ENDBRANCH   7  10
ENDBRANCH   1   4
BRANCH   1  17
ATOM     13  C   UNL     1       3.614   0.681  -0.029  0.00  0.00    +0.126 C 
ATOM     14  C   UNL     1       4.125   0.769  -1.483  0.00  0.00    +0.028 C 
ATOM     15  C   UNL     1       5.354  -0.179  -1.477  0.00  0.00    +0.019 C 
ATOM     16  C   UNL     1       4.885  -1.290  -0.505  0.00  0.00    +0.110 C 
ATOM     17  N   UNL     1       4.114  -0.581   0.537  0.00  0.00    -0.168 NA
BRANCH  13  20
ATOM     18  C   UNL     1      -0.016   1.344   0.009  0.00  0.00    +0.019 A 
ATOM     19  C   UNL     1       1.322   1.784  -0.001  0.00  0.00    +0.024 A 
ATOM     20  C   UNL     1       2.107   0.688  -0.014  0.00  0.00    +0.035 A 
ATOM     21  N   UNL     1       1.303  -0.413  -0.013  0.00  0.00    -0.363 N 
ATOM     22  H   UNL     1       1.606  -1.334  -0.021  0.00  0.00    +0.165 HD
ATOM     23  C   UNL     1       0.002  -0.004   0.002  0.00  0.00    +0.083 A 
ENDBRANCH  13  20
ENDBRANCH   1  17
TORSDOF 4
