REMARK  Name = ZINC36094569
REMARK  10 active torsions:
REMARK  status: ('A' for Active; 'I' for Inactive)
REMARK    1  A    between atoms: C_4  and  S_7
REMARK    2  A    between atoms: S_7  and  N_10
REMARK    3  A    between atoms: N_10  and  C_11
REMARK    4  A    between atoms: N_10  and  C_28
REMARK    5  A    between atoms: C_11  and  C_12
REMARK    6  A    between atoms: C_17  and  O_18
REMARK    7  A    between atoms: O_18  and  C_19
REMARK    8  A    between atoms: C_19  and  C_20
REMARK    9  A    between atoms: C_22  and  C_25
REMARK   10  A    between atoms: C_25  and  O_26
REMARK                            x       y       z     vdW  Elec       q    Type
REMARK                         _______ _______ _______ _____ _____    ______ ____
ROOT
ATOM      1  C   UNK     1       4.665  -3.291   1.747  0.00  0.00    +0.011 A 
ATOM      2  C   UNK     1       5.889  -3.002   1.176  0.00  0.00    +0.028 A 
ATOM      3  C   UNK     1       6.797  -4.017   0.931  0.00  0.00    +0.042 A 
ATOM      4  C   UNK     1       6.480  -5.324   1.258  0.00  0.00    +0.023 A 
ATOM      5  C   UNK     1       5.257  -5.617   1.828  0.00  0.00    +0.047 A 
ATOM      6  C   UNK     1       4.348  -4.600   2.080  0.00  0.00    +0.126 A 
ATOM      7 CL   UNK     1       8.334  -3.650   0.213  0.00  0.00    -0.084 Cl
ENDROOT
BRANCH   1   8
ATOM      8  C   UNK     1       3.676  -2.185   2.013  0.00  0.00    +0.148 C 
BRANCH   8   9
ATOM      9  N   UNK     1       4.207  -0.921   1.495  0.00  0.00    -0.169 NA
BRANCH   9  10
ATOM     10  S   UNK     1       3.797  -0.413  -0.026  0.00  0.00    +0.061 S 
ATOM     11  O   UNK     1       3.433  -1.575  -0.759  0.00  0.00    -0.153 OA
ATOM     12  O   UNK     1       4.830   0.465  -0.454  0.00  0.00    -0.153 OA
BRANCH  10  16
ATOM     13  C   UNK     1       0.049   2.097   0.363  0.00  0.00    +0.000 A 
ATOM     14  C   UNK     1       1.293   2.693   0.451  0.00  0.00    +0.002 A 
ATOM     15  C   UNK     1       2.438   1.927   0.333  0.00  0.00    +0.028 A 
ATOM     16  C   UNK     1       2.338   0.564   0.126  0.00  0.00    +0.105 A 
ATOM     17  C   UNK     1       1.094  -0.033   0.039  0.00  0.00    +0.028 A 
ATOM     18  C   UNK     1      -0.050   0.733   0.156  0.00  0.00    +0.002 A 
ENDBRANCH  10  16
ENDBRANCH   9  10
BRANCH   9  19
ATOM     19  C   UNK     1       5.100  -0.108   2.324  0.00  0.00    +0.080 C 
ATOM     20  C   UNK     1       5.671  -0.751   3.589  0.00  0.00    +0.022 C 
ATOM     21  C   UNK     1       4.589   0.324   3.700  0.00  0.00    +0.022 C 
ENDBRANCH   9  19
ENDBRANCH   8   9
ENDBRANCH   1   8
BRANCH   6  22
ATOM     22  O   UNK     1       3.146  -4.886   2.647  0.00  0.00    -0.485 OA
BRANCH  22  23
ATOM     23  C   UNK     1       2.835  -6.266   2.845  0.00  0.00    +0.291 C 
BRANCH  23  24
ATOM     24  C   UNK     1       1.428  -6.393   3.370  0.00  0.00    +0.116 A 
ATOM     25  N   UNK     1       0.325  -6.609   2.698  0.00  0.00    -0.243 NA
ATOM     26  C   UNK     1      -0.842  -6.696   3.305  0.00  0.00    +0.074 A 
ATOM     27  C   UNK     1      -0.846  -6.552   4.655  0.00  0.00    +0.072 A 
ATOM     28  S   UNK     1       0.894  -6.299   4.964  0.00  0.00    -0.077 S 
BRANCH  26  29
ATOM     29  C   UNK     1      -2.114  -6.944   2.535  0.00  0.00    +0.211 C 
BRANCH  29  30
ATOM     30  O   UNK     1      -3.218  -6.990   3.441  0.00  0.00    -0.389 OA
ATOM     31  H   UNK     1      -4.071  -7.147   3.014  0.00  0.00    +0.210 HD
ENDBRANCH  29  30
ENDBRANCH  26  29
ENDBRANCH  23  24
ENDBRANCH  22  23
ENDBRANCH   6  22
TORSDOF 10
