REMARK  Name = ZINC04722782
REMARK  8 active torsions:
REMARK  status: ('A' for Active; 'I' for Inactive)
REMARK    1  A    between atoms: C_3  and  C_8
REMARK    2  A    between atoms: C_8  and  S_9
REMARK    3  A    between atoms: S_9  and  C_10
REMARK    4  A    between atoms: N_17  and  C1*_20
REMARK    5  A    between atoms: C2*_22  and  O2*_32
REMARK    6  A    between atoms: C3*_24  and  O3*_31
REMARK    7  A    between atoms: C4*_26  and  C5*_29
REMARK    8  A    between atoms: C5*_29  and  O5*_30
REMARK                            x       y       z     vdW  Elec       q    Type
REMARK                         _______ _______ _______ _____ _____    ______ ____
ROOT
ATOM      1  C   UNL     1       0.122   0.990  -2.724  0.00  0.00    +0.130 A 
ATOM      2  C   UNL     1      -0.185   1.192  -4.081  0.00  0.00    +0.140 A 
ATOM      3  C   UNL     1       0.657   0.619  -5.047  0.00  0.00    +0.169 A 
ATOM      4  N   UNL     1       1.703  -0.100  -4.650  0.00  0.00    -0.195 NA
ATOM      5  C   UNL     1       1.954  -0.270  -3.362  0.00  0.00    +0.216 A 
ATOM      6  N   UNL     1       1.188   0.258  -2.416  0.00  0.00    -0.206 NA
ATOM      7  N   UNL     1       3.054  -1.024  -2.989  0.00  0.00    -0.327 N 
ATOM      8  N   UNL     1       0.135   0.976  -6.265  0.00  0.00    -0.285 N 
ATOM      9  C   UNL     1      -0.972   1.737  -6.027  0.00  0.00    +0.203 A 
ATOM     10  N   UNL     1      -1.156   1.866  -4.746  0.00  0.00    -0.231 NA
ATOM     11  H   UNL     1       3.253  -1.159  -2.049  0.00  0.00    +0.145 HD
ATOM     12  H   UNL     1       3.625  -1.418  -3.667  0.00  0.00    +0.145 HD
ENDROOT
BRANCH   8  13
ATOM     13  C1* UNL     1       0.669   0.607  -7.578  0.00  0.00    +0.253 C 
ATOM     14  C2* UNL     1       1.742   1.627  -8.037  0.00  0.00    +0.195 C 
ATOM     15  C3* UNL     1       1.694   1.473  -9.579  0.00  0.00    +0.178 C 
ATOM     16  C4* UNL     1       0.316   0.841  -9.855  0.00  0.00    +0.177 C 
ATOM     17  O4* UNL     1      -0.355   0.711  -8.590  0.00  0.00    -0.346 OA
BRANCH  15  18
ATOM     18  O3* UNL     1       1.796   2.748 -10.215  0.00  0.00    -0.386 OA
ATOM     19  H3* UNL     1       1.716   2.716 -11.178  0.00  0.00    +0.210 HD
ENDBRANCH  15  18
BRANCH  14  20
ATOM     20  O2* UNL     1       3.030   1.278  -7.526  0.00  0.00    -0.385 OA
ATOM     21  H2* UNL     1       3.735   1.886  -7.787  0.00  0.00    +0.210 HD
ENDBRANCH  14  20
BRANCH  16  22
ATOM     22  C5* UNL     1      -0.497   1.744 -10.785  0.00  0.00    +0.190 C 
BRANCH  22  23
ATOM     23  O5* UNL     1      -1.730   1.101 -11.114  0.00  0.00    -0.392 OA
ATOM     24  H5* UNL     1      -2.297   1.618 -11.703  0.00  0.00    +0.210 HD
ENDBRANCH  22  23
ENDBRANCH  16  22
ENDBRANCH   8  13
BRANCH   1  25
ATOM     25  S   UNL     1      -0.888   1.685  -1.458  0.00  0.00    -0.099 S 
BRANCH  25  26
ATOM     26  C   UNL     1      -0.013   1.086   0.008  0.00  0.00    +0.111 C 
BRANCH  26  29
ATOM     27  C   UNL     1      -1.010   3.227   2.953  0.00  0.00    +0.001 A 
ATOM     28  C   UNL     1      -0.360   2.779   1.819  0.00  0.00    +0.004 A 
ATOM     29  C   UNL     1      -0.718   1.572   1.248  0.00  0.00    -0.036 A 
ATOM     30  C   UNL     1      -1.719   0.808   1.818  0.00  0.00    +0.019 A 
ATOM     31  C   UNL     1      -2.366   1.254   2.956  0.00  0.00    +0.018 A 
ATOM     32  C   UNL     1      -2.011   2.464   3.524  0.00  0.00    +0.015 A 
ATOM     33 BR   UNL     1      -3.736   0.209   3.736  0.00  0.00    -0.050 Br
ENDBRANCH  26  29
ENDBRANCH  25  26
ENDBRANCH   1  25
TORSDOF 8
