REMARK  Name = ZINC08729145
REMARK  12 active torsions:
REMARK  status: ('A' for Active; 'I' for Inactive)
REMARK    1  A    between atoms: C_1  and  C_2
REMARK    2  A    between atoms: C_2  and  C_4
REMARK    3  A    between atoms: C_2  and  N_12
REMARK    4  A    between atoms: C_13  and  C_15
REMARK    5  A    between atoms: C_15  and  C_17
REMARK    6  A    between atoms: C_15  and  N_54
REMARK    7  A    between atoms: C_18  and  N_54
REMARK    8  A    between atoms: C_19  and  C_20
REMARK    9  A    between atoms: C_19  and  N_54
REMARK   10  A    between atoms: N_22  and  C_23
REMARK   11  A    between atoms: C_26  and  O_29
REMARK   12  A    between atoms: O_29  and  C_30
REMARK                            x       y       z     vdW  Elec       q    Type
REMARK                         _______ _______ _______ _____ _____    ______ ____
ROOT
ATOM      1  C   UNL     1       3.876  -6.174  -0.253  0.00  0.00    +0.016 C 
ATOM      2  C   UNL     1       3.262  -6.817  -1.499  0.00  0.00    -0.004 C 
ENDROOT
BRANCH   1   4
ATOM      3  N   UNL     1       5.626  -7.905  -0.006  0.00  0.00    -0.310 N 
ATOM      4  C   UNL     1       5.316  -6.599  -0.127  0.00  0.00    +0.200 C 
ATOM      5  O   UNL     1       6.197  -5.765  -0.135  0.00  0.00    -0.278 OA
ATOM      6  H   UNL     1       4.921  -8.572   0.000  0.00  0.00    +0.149 HD
BRANCH   3   8
ATOM      7  C   UNL     1       7.642  -8.452  -1.278  0.00  0.00    +0.033 C 
ATOM      8  C   UNL     1       7.026  -8.317   0.117  0.00  0.00    +0.101 C 
BRANCH   8   9
ATOM      9  C   UNL     1       7.098  -9.644   0.828  0.00  0.00    -0.009 A 
ATOM     10  C   UNL     1       6.016 -10.504   0.799  0.00  0.00    +0.008 A 
ATOM     11  C   UNL     1       6.084 -11.723   1.446  0.00  0.00    +0.020 A 
ATOM     12  C   UNL     1       7.231 -12.079   2.133  0.00  0.00    +0.042 A 
ATOM     13  C   UNL     1       8.312 -11.217   2.167  0.00  0.00    +0.040 A 
ATOM     14  C   UNL     1       8.246  -9.999   1.514  0.00  0.00    +0.047 A 
ATOM     15 CL   UNL     1       9.602  -8.916   1.556  0.00  0.00    -0.083 Cl
ATOM     16 CL   UNL     1       7.314 -13.608   2.951  0.00  0.00    -0.083 Cl
ENDBRANCH   8   9
ENDBRANCH   3   8
ENDBRANCH   1   4
BRANCH   1  18
ATOM     17  C   UNL     1       4.415  -4.255  -1.627  0.00  0.00    -0.094 C 
ATOM     18  N   UNL     1       3.819  -4.700  -0.350  0.00  0.00    +0.391 N 
ATOM     19  H   UNL     1       4.354  -4.295   0.427  0.00  0.00    -0.080 HD
BRANCH  18  20
ATOM     20  C   UNL     1       2.417  -4.241  -0.258  0.00  0.00    +0.020 C 
BRANCH  20  21
ATOM     21  C   UNL     1       2.405  -2.739  -0.137  0.00  0.00    +0.201 C 
ATOM     22  O   UNL     1       3.449  -2.122  -0.144  0.00  0.00    -0.278 OA
ATOM     23  N   UNL     1       1.234  -2.083  -0.020  0.00  0.00    -0.287 N 
ATOM     24  H   UNL     1       0.404  -2.580   0.053  0.00  0.00    +0.155 HD
BRANCH  23  25
ATOM     25  C   UNL     1       1.215  -0.682  -0.005  0.00  0.00    +0.034 A 
ATOM     26  C   UNL     1       0.161   0.005  -0.594  0.00  0.00    +0.027 A 
ATOM     27  C   UNL     1       0.143   1.386  -0.578  0.00  0.00    +0.047 A 
ATOM     28  C   UNL     1       1.177   2.087   0.025  0.00  0.00    +0.120 A 
ATOM     29  C   UNL     1       2.230   1.401   0.614  0.00  0.00    +0.047 A 
ATOM     30  C   UNL     1       2.249   0.021   0.599  0.00  0.00    +0.027 A 
BRANCH  28  31
ATOM     31  O   UNL     1       1.158   3.446   0.040  0.00  0.00    -0.495 OA
ATOM     32  C   UNL     1       2.255   4.103   0.679  0.00  0.00    +0.277 C 
ENDBRANCH  28  31
ENDBRANCH  23  25
ENDBRANCH  20  21
ENDBRANCH  18  20
ENDBRANCH   1  18
TORSDOF 8
