REMARK  Name = ZINC38903826
REMARK  13 active torsions:
REMARK  status: ('A' for Active; 'I' for Inactive)
REMARK    1  A    between atoms: C_1  and  C_2
REMARK    2  A    between atoms: C_2  and  C_41
REMARK    3  A    between atoms: C_4  and  N_15
REMARK    4  A    between atoms: C_8  and  O_13
REMARK    5  A    between atoms: O_13  and  C_14
REMARK    6  A    between atoms: C_16  and  C_18
REMARK    7  A    between atoms: N_23  and  C_25
REMARK    8  A    between atoms: C_25  and  C_26
REMARK    9  A    between atoms: C_28  and  C_31
REMARK   10  A    between atoms: C_34  and  C_37
REMARK   11  A    between atoms: C_37  and  C_38
REMARK   12  A    between atoms: C_37  and  C_39
REMARK   13  A    between atoms: C_37  and  C_40
REMARK                            x       y       z     vdW  Elec       q    Type
REMARK                         _______ _______ _______ _____ _____    ______ ____
ROOT
ATOM      1  C   UNL     1       4.842  -0.551  -3.883  0.00  0.00    +0.058 C 
ATOM      2  C   UNL     1       5.488  -1.800  -3.277  0.00  0.00    +0.009 C 
ATOM      3  C   UNL     1       6.410  -2.442  -4.317  0.00  0.00    -0.018 C 
ATOM      4  C   UNL     1       7.449  -1.415  -4.773  0.00  0.00    -0.078 C 
ATOM      5  N   UNL     1       6.770  -0.257  -5.367  0.00  0.00    +0.386 N 
ATOM      6  C   UNL     1       5.938   0.407  -4.356  0.00  0.00    -0.065 C 
ATOM      7  H   UNL     1       6.187  -0.566  -6.130  0.00  0.00    -0.081 HD
ENDROOT
BRANCH   1   9
ATOM      8  N   UNL     1       2.959  -0.526  -2.280  0.00  0.00    -0.308 N 
ATOM      9  C   UNL     1       3.992   0.132  -2.843  0.00  0.00    +0.215 C 
ATOM     10  O   UNL     1       4.237   1.272  -2.512  0.00  0.00    -0.276 OA
ATOM     11  H   UNL     1       2.762  -1.438  -2.544  0.00  0.00    +0.149 HD
BRANCH   8  15
ATOM     12  C   UNL     1      -0.019   1.526   0.010  0.00  0.00    +0.055 C 
ATOM     13  C   UNL     1       0.002  -0.004   0.002  0.00  0.00    +0.107 C 
ATOM     14  C   UNL     1       0.743  -0.504  -1.245  0.00  0.00    +0.074 C 
ATOM     15  C   UNL     1       2.132   0.138  -1.268  0.00  0.00    +0.111 C 
ATOM     16  C   UNL     1       2.782  -0.009   0.085  0.00  0.00    +0.018 A 
ATOM     17  C   UNL     1       4.154   0.155   0.185  0.00  0.00    +0.054 A 
ATOM     18  C   UNL     1       4.784   0.031   1.412  0.00  0.00    +0.121 A 
ATOM     19  C   UNL     1       4.038  -0.259   2.546  0.00  0.00    +0.049 A 
ATOM     20  C   UNL     1       2.672  -0.423   2.446  0.00  0.00    +0.049 A 
ATOM     21  C   UNL     1       2.038  -0.301   1.214  0.00  0.00    +0.126 A 
ATOM     22  O   UNL     1       0.692  -0.482   1.157  0.00  0.00    -0.486 OA
ATOM     23  C   UNL     1      -1.431  -0.539  -0.000  0.00  0.00    +0.055 C 
BRANCH  18  24
ATOM     24  O   UNL     1       6.131   0.192   1.506  0.00  0.00    -0.495 OA
ATOM     25  C   UNL     1       6.713   0.049   2.803  0.00  0.00    +0.277 C 
ENDBRANCH  18  24
ENDBRANCH   8  15
ENDBRANCH   1   9
BRANCH   5  26
ATOM     26  C   UNL     1       7.772   0.691  -5.872  0.00  0.00    +0.022 C 
BRANCH  26  27
ATOM     27  C   UNL     1       8.540   0.054  -7.003  0.00  0.00    +0.211 A 
ATOM     28  N   UNL     1       8.225   0.115  -8.265  0.00  0.00    -0.193 NA
ATOM     29  C   UNL     1       9.127  -0.563  -8.997  0.00  0.00    +0.202 A 
ATOM     30  N   UNL     1      10.030  -1.063  -8.191  0.00  0.00    -0.056 NA
ATOM     31  O   UNL     1       9.663  -0.664  -6.879  0.00  0.00    -0.340 OA
BRANCH  29  32
ATOM     32  C   UNL     1       9.102  -0.719 -10.473  0.00  0.00    +0.022 A 
ATOM     33  C   UNL     1       8.084  -0.131 -11.222  0.00  0.00    +0.012 A 
ATOM     34  C   UNL     1       8.066  -0.280 -12.594  0.00  0.00    +0.005 A 
ATOM     35  C   UNL     1       9.056  -1.011 -13.226  0.00  0.00    -0.042 A 
ATOM     36  C   UNL     1      10.068  -1.597 -12.488  0.00  0.00    +0.005 A 
ATOM     37  C   UNL     1      10.100  -1.450 -11.116  0.00  0.00    +0.012 A 
BRANCH  35  38
ATOM     38  C   UNL     1       9.030  -1.170 -14.724  0.00  0.00    -0.013 C 
ATOM     39  C   UNL     1       9.107   0.207 -15.385  0.00  0.00    +0.015 C 
ATOM     40  C   UNL     1      10.225  -2.016 -15.168  0.00  0.00    +0.015 C 
ATOM     41  C   UNL     1       7.732  -1.864 -15.141  0.00  0.00    +0.015 C 
ENDBRANCH  35  38
ENDBRANCH  29  32
ENDBRANCH  26  27
ENDBRANCH   5  26
TORSDOF 7
