REMARK  Name = ZINC08837736
REMARK  5 active torsions:
REMARK  status: ('A' for Active; 'I' for Inactive)
REMARK    1  A    between atoms: C_1  and  C_2
REMARK    2  A    between atoms: C_6  and  C_9
REMARK    3  A    between atoms: C_7  and  O_8
REMARK    4  A    between atoms: C_20  and  N_42
REMARK    5  A    between atoms: C_21  and  O_23
REMARK                            x       y       z     vdW  Elec       q    Type
REMARK                         _______ _______ _______ _____ _____    ______ ____
ROOT
ATOM      1  C   UNL     1       1.170   2.148   0.002  0.00  0.00    +0.227 C 
ATOM      2  N   UNL     1       2.326   1.472   0.621  0.00  0.00    -0.313 N 
ATOM      3  C   UNL     1       2.431   0.120   0.403  0.00  0.00    +0.080 A 
ATOM      4  C   UNL     1       1.322  -0.679   0.096  0.00  0.00    +0.067 A 
ATOM      5  C   UNL     1       1.595  -2.091  -0.098  0.00  0.00    -0.027 A 
ATOM      6  C   UNL     1       2.891  -2.462   0.037  0.00  0.00    -0.021 A 
ATOM      7  S   UNL     1       3.756  -0.963   0.419  0.00  0.00    -0.080 S 
ATOM      8  C   UNL     1       3.441  -3.845  -0.109  0.00  0.00    -0.036 C 
ATOM      9  C   UNL     1       1.246  -4.374  -0.987  0.00  0.00    -0.074 C 
ATOM     10  C   UNL     1       0.537  -3.134  -0.436  0.00  0.00    +0.018 C 
ATOM     11  C   UNL     1       2.764  -6.160  -0.377  0.00  0.00    -0.096 C 
ATOM     12  C   UNL     1       0.002  -0.004   0.002  0.00  0.00    +0.220 C 
ATOM     13  N   UNL     1      -0.016   1.300   0.009  0.00  0.00    -0.223 NA
ATOM     14  H   UNL     1       2.977   1.957   1.153  0.00  0.00    +0.149 HD
ATOM     15  N   UNL     1       2.303  -4.795  -0.045  0.00  0.00    +0.381 N 
ATOM     16  H   UNL     1       1.920  -4.794   0.908  0.00  0.00    -0.082 HD
ENDROOT
BRANCH   1  22
ATOM     17  C   UNL     1      -0.278   3.242  -4.671  0.00  0.00    +0.047 C 
ATOM     18  C   UNL     1       0.819   3.026  -3.660  0.00  0.00    -0.008 A 
ATOM     19  C   UNL     1       2.141   3.155  -4.038  0.00  0.00    +0.021 A 
ATOM     20  C   UNL     1       3.148   2.958  -3.110  0.00  0.00    +0.014 A 
ATOM     21  C   UNL     1       2.833   2.632  -1.803  0.00  0.00    +0.025 A 
ATOM     22  C   UNL     1       1.512   2.503  -1.422  0.00  0.00    +0.037 A 
ATOM     23  C   UNL     1       0.501   2.695  -2.352  0.00  0.00    +0.127 A 
ATOM     24  I   UNL     1       5.153   3.153  -3.686  0.00  0.00    -0.044 I 
BRANCH  23  25
ATOM     25  O   UNL     1      -0.800   2.564  -1.979  0.00  0.00    -0.506 OA
ATOM     26  H   UNL     1      -1.204   3.384  -1.664  0.00  0.00    +0.292 HD
ENDBRANCH  23  25
ENDBRANCH   1  22
BRANCH  12  27
ATOM     27  O   UNL     1      -1.144  -0.718  -0.088  0.00  0.00    -0.492 OA
ATOM     28  H   UNL     1      -1.942  -0.175  -0.144  0.00  0.00    +0.294 HD
ENDBRANCH  12  27
TORSDOF 3
