REMARK  Name = ZINC51075514
REMARK  3 active torsions:
REMARK  status: ('A' for Active; 'I' for Inactive)
REMARK    1  A    between atoms: C_1  and  C_2
REMARK    2  A    between atoms: CA_3  and  C_14
REMARK    3  A    between atoms: C_5  and  C_7
REMARK                            x       y       z     vdW  Elec       q    Type
REMARK                         _______ _______ _______ _____ _____    ______ ____
ROOT
ATOM      1  C   UNL     1      -0.018   1.503   0.010  0.00  0.00    +0.089 C 
ATOM      2  C   UNL     1       0.002  -0.004   0.002  0.00  0.00    +0.137 A 
ATOM      3  CA  UNL     1      -1.085  -0.830   0.003  0.00  0.00    +0.193 A 
ATOM      4  N   UNL     1      -0.619  -2.107  -0.007  0.00  0.00    -0.202 NA
ATOM      5  C   UNL     1       0.689  -2.070  -0.012  0.00  0.00    +0.229 A 
ATOM      6  O   UNL     1       1.092  -0.786  -0.013  0.00  0.00    -0.440 OA
ENDROOT
BRANCH   5   7
ATOM      7  C   UNL     1       1.580  -3.249  -0.023  0.00  0.00    +0.050 A 
ATOM      8  C   UNL     1       2.966  -3.080  -0.022  0.00  0.00    +0.014 A 
ATOM      9  C   UNL     1       3.792  -4.185  -0.031  0.00  0.00    +0.001 A 
ATOM     10  C   UNL     1       3.250  -5.458  -0.041  0.00  0.00    +0.001 A 
ATOM     11  C   UNL     1       1.878  -5.633  -0.043  0.00  0.00    +0.015 A 
ATOM     12  C   UNL     1       1.040  -4.536  -0.028  0.00  0.00    +0.026 A 
ATOM     13  I   UNL     1      -1.038  -4.803  -0.021  0.00  0.00    -0.043 I 
ENDBRANCH   5   7
BRANCH   3  14
ATOM     14  C   UNL     1      -2.495  -0.415   0.012  0.00  0.00    +0.408 C 
ATOM     15  O   UNL     1      -2.784   0.774   0.020  0.00  0.00    -0.239 OA
ATOM     16  OXT UNL     1      -3.381  -1.259   0.011  0.00  0.00    -0.239 OA
ENDBRANCH   3  14
TORSDOF 2
