REMARK  Name = ZINC21319428
REMARK  10 active torsions:
REMARK  status: ('A' for Active; 'I' for Inactive)
REMARK    1  A    between atoms: C_1  and  C_2
REMARK    2  A    between atoms: C_2  and  C_4
REMARK    3  A    between atoms: C_2  and  N_10
REMARK    4  A    between atoms: C_11  and  C_13
REMARK    5  A    between atoms: C_13  and  S_14
REMARK    6  A    between atoms: S_14  and  C_15
REMARK    7  A    between atoms: N_19  and  N_20
REMARK    8  A    between atoms: N_21  and  N_22
REMARK    9  A    between atoms: C_23  and  C_24
REMARK   10  A    between atoms: C_29  and  O_30
REMARK                            x       y       z     vdW  Elec       q    Type
REMARK                         _______ _______ _______ _____ _____    ______ ____
ROOT
ATOM      1  C   UNL     1      -2.079   1.760  -1.031  0.00  0.00    +0.210 A 
ATOM      2  N   UNL     1      -2.411   2.210  -2.218  0.00  0.00    -0.119 NA
ATOM      3  N   UNL     1      -1.257   2.229  -3.011  0.00  0.00    -0.109 NA
ATOM      4  C   UNL     1      -0.257   1.797  -2.282  0.00  0.00    +0.254 A 
ATOM      5  N   UNL     1      -0.741   1.490  -1.041  0.00  0.00    -0.211 N 
ATOM      6  N   UNL     1       1.060   1.669  -2.699  0.00  0.00    -0.204 N 
ATOM      7  H   UNL     1       1.823   1.291  -2.002  0.00  0.00    +0.177 HD
ENDROOT
BRANCH   5   8
ATOM      8  N   UNL     1      -0.012   1.005   0.008  0.00  0.00    -0.294 N 
ATOM      9  H   UNL     1       1.067   0.823  -0.110  0.00  0.00    +0.163 HD
ATOM     10  H   UNL     1      -0.503   0.796   0.969  0.00  0.00    +0.163 HD
ENDBRANCH   5   8
BRANCH   6  11
ATOM     11  N   UNL     1       1.419   2.022  -4.006  0.00  0.00    -0.187 NA
ATOM     12  C   UNL     1       2.652   1.902  -4.396  0.00  0.00    +0.142 C 
BRANCH  12  13
ATOM     13  C   UNL     1       3.030   2.274  -5.771  0.00  0.00    +0.037 A 
ATOM     14  C   UNL     1       4.355   2.146  -6.194  0.00  0.00    +0.028 A 
ATOM     15  C   UNL     1       4.701   2.495  -7.484  0.00  0.00    +0.019 A 
ATOM     16  C   UNL     1       3.740   2.971  -8.360  0.00  0.00    +0.019 A 
ATOM     17  C   UNL     1       2.425   3.102  -7.952  0.00  0.00    +0.047 A 
ATOM     18  C   UNL     1       2.060   2.751  -6.663  0.00  0.00    +0.126 A 
ATOM     19 BR   UNL     1       6.495   2.324  -8.056  0.00  0.00    -0.050 Br
BRANCH  18  20
ATOM     20  O   UNL     1       0.767   2.873  -6.264  0.00  0.00    -0.506 OA
ATOM     21  H   UNL     1       0.008   3.248  -6.966  0.00  0.00    +0.292 HD
ENDBRANCH  18  20
ENDBRANCH  12  13
ENDBRANCH   6  11
BRANCH   1  22
ATOM     22  S   UNL     1      -3.170   1.543   0.336  0.00  0.00    -0.075 S 
BRANCH  22  23
ATOM     23  C   UNL     1      -4.783   2.076  -0.300  0.00  0.00    +0.173 C 
BRANCH  23  25
ATOM     24  N   UNL     1      -7.101   2.280   0.538  0.00  0.00    -0.308 N 
ATOM     25  C   UNL     1      -5.820   1.940   0.784  0.00  0.00    +0.224 C 
ATOM     26  O   UNL     1      -5.503   1.523   1.878  0.00  0.00    -0.275 OA
ATOM     27  H   UNL     1      -7.389   2.658  -0.454  0.00  0.00    +0.149 HD
BRANCH  24  29
ATOM     28  C   UNL     1      -8.647   0.714   1.606  0.00  0.00    +0.033 C 
ATOM     29  C   UNL     1      -8.110   2.147   1.592  0.00  0.00    +0.100 C 
BRANCH  29  30
ATOM     30  C   UNL     1      -9.242   3.105   1.328  0.00  0.00    -0.027 A 
ATOM     31  C   UNL     1      -9.692   3.304   0.036  0.00  0.00    +0.005 A 
ATOM     32  C   UNL     1     -10.734   4.180  -0.206  0.00  0.00    +0.000 A 
ATOM     33  C   UNL     1     -11.319   4.864   0.843  0.00  0.00    +0.000 A 
ATOM     34  C   UNL     1     -10.866   4.669   2.134  0.00  0.00    +0.000 A 
ATOM     35  C   UNL     1      -9.827   3.790   2.377  0.00  0.00    +0.005 A 
ENDBRANCH  29  30
ENDBRANCH  24  29
ENDBRANCH  23  25
ENDBRANCH  22  23
ENDBRANCH   1  22
TORSDOF 9
