REMARK  Name = ZINC18137783
REMARK  4 active torsions:
REMARK  status: ('A' for Active; 'I' for Inactive)
REMARK    1  A    between atoms: C_1  and  C_2
REMARK    2  A    between atoms: C_6  and  N_9
REMARK    3  A    between atoms: C_7  and  C_8
REMARK    4  A    between atoms: C_14  and  C_32
REMARK                            x       y       z     vdW  Elec       q    Type
REMARK                         _______ _______ _______ _____ _____    ______ ____
ROOT
ATOM      1  N   UNL     1      -0.388  -2.765   2.380  0.00  0.00    -0.209 N 
ATOM      2  C   UNL     1      -1.608  -3.054   2.848  0.00  0.00    +0.233 C 
ATOM      3  O   UNL     1      -2.653  -2.762   2.308  0.00  0.00    -0.274 OA
ATOM      4  C   UNL     1      -1.480  -3.804   4.155  0.00  0.00    +0.125 C 
ATOM      5  C   UNL     1      -1.973  -2.900   5.307  0.00  0.00    +0.164 C 
ATOM      6  O   UNL     1      -0.963  -3.016   6.334  0.00  0.00    -0.348 OA
ATOM      7  C   UNL     1       0.289  -3.028   5.631  0.00  0.00    +0.206 C 
ATOM      8  C   UNL     1       0.059  -3.898   4.364  0.00  0.00    +0.138 C 
ATOM      9  C   UNL     1       0.619  -3.195   3.149  0.00  0.00    +0.234 C 
ATOM     10  O   UNL     1       1.797  -3.042   2.909  0.00  0.00    -0.274 OA
ATOM     11  C   UNL     1       0.721  -1.634   5.268  0.00  0.00    +0.204 C 
ATOM     12  O   UNL     1       0.105  -0.843   4.587  0.00  0.00    -0.288 OA
ATOM     13  C   UNL     1       2.037  -1.413   5.899  0.00  0.00    +0.031 A 
ATOM     14  C   UNL     1       2.877  -0.298   5.886  0.00  0.00    +0.012 A 
ATOM     15  C   UNL     1       4.082  -0.330   6.562  0.00  0.00    +0.001 A 
ATOM     16  C   UNL     1       4.465  -1.465   7.256  0.00  0.00    +0.001 A 
ATOM     17  C   UNL     1       3.648  -2.578   7.283  0.00  0.00    +0.012 A 
ATOM     18  C   UNL     1       2.426  -2.567   6.607  0.00  0.00    +0.031 A 
ATOM     19  C   UNL     1       1.385  -3.605   6.482  0.00  0.00    +0.204 C 
ATOM     20  O   UNL     1       1.409  -4.714   6.973  0.00  0.00    -0.288 OA
ENDROOT
BRANCH   1  26
ATOM     21  C   UNL     1       0.402  -2.848  -2.474  0.00  0.00    +0.044 C 
ATOM     22  C   UNL     1       0.203  -2.088  -1.188  0.00  0.00    -0.046 A 
ATOM     23  C   UNL     1       0.224  -0.705  -1.192  0.00  0.00    +0.004 A 
ATOM     24  C   UNL     1       0.042  -0.004  -0.014  0.00  0.00    +0.002 A 
ATOM     25  C   UNL     1      -0.161  -0.684   1.171  0.00  0.00    +0.024 A 
ATOM     26  C   UNL     1      -0.183  -2.072   1.179  0.00  0.00    +0.047 A 
ATOM     27  C   UNL     1      -0.005  -2.773  -0.007  0.00  0.00    -0.026 A 
ATOM     28  C   UNL     1      -0.034  -4.279  -0.004  0.00  0.00    +0.046 C 
ENDBRANCH   1  26
BRANCH   5  29
ATOM     29  C   UNL     1      -3.304  -3.386   5.821  0.00  0.00    +0.000 A 
ATOM     30  C   UNL     1      -3.356  -4.226   6.918  0.00  0.00    +0.007 A 
ATOM     31  C   UNL     1      -4.576  -4.672   7.390  0.00  0.00    +0.000 A 
ATOM     32  C   UNL     1      -5.745  -4.279   6.765  0.00  0.00    +0.001 A 
ATOM     33  C   UNL     1      -5.694  -3.440   5.668  0.00  0.00    +0.020 A 
ATOM     34  C   UNL     1      -4.473  -2.988   5.199  0.00  0.00    +0.047 A 
ATOM     35 CL   UNL     1      -4.409  -1.929   3.825  0.00  0.00    -0.083 Cl
ENDBRANCH   5  29
TORSDOF 2
