REMARK  Name = ZINC39545817
REMARK  4 active torsions:
REMARK  status: ('A' for Active; 'I' for Inactive)
REMARK    1  A    between atoms: C_4  and  O_7
REMARK    2  A    between atoms: O_7  and  S_8
REMARK    3  A    between atoms: S_8  and  N_11
REMARK    4  A    between atoms: C_12  and  C_14
REMARK                            x       y       z     vdW  Elec       q    Type
REMARK                         _______ _______ _______ _____ _____    ______ ____
ROOT
ATOM      1  C   UNL     1       2.823  -4.606   2.304  0.00  0.00    +0.152 C 
ATOM      2  C   UNL     1       2.824  -4.563   3.844  0.00  0.00    +0.081 C 
ATOM      3  C   UNL     1       3.444  -5.881   4.250  0.00  0.00    +0.055 C 
ATOM      4  C   UNL     1       3.756  -6.563   3.178  0.00  0.00    +0.090 C 
ATOM      5  N   UNL     1       4.320  -7.854   3.151  0.00  0.00    -0.303 N 
ATOM      6  C   UNL     1       3.862  -8.678   2.109  0.00  0.00    +0.037 A 
ATOM      7  C   UNL     1       4.261 -10.005   2.052  0.00  0.00    +0.023 A 
ATOM      8  C   UNL     1       3.819 -10.812   1.021  0.00  0.00    +0.002 A 
ATOM      9  C   UNL     1       2.980 -10.292   0.052  0.00  0.00    +0.000 A 
ATOM     10  C   UNL     1       2.579  -8.971   0.111  0.00  0.00    +0.007 A 
ATOM     11  C   UNL     1       3.013  -8.155   1.143  0.00  0.00    -0.010 A 
ATOM     12  C   UNL     1       2.539  -6.727   1.194  0.00  0.00    +0.124 C 
ATOM     13  N   UNL     1       3.453  -5.896   1.979  0.00  0.00    -0.369 NA
ATOM     14 CL   UNL     1       3.701  -6.408   5.884  0.00  0.00    -0.085 Cl
ATOM     15  H   UNL     1       4.974  -8.152   3.803  0.00  0.00    +0.153 HD
ATOM     16  H   UNL     1       4.300  -5.738   1.454  0.00  0.00    +0.129 HD
ENDROOT
BRANCH   1  18
ATOM     17  N   UNL     1       3.249  -2.193   1.963  0.00  0.00    -0.072 N 
ATOM     18  C   UNL     1       3.634  -3.466   1.743  0.00  0.00    +0.266 C 
ATOM     19  O   UNL     1       4.633  -3.694   1.094  0.00  0.00    -0.271 OA
ATOM     20 BR   UNL     1       1.726  -1.845   2.953  0.00  0.00    +0.067 Br
BRANCH  17  21
ATOM     21  S   UNL     1       4.140  -0.941   1.346  0.00  0.00    +0.222 S 
ATOM     22  O   UNL     1       5.458  -1.436   1.154  0.00  0.00    -0.114 OA
ATOM     23  O   UNL     1       3.863   0.192   2.158  0.00  0.00    -0.114 OA
BRANCH  21  24
ATOM     24  O   UNL     1       3.586  -0.632  -0.037  0.00  0.00    -0.331 OA
BRANCH  24  28
ATOM     25  C   UNL     1      -0.017   1.378   0.010  0.00  0.00    +0.000 A 
ATOM     26  C   UNL     1       1.170   2.088   0.002  0.00  0.00    +0.004 A 
ATOM     27  C   UNL     1       2.377   1.417  -0.013  0.00  0.00    +0.048 A 
ATOM     28  C   UNL     1       2.399   0.030  -0.021  0.00  0.00    +0.158 A 
ATOM     29  C   UNL     1       1.207  -0.680  -0.013  0.00  0.00    +0.048 A 
ATOM     30  C   UNL     1       0.002  -0.004   0.002  0.00  0.00    +0.004 A 
ENDBRANCH  24  28
ENDBRANCH  21  24
ENDBRANCH  17  21
ENDBRANCH   1  18
TORSDOF 4
