REMARK  Name = ZINC29799553
REMARK  3 active torsions:
REMARK  status: ('A' for Active; 'I' for Inactive)
REMARK    1  A    between atoms: C_3  and  C_18
REMARK    2  A    between atoms: C_5  and  N_7
REMARK    3  A    between atoms: C_8  and  C_10
REMARK                            x       y       z     vdW  Elec       q    Type
REMARK                         _______ _______ _______ _____ _____    ______ ____
ROOT
ATOM      1  C   UNL     1       1.293   7.713   0.313  0.00  0.00    +0.002 A 
ATOM      2  C   UNL     1       2.507   8.371   0.298  0.00  0.00    +0.010 A 
ATOM      3  C   UNL     1       3.693   7.644   0.184  0.00  0.00    +0.002 A 
ATOM      4  C   UNL     1       3.647   6.254   0.090  0.00  0.00    +0.033 A 
ATOM      5  C   UNL     1       2.423   5.603   0.101  0.00  0.00    +0.034 A 
ATOM      6  C   UNL     1       1.247   6.335   0.215  0.00  0.00    +0.023 A 
ENDROOT
BRANCH   3   7
ATOM      7  C   UNL     1       4.995   8.347   0.168  0.00  0.00    +0.066 A 
ATOM      8  C   UNL     1       5.188   9.697   0.251  0.00  0.00    +0.049 A 
ATOM      9  C   UNL     1       6.561   9.936   0.203  0.00  0.00    +0.135 A 
ATOM     10  N   UNL     1       7.181   8.789   0.086  0.00  0.00    -0.182 NA
ATOM     11  N   UNL     1       6.224   7.767   0.061  0.00  0.00    -0.277 N 
ATOM     12  H   UNL     1       6.311   6.674  -0.024  0.00  0.00    +0.189 HD
ENDBRANCH   3   7
BRANCH   5  13
ATOM     13  N   UNL     1       2.372   4.209   0.002  0.00  0.00    -0.281 N 
ATOM     14  C   UNL     1       3.288   3.551  -0.737  0.00  0.00    +0.251 C 
ATOM     15  O   UNL     1       4.100   4.175  -1.394  0.00  0.00    -0.270 OA
ATOM     16  H   UNL     1       1.583   3.649   0.526  0.00  0.00    +0.155 HD
BRANCH  14  17
ATOM     17  C   UNL     1       3.305   2.081  -0.748  0.00  0.00    +0.068 A 
ATOM     18  C   UNL     1       2.381   1.355   0.000  0.00  0.00    +0.017 A 
ATOM     19  C   UNL     1       2.428  -0.039  -0.035  0.00  0.00    +0.018 A 
ATOM     20  C   UNL     1       3.364  -0.670  -0.790  0.00  0.00    +0.083 A 
ATOM     21  N   UNL     1       4.266   0.030  -1.520  0.00  0.00    -0.355 N 
ATOM     22  H   UNL     1       5.015  -0.501  -2.124  0.00  0.00    +0.166 HD
ATOM     23  C   UNL     1       4.263   1.377  -1.521  0.00  0.00    +0.096 A 
ATOM     24  S   UNL     1       5.419   2.236  -2.447  0.00  0.00    -0.032 S 
ENDBRANCH  14  17
ENDBRANCH   5  13
TORSDOF 3
