REMARK  Name = ZINC13066593
REMARK  16 active torsions:
REMARK  status: ('A' for Active; 'I' for Inactive)
REMARK    1  A    between atoms: C_1  and  C_2
REMARK    2  A    between atoms: C_4  and  C_33
REMARK    3  A    between atoms: C_5  and  N_9
REMARK    4  A    between atoms: C_6  and  C_8
REMARK    5  A    between atoms: N_9  and  C_10
REMARK    6  A    between atoms: C_10  and  C_11
REMARK    7  A    between atoms: N_13  and  N_14
REMARK    8  A    between atoms: C_15  and  C_16
REMARK    9  A    between atoms: C_15  and  C_17
REMARK   10  A    between atoms: C_20  and  S_23
REMARK   11  A    between atoms: S_23  and  N_26
REMARK   12  A    between atoms: N_26  and  C_27
REMARK   13  A    between atoms: N_26  and  C_28
REMARK   14  A    between atoms: C_28  and  C_29
REMARK   15  A    between atoms: C_29  and  C_30
REMARK   16  A    between atoms: C_30  and  C_31
REMARK                            x       y       z     vdW  Elec       q    Type
REMARK                         _______ _______ _______ _____ _____    ______ ____
ROOT
ATOM      1  N   UNL     1       1.193   1.683  -0.000  0.00  0.00    -0.185 NA
ATOM      2  C   UNL     1       2.325   1.049  -0.015  0.00  0.00    +0.063 C 
ATOM      3  C   UNL     1       2.345  -0.458  -0.023  0.00  0.00    +0.068 C 
ENDROOT
BRANCH   2   4
ATOM      4  C   UNL     1       3.592   1.804  -0.022  0.00  0.00    -0.002 A 
ATOM      5  C   UNL     1       4.813   1.125  -0.032  0.00  0.00    +0.011 A 
ATOM      6  C   UNL     1       5.994   1.838  -0.045  0.00  0.00    +0.029 A 
ATOM      7  C   UNL     1       5.971   3.221  -0.037  0.00  0.00    +0.106 A 
ATOM      8  C   UNL     1       4.766   3.900  -0.022  0.00  0.00    +0.029 A 
ATOM      9  C   UNL     1       3.577   3.201  -0.015  0.00  0.00    +0.011 A 
BRANCH   7  10
ATOM     10  S   UNL     1       7.485   4.123  -0.047  0.00  0.00    +0.061 S 
ATOM     11  O   UNL     1       8.466   3.264  -0.612  0.00  0.00    -0.153 OA
ATOM     12  O   UNL     1       7.191   5.404  -0.589  0.00  0.00    -0.153 OA
BRANCH  10  13
ATOM     13  N   UNL     1       7.921   4.366   1.532  0.00  0.00    -0.180 NA
ATOM     14  C   UNL     1       8.763   3.383   2.218  0.00  0.00    +0.131 C 
BRANCH  13  15
ATOM     15  C   UNL     1       7.465   5.563   2.242  0.00  0.00    +0.109 C 
BRANCH  15  16
ATOM     16  C   UNL     1       6.192   5.237   3.025  0.00  0.00    +0.028 C 
BRANCH  16  17
ATOM     17  C   UNL     1       5.715   6.487   3.767  0.00  0.00    +0.126 C 
BRANCH  17  18
ATOM     18  C   UNL     1       4.461   6.167   4.538  0.00  0.00    +0.356 C 
ATOM     19  O   UNL     1       3.996   5.052   4.499  0.00  0.00    -0.246 OA
ATOM     20  O   UNL     1       3.860   7.119   5.269  0.00  0.00    -0.246 OA
ENDBRANCH  17  18
ENDBRANCH  16  17
ENDBRANCH  15  16
ENDBRANCH  13  15
ENDBRANCH  10  13
ENDBRANCH   7  10
ENDBRANCH   2   4
BRANCH   1  23
ATOM     21  C   UNL     1      -1.187   1.624   0.017  0.00  0.00    +0.249 C 
ATOM     22  O   UNL     1      -1.204   2.837   0.023  0.00  0.00    -0.272 OA
ATOM     23  N   UNL     1      -0.011   0.966   0.007  0.00  0.00    -0.205 N 
ATOM     24  H   UNL     1       0.002  -0.004   0.002  0.00  0.00    +0.177 HD
BRANCH  21  25
ATOM     25  C   UNL     1      -2.482   0.853   0.018  0.00  0.00    +0.199 C 
BRANCH  25  26
ATOM     26  N   UNL     1      -3.611   1.792   0.029  0.00  0.00    -0.335 N 
ATOM     27  H   UNL     1      -3.557   2.432  -0.749  0.00  0.00    +0.147 HD
BRANCH  26  32
ATOM     28  C   UNL     1      -8.560  -0.978   0.037  0.00  0.00    +0.044 C 
ATOM     29  C   UNL     1      -7.245  -0.242   0.035  0.00  0.00    -0.050 A 
ATOM     30  C   UNL     1      -6.931   0.612   1.076  0.00  0.00    +0.008 A 
ATOM     31  C   UNL     1      -5.726   1.288   1.077  0.00  0.00    -0.029 A 
ATOM     32  C   UNL     1      -4.830   1.109   0.031  0.00  0.00    +0.033 A 
ATOM     33  C   UNL     1      -5.151   0.255  -1.016  0.00  0.00    -0.029 A 
ATOM     34  C   UNL     1      -6.355  -0.422  -1.008  0.00  0.00    +0.008 A 
ATOM     35  C   UNL     1      -4.185   0.063  -2.156  0.00  0.00    +0.045 C 
ATOM     36  C   UNL     1      -5.384   2.218   2.213  0.00  0.00    +0.045 C 
ENDBRANCH  26  32
ENDBRANCH  25  26
ENDBRANCH  21  25
ENDBRANCH   1  23
TORSDOF 11
