REMARK  Name = ZINC04235541
REMARK  5 active torsions:
REMARK  status: ('A' for Active; 'I' for Inactive)
REMARK    1  A    between atoms: C_4  and  C_7
REMARK    2  A    between atoms: C_7  and  C_12
REMARK    3  A    between atoms: N_8  and  N_9
REMARK    4  A    between atoms: C_12  and  N_14
REMARK    5  A    between atoms: N_14  and  C_15
REMARK                            x       y       z     vdW  Elec       q    Type
REMARK                         _______ _______ _______ _____ _____    ______ ____
ROOT
ATOM      1  C   UNL     1       1.433   2.799  -0.208  0.00  0.00    +0.119 C 
ATOM      2  N   UNL     1       2.585   2.555   0.366  0.00  0.00    -0.169 NA
ENDROOT
BRANCH   2   3
ATOM      3  N   UNL     1       3.421   3.615   0.740  0.00  0.00    -0.248 N 
ATOM      4  C   UNL     1       4.584   3.364   1.437  0.00  0.00    +0.187 C 
ATOM      5  N   UNL     1       5.404   4.405   1.805  0.00  0.00    -0.370 N 
ATOM      6  H   UNL     1       3.181   4.526   0.509  0.00  0.00    +0.192 HD
ATOM      7  H   UNL     1       5.702   1.862   2.237  0.00  0.00    +0.159 HD
ATOM      8  H   UNL     1       5.164   5.316   1.573  0.00  0.00    +0.159 HD
ATOM      9  H   UNL     1       6.222   4.228   2.295  0.00  0.00    +0.159 HD
ATOM     10  N   UNL     1       4.854   2.099   1.722  0.00  0.00    -0.370 N 
ATOM     11  H   UNL     1       4.209   1.357   1.426  0.00  0.00    +0.159 HD
ENDBRANCH   2   3
BRANCH   1  15
ATOM     12  C   UNL     1      -1.241  -0.394  -1.056  0.00  0.00    +0.000 A 
ATOM     13  C   UNL     1       0.015  -0.665  -0.542  0.00  0.00    +0.001 A 
ATOM     14  C   UNL     1       0.888   0.368  -0.266  0.00  0.00    +0.010 A 
ATOM     15  C   UNL     1       0.500   1.686  -0.502  0.00  0.00    +0.004 A 
ATOM     16  C   UNL     1      -0.769   1.953  -1.015  0.00  0.00    +0.010 A 
ATOM     17  C   UNL     1      -1.633   0.912  -1.286  0.00  0.00    +0.001 A 
ENDBRANCH   1  15
BRANCH   1  18
ATOM     18  C   UNL     1       1.066   4.178  -0.561  0.00  0.00    +0.104 C 
ATOM     19  S   UNL     1       0.124   5.117   0.518  0.00  0.00    -0.033 S 
BRANCH  18  20
ATOM     20  N   UNL     1       1.471   4.704  -1.734  0.00  0.00    -0.307 N 
ATOM     21  H   UNL     1       1.960   4.157  -2.368  0.00  0.00    +0.153 HD
BRANCH  20  22
ATOM     22  C   UNL     1       1.187   6.039  -2.037  0.00  0.00    +0.032 A 
ATOM     23  C   UNL     1       1.139   6.988  -1.024  0.00  0.00    +0.024 A 
ATOM     24  C   UNL     1       0.863   8.307  -1.327  0.00  0.00    +0.017 A 
ATOM     25  C   UNL     1       0.623   8.681  -2.637  0.00  0.00    +0.018 A 
ATOM     26  C   UNL     1       0.663   7.737  -3.648  0.00  0.00    +0.017 A 
ATOM     27  C   UNL     1       0.944   6.418  -3.352  0.00  0.00    +0.024 A 
ATOM     28 BR   UNL     1       0.238  10.487  -3.047  0.00  0.00    -0.050 Br
ENDBRANCH  20  22
ENDBRANCH  18  20
ENDBRANCH   1  18
TORSDOF 5
