REMARK  Name = ZINC32644038
REMARK  9 active torsions:
REMARK  status: ('A' for Active; 'I' for Inactive)
REMARK    1  A    between atoms: C_1  and  C_2
REMARK    2  A    between atoms: C_2  and  C_35
REMARK    3  A    between atoms: C_4  and  N_11
REMARK    4  A    between atoms: C_6  and  C_9
REMARK    5  A    between atoms: C_6  and  C_10
REMARK    6  A    between atoms: N_7  and  C_8
REMARK    7  A    between atoms: C_12  and  C_14
REMARK    8  A    between atoms: N_24  and  S_25
REMARK    9  A    between atoms: S_25  and  C_28
REMARK                            x       y       z     vdW  Elec       q    Type
REMARK                         _______ _______ _______ _____ _____    ______ ____
ROOT
ATOM      1  C   UNL     1       2.643   5.448  -2.232  0.00  0.00    +0.170 C 
ATOM      2  C   UNL     1       2.322   3.970  -2.016  0.00  0.00    +0.065 C 
ATOM      3  C   UNL     1       3.271   3.096  -2.793  0.00  0.00    -0.041 A 
ATOM      4  C   UNL     1       2.879   1.787  -3.046  0.00  0.00    +0.004 A 
ATOM      5  C   UNL     1       3.704   0.930  -3.745  0.00  0.00    +0.000 A 
ATOM      6  C   UNL     1       4.932   1.375  -4.198  0.00  0.00    +0.000 A 
ATOM      7  C   UNL     1       5.322   2.675  -3.951  0.00  0.00    +0.005 A 
ATOM      8  C   UNL     1       4.491   3.540  -3.251  0.00  0.00    -0.028 A 
ATOM      9  C   UNL     1       4.972   4.956  -3.031  0.00  0.00    +0.145 C 
ATOM     10  N   UNL     1       4.095   5.625  -2.064  0.00  0.00    -0.160 NA
ENDROOT
BRANCH   1  12
ATOM     11  N   UNL     1       1.225   7.378  -1.613  0.00  0.00    -0.311 N 
ATOM     12  C   UNL     1       1.906   6.284  -1.218  0.00  0.00    +0.232 C 
ATOM     13  O   UNL     1       1.927   5.973  -0.046  0.00  0.00    -0.274 OA
ATOM     14  H   UNL     1       1.206   7.660  -2.676  0.00  0.00    +0.149 HD
BRANCH  11  18
ATOM     15  C   UNL     1       0.516  10.836   1.022  0.00  0.00    -0.010 C 
ATOM     16  C   UNL     1      -0.399  10.484  -0.156  0.00  0.00    -0.069 C 
ATOM     17  C   UNL     1       0.365   9.618  -1.155  0.00  0.00    +0.010 C 
ATOM     18  C   UNL     1       0.507   8.192  -0.625  0.00  0.00    +0.070 C 
ATOM     19  C   UNL     1      -0.891   7.611  -0.413  0.00  0.00    +0.010 C 
ATOM     20  C   UNL     1      -1.669   8.452   0.596  0.00  0.00    -0.069 C 
ATOM     21  N   UNL     1      -1.628   9.869   0.301  0.00  0.00    +0.385 N 
ATOM     22  C   UNL     1      -2.297  10.670   1.335  0.00  0.00    -0.095 C 
ATOM     23  C   UNL     1      -1.151   8.164   2.010  0.00  0.00    -0.010 C 
ATOM     24  C   UNL     1      -3.143   7.992   0.547  0.00  0.00    -0.010 C 
ATOM     25  C   UNL     1      -0.759  11.807  -0.868  0.00  0.00    -0.010 C 
ATOM     26  H   UNL     1      -2.190   9.870  -0.644  0.00  0.00    -0.081 HD
ENDBRANCH  11  18
ENDBRANCH   1  12
BRANCH  10  27
ATOM     27  S   UNL     1       4.714   6.547  -0.835  0.00  0.00    +0.062 S 
ATOM     28  O   UNL     1       3.655   7.378  -0.378  0.00  0.00    -0.153 OA
ATOM     29  O   UNL     1       5.947   7.074  -1.304  0.00  0.00    -0.153 OA
BRANCH  27  30
ATOM     30  C   UNL     1       5.104   5.454   0.491  0.00  0.00    +0.106 A 
ATOM     31  C   UNL     1       6.359   4.879   0.566  0.00  0.00    +0.031 A 
ATOM     32  C   UNL     1       6.667   4.022   1.605  0.00  0.00    +0.040 A 
ATOM     33  C   UNL     1       5.715   3.734   2.568  0.00  0.00    +0.124 A 
ATOM     34  C   UNL     1       4.460   4.314   2.495  0.00  0.00    +0.040 A 
ATOM     35  C   UNL     1       4.155   5.171   1.455  0.00  0.00    +0.031 A 
ATOM     36  F   UNL     1       6.012   2.891   3.582  0.00  0.00    -0.205 F 
ENDBRANCH  27  30
ENDBRANCH  10  27
TORSDOF 4
