REMARK  Name = ZINC19568475
REMARK  5 active torsions:
REMARK  status: ('A' for Active; 'I' for Inactive)
REMARK    1  A    between atoms: C_1  and  O_2
REMARK    2  A    between atoms: O_2  and  C_3
REMARK    3  A    between atoms: C_10  and  C_13
REMARK    4  A    between atoms: C_13  and  N_14
REMARK    5  A    between atoms: C_22  and  N_23
REMARK                            x       y       z     vdW  Elec       q    Type
REMARK                         _______ _______ _______ _____ _____    ______ ____
ROOT
ATOM      1  N   UNL     1       1.562  -5.020  -1.418  0.00  0.00    -0.291 NA
ATOM      2  C   UNL     1       2.692  -5.959  -1.497  0.00  0.00    +0.090 C 
ATOM      3  C   UNL     1       2.900  -6.349  -2.962  0.00  0.00    +0.056 C 
ATOM      4  C   UNL     1       2.958  -5.112  -3.816  0.00  0.00    +0.014 A 
ATOM      5  C   UNL     1       2.506  -3.894  -3.366  0.00  0.00    +0.039 A 
ATOM      6  N   UNL     1       2.580  -2.840  -4.171  0.00  0.00    -0.330 N 
ATOM      7  C   UNL     1       3.083  -2.947  -5.391  0.00  0.00    +0.197 A 
ATOM      8  N   UNL     1       3.532  -4.101  -5.860  0.00  0.00    -0.201 NA
ATOM      9  C   UNL     1       3.486  -5.197  -5.108  0.00  0.00    +0.125 A 
ATOM     10  N   UNL     1       3.141  -1.823  -6.198  0.00  0.00    -0.301 N 
ATOM     11  C   UNL     1       2.691  -0.475  -5.822  0.00  0.00    +0.108 C 
ATOM     12  C   UNL     1       2.926   0.442  -7.041  0.00  0.00    +0.020 C 
ATOM     13  C   UNL     1       2.970  -0.559  -8.226  0.00  0.00    +0.020 C 
ATOM     14  C   UNL     1       3.670  -1.780  -7.573  0.00  0.00    +0.108 C 
ATOM     15  C   UNL     1       1.937  -3.720  -1.984  0.00  0.00    +0.138 C 
ATOM     16  H   UNL     1       2.260  -1.978  -3.861  0.00  0.00    +0.168 HD
ENDROOT
BRANCH   9  17
ATOM     17  N   UNL     1       3.955  -6.405  -5.598  0.00  0.00    -0.343 N 
ATOM     18  H   UNL     1       3.919  -7.200  -5.044  0.00  0.00    +0.144 HD
ATOM     19  H   UNL     1       4.320  -6.455  -6.495  0.00  0.00    +0.144 HD
ENDBRANCH   9  17
BRANCH   1  20
ATOM     20  C   UNL     1       1.094  -4.876  -0.033  0.00  0.00    +0.140 C 
BRANCH  20  28
ATOM     21  C   UNL     1      -1.200  -0.637   0.010  0.00  0.00    +0.146 A 
ATOM     22  C   UNL     1      -2.358   0.087   0.019  0.00  0.00    +0.048 A 
ATOM     23  C   UNL     1      -3.598  -0.544   0.027  0.00  0.00    +0.004 A 
ATOM     24  C   UNL     1      -3.693  -1.902   0.026  0.00  0.00    +0.010 A 
ATOM     25  C   UNL     1      -2.525  -2.682   0.017  0.00  0.00    +0.004 A 
ATOM     26  C   UNL     1      -1.259  -2.046   0.003  0.00  0.00    +0.113 A 
ATOM     27  N   UNL     1      -0.145  -2.783  -0.011  0.00  0.00    -0.247 NA
ATOM     28  C   UNL     1      -0.194  -4.093  -0.017  0.00  0.00    +0.056 A 
ATOM     29  C   UNL     1      -1.406  -4.781  -0.009  0.00  0.00    +0.025 A 
ATOM     30  C   UNL     1      -2.583  -4.088   0.016  0.00  0.00    +0.012 A 
BRANCH  21  32
ATOM     31  C   UNL     1      -0.017   1.425   0.010  0.00  0.00    +0.277 C 
ATOM     32  O   UNL     1       0.002  -0.004   0.002  0.00  0.00    -0.493 OA
ENDBRANCH  21  32
ENDBRANCH  20  28
ENDBRANCH   1  20
TORSDOF 4
