REMARK  Name = ZINC41027334
REMARK  3 active torsions:
REMARK  status: ('A' for Active; 'I' for Inactive)
REMARK    1  A    between atoms: C_1  and  C_2
REMARK    2  A    between atoms: C_8  and  C_19
REMARK    3  A    between atoms: N_10  and  C_11
REMARK                            x       y       z     vdW  Elec       q    Type
REMARK                         _______ _______ _______ _____ _____    ______ ____
ROOT
ATOM      1  C   UNL     1      -0.173   1.492   0.047  0.00  0.00    +0.008 C 
ATOM      2  C   UNL     1      -0.111  -0.037   0.038  0.00  0.00    -0.009 C 
ATOM      3  C   UNL     1       0.581  -0.511  -1.243  0.00  0.00    +0.010 C 
ATOM      4  C   UNL     1       0.426  -2.031  -1.381  0.00  0.00    +0.056 C 
ATOM      5  C   UNL     1       0.835  -2.670  -0.078  0.00  0.00    +0.049 A 
ATOM      6  C   UNL     1       0.950  -1.995   1.091  0.00  0.00    +0.008 A 
ATOM      7  C   UNL     1       1.352  -2.943   2.048  0.00  0.00    +0.177 A 
ATOM      8  N   UNL     1       1.452  -4.103   1.417  0.00  0.00    -0.159 NA
ATOM      9  N   UNL     1       1.152  -3.959   0.173  0.00  0.00    -0.233 N 
ATOM     10  C   UNL     1       0.681  -0.524   1.259  0.00  0.00    +0.042 C 
ENDROOT
BRANCH   9  11
ATOM     11  C   UNL     1       1.153  -4.988  -0.780  0.00  0.00    +0.101 A 
ATOM     12  C   UNL     1       0.074  -5.141  -1.639  0.00  0.00    +0.032 A 
ATOM     13  C   UNL     1       0.077  -6.154  -2.578  0.00  0.00    +0.022 A 
ATOM     14  C   UNL     1       1.156  -7.018  -2.662  0.00  0.00    +0.044 A 
ATOM     15  C   UNL     1       2.233  -6.870  -1.807  0.00  0.00    +0.060 A 
ATOM     16  C   UNL     1       2.238  -5.853  -0.869  0.00  0.00    +0.150 A 
ATOM     17  F   UNL     1       3.292  -5.704  -0.038  0.00  0.00    -0.203 F 
ATOM     18 CL   UNL     1       1.155  -8.291  -3.842  0.00  0.00    -0.083 Cl
ENDBRANCH   9  11
BRANCH   7  19
ATOM     19  C   UNL     1       1.612  -2.695   3.477  0.00  0.00    +0.406 C 
ATOM     20  O   UNL     1       1.482  -1.568   3.935  0.00  0.00    -0.239 OA
ATOM     21  O   UNL     1       1.959  -3.615   4.205  0.00  0.00    -0.239 OA
ENDBRANCH   7  19
TORSDOF 2
