REMARK  Name = ZINC21242510
REMARK  9 active torsions:
REMARK  status: ('A' for Active; 'I' for Inactive)
REMARK    1  A    between atoms: C_1  and  C_2
REMARK    2  A    between atoms: C_11  and  N_32
REMARK    3  A    between atoms: C_13  and  S_15
REMARK    4  A    between atoms: S_15  and  C_16
REMARK    5  A    between atoms: C_16  and  C_18
REMARK    6  A    between atoms: C_16  and  C_19
REMARK    7  A    between atoms: N_21  and  C_22
REMARK    8  A    between atoms: C_25  and  S_28
REMARK    9  A    between atoms: S_28  and  N_31
REMARK                            x       y       z     vdW  Elec       q    Type
REMARK                         _______ _______ _______ _____ _____    ______ ____
ROOT
ATOM      1  S   UNL     1      -5.012   0.637  -0.233  0.00  0.00    -0.073 S 
ENDROOT
BRANCH   1  13
ATOM      2  C   UNL     1       2.959   6.994   0.639  0.00  0.00    +0.008 C 
ATOM      3  C   UNL     1       1.899   5.904   0.806  0.00  0.00    -0.009 C 
ATOM      4  C   UNL     1       2.224   4.726  -0.117  0.00  0.00    +0.008 C 
ATOM      5  C   UNL     1       1.319   3.539   0.218  0.00  0.00    +0.037 C 
ATOM      6  C   UNL     1      -0.134   4.007   0.202  0.00  0.00    -0.025 A 
ATOM      7  C   UNL     1      -0.436   5.317   0.296  0.00  0.00    -0.004 A 
ATOM      8  S   UNL     1      -2.206   5.390   0.222  0.00  0.00    -0.073 S 
ATOM      9  C   UNL     1      -2.539   3.653   0.080  0.00  0.00    +0.115 A 
ATOM     10  C   UNL     1      -1.256   3.072   0.085  0.00  0.00    +0.051 A 
ATOM     11  C   UNL     1      -1.223   1.654  -0.027  0.00  0.00    +0.129 A 
ATOM     12  N   UNL     1      -2.361   0.987  -0.116  0.00  0.00    -0.207 NA
ATOM     13  C   UNL     1      -3.540   1.598  -0.110  0.00  0.00    +0.192 A 
ATOM     14  N   UNL     1      -3.630   2.918  -0.013  0.00  0.00    -0.214 NA
ATOM     15  C   UNL     1       0.521   6.463   0.423  0.00  0.00    +0.046 C 
BRANCH  11  16
ATOM     16  N   UNL     1      -0.015   0.981  -0.038  0.00  0.00    -0.343 N 
ATOM     17  H   UNL     1       0.004  -0.115  -0.125  0.00  0.00    +0.144 HD
ATOM     18  H   UNL     1       0.928   1.542   0.041  0.00  0.00    +0.144 HD
ENDBRANCH  11  16
ENDBRANCH   1  13
BRANCH   1  19
ATOM     19  C   UNL     1      -4.297  -1.022  -0.334  0.00  0.00    +0.137 C 
ATOM     20  C   UNL     1      -3.579  -1.350   0.977  0.00  0.00    +0.029 C 
BRANCH  19  21
ATOM     21  C   UNL     1      -5.393  -2.028  -0.572  0.00  0.00    +0.230 C 
ATOM     22  O   UNL     1      -6.543  -1.746  -0.309  0.00  0.00    -0.274 OA
ATOM     23  N   UNL     1      -5.096  -3.242  -1.076  0.00  0.00    -0.285 N 
ATOM     24  H   UNL     1      -4.046  -3.532  -1.230  0.00  0.00    +0.155 HD
BRANCH  23  25
ATOM     25  C   UNL     1      -6.124  -4.134  -1.404  0.00  0.00    +0.034 A 
ATOM     26  C   UNL     1      -5.941  -5.500  -1.233  0.00  0.00    +0.025 A 
ATOM     27  C   UNL     1      -6.958  -6.377  -1.552  0.00  0.00    +0.030 A 
ATOM     28  C   UNL     1      -8.155  -5.897  -2.053  0.00  0.00    +0.105 A 
ATOM     29  C   UNL     1      -8.338  -4.538  -2.230  0.00  0.00    +0.030 A 
ATOM     30  C   UNL     1      -7.327  -3.655  -1.907  0.00  0.00    +0.025 A 
BRANCH  28  31
ATOM     31  S   UNL     1      -9.449  -7.020  -2.465  0.00  0.00    +0.056 S 
ATOM     32  O   UNL     1      -9.228  -8.194  -1.696  0.00  0.00    -0.153 OA
ATOM     33  O   UNL     1     -10.662  -6.283  -2.399  0.00  0.00    -0.153 OA
BRANCH  31  34
ATOM     34  N   UNL     1      -9.240  -7.447  -4.051  0.00  0.00    -0.204 NA
ATOM     35  H   UNL     1     -10.031  -8.150  -4.349  0.00  0.00    +0.144 HD
ATOM     36  H   UNL     1      -8.257  -7.926  -4.176  0.00  0.00    +0.144 HD
ENDBRANCH  31  34
ENDBRANCH  28  31
ENDBRANCH  23  25
ENDBRANCH  19  21
ENDBRANCH   1  19
TORSDOF 7
