REMARK  Name = ZINC51637438
REMARK  3 active torsions:
REMARK  status: ('A' for Active; 'I' for Inactive)
REMARK    1  A    between atoms: C_4  and  C_18
REMARK    2  A    between atoms: C_6  and  N_7
REMARK    3  A    between atoms: C_8  and  C_10
REMARK                            x       y       z     vdW  Elec       q    Type
REMARK                         _______ _______ _______ _____ _____    ______ ____
ROOT
ATOM      1  N   UNL     1      -1.201  -0.720   0.010  0.00  0.00    -0.281 N 
ATOM      2  C   UNL     1      -2.373  -0.065   0.127  0.00  0.00    +0.248 C 
ATOM      3  O   UNL     1      -2.393   1.150   0.134  0.00  0.00    -0.270 OA
ATOM      4  H   UNL     1      -1.191  -1.686  -0.072  0.00  0.00    +0.155 HD
ENDROOT
BRANCH   2   5
ATOM      5  C   UNL     1      -3.635  -0.826   0.247  0.00  0.00    +0.041 A 
ATOM      6  C   UNL     1      -3.615  -2.221   0.245  0.00  0.00    +0.051 A 
ATOM      7  C   UNL     1      -4.798  -2.926   0.357  0.00  0.00    +0.125 A 
ATOM      8  C   UNL     1      -6.002  -2.250   0.472  0.00  0.00    +0.053 A 
ATOM      9  C   UNL     1      -6.027  -0.866   0.473  0.00  0.00    +0.021 A 
ATOM     10  C   UNL     1      -4.851  -0.151   0.368  0.00  0.00    +0.028 A 
ATOM     11 BR   UNL     1      -7.676   0.047   0.629  0.00  0.00    -0.050 Br
ATOM     12  F   UNL     1      -4.781  -4.277   0.355  0.00  0.00    -0.205 F 
ENDBRANCH   2   5
BRANCH   1  18
ATOM     13  C   UNL     1       0.123   1.154   0.766  0.00  0.00    +0.026 A 
ATOM     14  C   UNL     1       1.308   1.865   0.769  0.00  0.00    +0.041 A 
ATOM     15  C   UNL     1       2.383   1.428   0.018  0.00  0.00    +0.141 A 
ATOM     16  C   UNL     1       2.271   0.263  -0.748  0.00  0.00    +0.089 A 
ATOM     17  C   UNL     1       1.073  -0.453  -0.749  0.00  0.00    +0.045 A 
ATOM     18  C   UNL     1       0.002  -0.005   0.008  0.00  0.00    +0.035 A 
ATOM     19  F   UNL     1       3.540   2.126   0.023  0.00  0.00    -0.204 F 
BRANCH  16  20
ATOM     20  C   UNL     1       3.381  -0.194  -1.529  0.00  0.00    +0.102 C 
ATOM     21  N   UNL     1       4.263  -0.556  -2.148  0.00  0.00    -0.191 NA
ENDBRANCH  16  20
ENDBRANCH   1  18
TORSDOF 3
