REMARK  Name = ZINC61942934
REMARK  4 active torsions:
REMARK  status: ('A' for Active; 'I' for Inactive)
REMARK    1  A    between atoms: C_1  and  C_2
REMARK    2  A    between atoms: N_21  and  C_24
REMARK    3  A    between atoms: C_27  and  C_30
REMARK    4  A    between atoms: C_30  and  C_32
REMARK                            x       y       z     vdW  Elec       q    Type
REMARK                         _______ _______ _______ _____ _____    ______ ____
ROOT
ATOM      1  C   UNL     1      -0.260   1.479  -0.066  0.00  0.00    +0.044 C 
ATOM      2  C   UNL     1      -0.218  -0.028  -0.062  0.00  0.00    -0.050 A 
ATOM      3  C   UNL     1      -0.258  -0.726  -1.255  0.00  0.00    +0.005 A 
ATOM      4  C   UNL     1      -0.219  -2.104  -1.259  0.00  0.00    +0.024 A 
ATOM      5  C   UNL     1      -0.140  -2.806  -0.058  0.00  0.00    +0.039 A 
ATOM      6  C   UNL     1      -0.101  -2.093   1.137  0.00  0.00    +0.004 A 
ATOM      7  C   UNL     1      -0.134  -0.716   1.135  0.00  0.00    +0.011 A 
ATOM      8  C   UNL     1      -0.019  -3.123   2.229  0.00  0.00    +0.138 C 
ATOM      9  C   UNL     1      -1.205  -3.008   3.193  0.00  0.00    +0.123 C 
ATOM     10  C   UNL     1      -0.610  -3.337   4.590  0.00  0.00    +0.107 C 
ATOM     11  C   UNL     1       0.878  -3.639   4.334  0.00  0.00    +0.071 C 
ATOM     12  N   UNL     1       1.196  -2.948   3.042  0.00  0.00    -0.281 NA
ATOM     13  C   UNL     1       1.362  -1.518   3.396  0.00  0.00    +0.086 C 
ATOM     14  C   UNL     1       2.062  -1.518   4.770  0.00  0.00    +0.017 C 
ATOM     15  C   UNL     1       1.733  -2.929   5.399  0.00  0.00    +0.021 C 
ATOM     16  C   UNL     1      -0.750  -2.033   5.343  0.00  0.00    +0.232 C 
ATOM     17  O   UNL     1      -0.400  -1.845   6.489  0.00  0.00    -0.274 OA
ATOM     18  N   UNL     1      -1.320  -1.119   4.549  0.00  0.00    -0.210 N 
ATOM     19  C   UNL     1      -1.629  -1.562   3.309  0.00  0.00    +0.233 C 
ATOM     20  O   UNL     1      -2.155  -0.913   2.430  0.00  0.00    -0.274 OA
ATOM     21  C   UNL     1      -0.017  -4.448   1.515  0.00  0.00    +0.243 C 
ATOM     22  O   UNL     1       0.038  -5.546   2.027  0.00  0.00    -0.273 OA
ATOM     23  N   UNL     1      -0.089  -4.178   0.197  0.00  0.00    -0.283 N 
ATOM     24  H   UNL     1      -0.104  -4.858  -0.494  0.00  0.00    +0.155 HD
ENDROOT
BRANCH  18  25
ATOM     25  C   UNL     1      -1.582   0.187   4.968  0.00  0.00    +0.044 A 
ATOM     26  C   UNL     1      -0.884   1.250   4.402  0.00  0.00    +0.024 A 
ATOM     27  C   UNL     1      -1.139   2.539   4.812  0.00  0.00    +0.013 A 
ATOM     28  C   UNL     1      -2.102   2.780   5.799  0.00  0.00    +0.017 A 
ATOM     29  C   UNL     1      -2.802   1.707   6.365  0.00  0.00    +0.013 A 
ATOM     30  C   UNL     1      -2.545   0.422   5.945  0.00  0.00    +0.024 A 
BRANCH  28  31
ATOM     31  C   UNL     1      -2.377   4.154   6.240  0.00  0.00    +0.160 C 
ATOM     32  O   UNL     1      -1.770   5.082   5.749  0.00  0.00    -0.292 OA
ATOM     33  C   UNL     1      -3.415   4.411   7.303  0.00  0.00    +0.091 C 
ENDBRANCH  28  31
ENDBRANCH  18  25
TORSDOF 2
