REMARK  Name = ZINC48026434
REMARK  10 active torsions:
REMARK  status: ('A' for Active; 'I' for Inactive)
REMARK    1  A    between atoms: C_1  and  C_2
REMARK    2  A    between atoms: C_2  and  C_4
REMARK    3  A    between atoms: C_2  and  O_11
REMARK    4  A    between atoms: O_11  and  C_12
REMARK    5  A    between atoms: C_12  and  C_13
REMARK    6  A    between atoms: C_13  and  C_15
REMARK    7  A    between atoms: C_13  and  O_26
REMARK    8  A    between atoms: C_15  and  N_16
REMARK    9  A    between atoms: C_19  and  C_22
REMARK   10  A    between atoms: C_22  and  C_23
REMARK                            x       y       z     vdW  Elec       q    Type
REMARK                         _______ _______ _______ _____ _____    ______ ____
ROOT
ATOM      1  C   UNL     1       0.625  -1.155  -3.489  0.00  0.00    +0.124 C 
ENDROOT
BRANCH   1   2
ATOM      2  O   UNL     1       1.169  -2.444  -3.197  0.00  0.00    -0.391 OA
ATOM      3  H   UNL     1       0.502  -3.119  -3.012  0.00  0.00    +0.210 HD
ENDBRANCH   1   2
BRANCH   1   4
ATOM      4  C   UNL     1      -0.194  -0.664  -2.294  0.00  0.00    +0.190 C 
BRANCH   4   5
ATOM      5  O   UNL     1       0.671  -0.465  -1.174  0.00  0.00    -0.370 OA
BRANCH   5   7
ATOM      6  C   UNL     1      -0.019   1.526   0.010  0.00  0.00    +0.043 C 
ATOM      7  C   UNL     1       0.002  -0.004   0.002  0.00  0.00    +0.145 C 
BRANCH   7   8
ATOM      8  C   UNL     1       0.731  -0.503   1.223  0.00  0.00    -0.019 A 
ATOM      9  C   UNL     1       2.113  -0.514   1.246  0.00  0.00    +0.007 A 
ATOM     10  C   UNL     1       2.782  -0.971   2.366  0.00  0.00    +0.020 A 
ATOM     11  C   UNL     1       2.068  -1.419   3.463  0.00  0.00    +0.041 A 
ATOM     12  C   UNL     1       0.685  -1.409   3.439  0.00  0.00    +0.020 A 
ATOM     13  C   UNL     1       0.017  -0.945   2.321  0.00  0.00    +0.007 A 
ATOM     14 CL   UNL     1       2.908  -1.995   4.869  0.00  0.00    -0.084 Cl
ENDBRANCH   7   8
ENDBRANCH   5   7
ENDBRANCH   4   5
ENDBRANCH   1   4
BRANCH   1  15
ATOM     15  C   UNL     1      -0.277  -1.249  -4.721  0.00  0.00    -0.045 C 
BRANCH  15  16
ATOM     16  N   UNL     1       0.510  -1.720  -5.869  0.00  0.00    +0.381 N 
ATOM     17  C   UNL     1       1.533  -0.722  -6.202  0.00  0.00    -0.078 C 
ATOM     18  C   UNL     1       2.407  -1.244  -7.345  0.00  0.00    -0.015 C 
ATOM     19  C   UNL     1       1.530  -1.507  -8.572  0.00  0.00    -0.006 C 
ATOM     20  C   UNL     1       0.421  -2.493  -8.193  0.00  0.00    -0.015 C 
ATOM     21  C   UNL     1      -0.380  -1.925  -7.019  0.00  0.00    -0.078 C 
ATOM     22  H   UNL     1       0.958  -2.593  -5.633  0.00  0.00    -0.082 HD
BRANCH  19  23
ATOM     23  C   UNL     1       2.383  -2.103  -9.693  0.00  0.00    +0.099 C 
BRANCH  23  24
ATOM     24  C   UNL     1       1.547  -2.247 -10.939  0.00  0.00    +0.211 C 
ATOM     25  O   UNL     1       0.384  -1.906 -10.931  0.00  0.00    -0.276 OA
ATOM     26  N   UNL     1       2.093  -2.755 -12.062  0.00  0.00    -0.329 N 
ATOM     27  H   UNL     1       3.024  -3.027 -12.068  0.00  0.00    +0.145 HD
ATOM     28  H   UNL     1       1.555  -2.847 -12.864  0.00  0.00    +0.145 HD
ENDBRANCH  23  24
ENDBRANCH  19  23
ENDBRANCH  15  16
ENDBRANCH   1  15
TORSDOF 9
