REMARK  Name = ZINC03233881
REMARK  10 active torsions:
REMARK  status: ('A' for Active; 'I' for Inactive)
REMARK    1  A    between atoms: C_1  and  C_2
REMARK    2  A    between atoms: C_2  and  O_3
REMARK    3  A    between atoms: O_3  and  C_4
REMARK    4  A    between atoms: C_4  and  C_6
REMARK    5  A    between atoms: C_10  and  N_11
REMARK    6  A    between atoms: C_12  and  C_14
REMARK    7  A    between atoms: C_14  and  N_59
REMARK    8  A    between atoms: C_15  and  C_17
REMARK    9  A    between atoms: C_15  and  C_18
REMARK   10  A    between atoms: C_15  and  N_59
REMARK                            x       y       z     vdW  Elec       q    Type
REMARK                         _______ _______ _______ _____ _____    ______ ____
ROOT
ATOM      1  N   UNL     1       3.070  -2.684   3.692  0.00  0.00    -0.281 N 
ATOM      2  C   UNL     1       2.666  -3.969   3.739  0.00  0.00    +0.201 C 
ATOM      3  O   UNL     1       1.758  -4.346   3.028  0.00  0.00    -0.278 OA
ATOM      4  H   UNL     1       3.796  -2.383   4.260  0.00  0.00    +0.155 HD
ENDROOT
BRANCH   1   9
ATOM      5  C   UNL     1       2.721  -0.445   2.641  0.00  0.00    +0.091 A 
ATOM      6  C   UNL     1       1.915   0.272   1.667  0.00  0.00    -0.021 A 
ATOM      7  C   UNL     1       0.973  -0.469   1.044  0.00  0.00    -0.004 A 
ATOM      8  S   UNL     1       1.145  -2.091   1.730  0.00  0.00    -0.077 S 
ATOM      9  C   UNL     1       2.449  -1.793   2.830  0.00  0.00    +0.086 A 
ATOM     10  C   UNL     1       0.002  -0.004   0.002  0.00  0.00    +0.043 C 
ATOM     11  C   UNL     1      -0.019   1.531   0.011  0.00  0.00    +0.005 C 
ATOM     12  C   UNL     1       1.424   2.044  -0.001  0.00  0.00    +0.005 C 
ATOM     13  C   UNL     1       2.091   1.751   1.344  0.00  0.00    +0.037 C 
BRANCH   5  14
ATOM     14  C   UNL     1       3.780   0.230   3.394  0.00  0.00    +0.342 C 
ATOM     15  O   UNL     1       3.527   0.756   4.461  0.00  0.00    -0.245 OA
BRANCH  14  16
ATOM     16  O   UNL     1       5.037   0.268   2.904  0.00  0.00    -0.461 OA
BRANCH  16  18
ATOM     17  C   UNL     1       7.388   0.894   2.993  0.00  0.00    +0.048 C 
ATOM     18  C   UNL     1       6.035   0.954   3.705  0.00  0.00    +0.229 C 
ENDBRANCH  16  18
ENDBRANCH  14  16
ENDBRANCH   5  14
ENDBRANCH   1   9
BRANCH   2  19
ATOM     19  C   UNL     1       3.341  -4.938   4.675  0.00  0.00    +0.016 C 
BRANCH  19  20
ATOM     20  N   UNL     1       2.714  -6.265   4.532  0.00  0.00    +0.387 N 
ATOM     21  H   UNL     1       2.819  -6.587   3.562  0.00  0.00    -0.085 HD
ATOM     22  H   UNL     1       1.716  -6.195   4.763  0.00  0.00    -0.085 HD
BRANCH  20  23
ATOM     23  C   UNL     1       3.356  -7.236   5.438  0.00  0.00    -0.071 C 
ATOM     24  C   UNL     1       2.709  -7.148   6.822  0.00  0.00    -0.013 C 
BRANCH  23  25
ATOM     25  C   UNL     1       3.171  -8.647   4.876  0.00  0.00    -0.022 C 
ATOM     26  C   UNL     1       3.883  -8.781   3.511  0.00  0.00    +0.005 C 
ATOM     27  C   UNL     1       4.950  -9.896   3.731  0.00  0.00    -0.010 C 
ATOM     28  C   UNL     1       4.120 -11.209   3.873  0.00  0.00    +0.004 C 
ATOM     29  C   UNL     1       3.408 -11.074   5.239  0.00  0.00    +0.004 C 
ATOM     30  C   UNL     1       3.872  -9.694   5.794  0.00  0.00    -0.009 C 
ATOM     31  C   UNL     1       5.338  -9.635   5.229  0.00  0.00    +0.007 C 
ENDBRANCH  23  25
ENDBRANCH  20  23
ENDBRANCH  19  20
ENDBRANCH   2  19
TORSDOF 8
