REMARK  Name = ZINC63448234
REMARK  4 active torsions:
REMARK  status: ('A' for Active; 'I' for Inactive)
REMARK    1  A    between atoms: C_1  and  C_2
REMARK    2  A    between atoms: C_8  and  N_10
REMARK    3  A    between atoms: N_10  and  S_11
REMARK    4  A    between atoms: S_11  and  C_14
REMARK                            x       y       z     vdW  Elec       q    Type
REMARK                         _______ _______ _______ _____ _____    ______ ____
ROOT
ATOM      1  C   UNL     1       3.041  -1.095   3.582  0.00  0.00    +0.107 A 
ATOM      2  C   UNL     1       2.008  -1.481   4.460  0.00  0.00    +0.030 A 
ATOM      3  C   UNL     1       2.083  -2.611   5.200  0.00  0.00    +0.027 A 
ATOM      4  C   UNL     1       3.230  -3.441   5.097  0.00  0.00    +0.055 A 
ATOM      5  N   UNL     1       3.330  -4.546   5.805  0.00  0.00    -0.276 N 
ATOM      6  C   UNL     1       4.429  -5.320   5.690  0.00  0.00    +0.304 C 
ATOM      7  O   UNL     1       4.528  -6.341   6.339  0.00  0.00    -0.265 OA
ATOM      8  C   UNL     1       5.525  -4.911   4.758  0.00  0.00    +0.304 C 
ATOM      9  O   UNL     1       6.520  -5.598   4.645  0.00  0.00    -0.265 OA
ATOM     10  N   UNL     1       5.400  -3.773   4.043  0.00  0.00    -0.276 N 
ATOM     11  C   UNL     1       4.318  -3.034   4.171  0.00  0.00    +0.057 A 
ATOM     12  C   UNL     1       4.161  -1.837   3.426  0.00  0.00    +0.053 A 
ATOM     13  H   UNL     1       6.106  -3.501   3.437  0.00  0.00    +0.155 HD
ATOM     14  H   UNL     1       2.615  -4.804   6.407  0.00  0.00    +0.155 HD
ENDROOT
BRANCH   1  15
ATOM     15  S   UNL     1       2.864   0.392   2.655  0.00  0.00    +0.059 S 
ATOM     16  O   UNL     1       4.176   0.820   2.319  0.00  0.00    -0.153 OA
ATOM     17  O   UNL     1       1.955   1.214   3.375  0.00  0.00    -0.153 OA
BRANCH  15  18
ATOM     18  N   UNL     1       2.116  -0.004   1.231  0.00  0.00    -0.187 NA
ATOM     19  H   UNL     1       2.589   0.100   0.390  0.00  0.00    +0.148 HD
BRANCH  18  26
ATOM     20  C   UNL     1      -0.019   1.526   0.010  0.00  0.00    +0.009 C 
ATOM     21  C   UNL     1       0.002  -0.004   0.002  0.00  0.00    +0.005 C 
ATOM     22  C   UNL     1      -1.433  -0.534   0.013  0.00  0.00    +0.005 C 
ATOM     23  C   UNL     1      -1.413  -2.063   0.004  0.00  0.00    +0.000 C 
ATOM     24  C   UNL     1      -0.673  -2.570   1.244  0.00  0.00    +0.002 C 
ATOM     25  C   UNL     1       0.763  -2.041   1.233  0.00  0.00    +0.020 C 
ATOM     26  C   UNL     1       0.742  -0.511   1.242  0.00  0.00    +0.079 C 
ENDBRANCH  18  26
ENDBRANCH  15  18
ENDBRANCH   1  15
TORSDOF 3
