REMARK  Name = ZINC13264189
REMARK  11 active torsions:
REMARK  status: ('A' for Active; 'I' for Inactive)
REMARK    1  A    between atoms: C_1  and  C_2
REMARK    2  A    between atoms: C_2  and  C_15
REMARK    3  A    between atoms: N_3  and  N_4
REMARK    4  A    between atoms: N_4  and  C_5
REMARK    5  A    between atoms: C_5  and  N_7
REMARK    6  A    between atoms: N_7  and  C_8
REMARK    7  A    between atoms: C_18  and  S_21
REMARK    8  A    between atoms: S_21  and  N_24
REMARK    9  A    between atoms: N_24  and  C_25
REMARK   10  A    between atoms: C_25  and  C_26
REMARK   11  A    between atoms: C_26  and  C_27
REMARK                            x       y       z     vdW  Elec       q    Type
REMARK                         _______ _______ _______ _____ _____    ______ ____
ROOT
ATOM      1  C   UNL     1       2.406   1.277   0.467  0.00  0.00    +0.068 C 
ATOM      2  C   UNL     1       1.144   1.984   0.045  0.00  0.00    +0.063 C 
ATOM      3  N   UNL     1       0.015   1.344   0.034  0.00  0.00    -0.185 NA
ENDROOT
BRANCH   2   4
ATOM      4  C   UNL     1       1.191   3.403  -0.354  0.00  0.00    -0.002 A 
ATOM      5  C   UNL     1       2.404   4.096  -0.337  0.00  0.00    +0.011 A 
ATOM      6  C   UNL     1       2.442   5.422  -0.718  0.00  0.00    +0.029 A 
ATOM      7  C   UNL     1       1.281   6.068  -1.104  0.00  0.00    +0.105 A 
ATOM      8  C   UNL     1       0.075   5.389  -1.117  0.00  0.00    +0.029 A 
ATOM      9  C   UNL     1       0.023   4.061  -0.745  0.00  0.00    +0.011 A 
BRANCH   7  10
ATOM     10  S   UNL     1       1.338   7.763  -1.582  0.00  0.00    +0.058 S 
ATOM     11  O   UNL     1       2.669   8.020  -2.007  0.00  0.00    -0.153 OA
ATOM     12  O   UNL     1       0.213   7.986  -2.422  0.00  0.00    -0.153 OA
BRANCH  10  13
ATOM     13  N   UNL     1       1.094   8.665  -0.215  0.00  0.00    -0.189 NA
ATOM     14  H   UNL     1       0.300   9.217  -0.133  0.00  0.00    +0.148 HD
BRANCH  13  15
ATOM     15  C   UNL     1       2.078   8.631   0.870  0.00  0.00    +0.117 C 
BRANCH  15  16
ATOM     16  C   UNL     1       1.826   9.801   1.824  0.00  0.00    +0.142 C 
BRANCH  16  17
ATOM     17  C   UNL     1       2.837   9.765   2.940  0.00  0.00    +0.357 C 
ATOM     18  O   UNL     1       3.674   8.894   2.970  0.00  0.00    -0.246 OA
ATOM     19  O   UNL     1       2.809  10.702   3.902  0.00  0.00    -0.246 OA
ENDBRANCH  16  17
ENDBRANCH  15  16
ENDBRANCH  13  15
ENDBRANCH  10  13
ENDBRANCH   7  10
ENDBRANCH   2   4
BRANCH   3  20
ATOM     20  N   UNL     1      -0.030  -0.004   0.413  0.00  0.00    -0.218 N 
ATOM     21  H   UNL     1       0.782  -0.459   0.684  0.00  0.00    +0.176 HD
BRANCH  20  22
ATOM     22  C   UNL     1      -1.203  -0.668   0.401  0.00  0.00    +0.154 C 
ATOM     23  S   UNL     1      -1.258  -2.315   0.864  0.00  0.00    -0.017 S 
BRANCH  22  24
ATOM     24  N   UNL     1      -2.332  -0.036   0.024  0.00  0.00    -0.296 N 
ATOM     25  H   UNL     1      -2.312   0.912  -0.179  0.00  0.00    +0.154 HD
BRANCH  24  26
ATOM     26  C   UNL     1      -3.533  -0.748  -0.074  0.00  0.00    +0.033 A 
ATOM     27  C   UNL     1      -4.357  -0.573  -1.178  0.00  0.00    +0.026 A 
ATOM     28  C   UNL     1      -5.540  -1.279  -1.275  0.00  0.00    +0.040 A 
ATOM     29  C   UNL     1      -5.909  -2.154  -0.267  0.00  0.00    +0.124 A 
ATOM     30  C   UNL     1      -5.092  -2.326   0.837  0.00  0.00    +0.040 A 
ATOM     31  C   UNL     1      -3.906  -1.625   0.936  0.00  0.00    +0.026 A 
ATOM     32  F   UNL     1      -7.069  -2.841  -0.362  0.00  0.00    -0.205 F 
ENDBRANCH  24  26
ENDBRANCH  22  24
ENDBRANCH  20  22
ENDBRANCH   3  20
TORSDOF 10
