REMARK  Name = ZINC09361039
REMARK  2 active torsions:
REMARK  status: ('A' for Active; 'I' for Inactive)
REMARK    1  A    between atoms: C_1  and  C_2
REMARK    2  A    between atoms: N_23  and  C_26
REMARK                            x       y       z     vdW  Elec       q    Type
REMARK                         _______ _______ _______ _____ _____    ______ ____
ROOT
ATOM      1  C   UNL     1       2.047  -2.350   1.052  0.00  0.00    +0.047 C 
ATOM      2  C   UNL     1       1.837  -0.873   0.844  0.00  0.00    -0.011 A 
ATOM      3  C   UNL     1       0.560  -0.349   0.869  0.00  0.00    +0.046 A 
ATOM      4  C   UNL     1       0.357   1.007   0.679  0.00  0.00    +0.020 A 
ATOM      5  C   UNL     1       1.440   1.841   0.464  0.00  0.00    +0.006 A 
ATOM      6  C   UNL     1       2.715   1.322   0.438  0.00  0.00    -0.027 A 
ATOM      7  C   UNL     1       2.932  -0.040   0.628  0.00  0.00    +0.040 A 
ATOM      8  N   UNL     1       4.297  -0.325   0.559  0.00  0.00    -0.286 N 
ATOM      9  C   UNL     1       5.036   0.777   0.330  0.00  0.00    +0.212 C 
ATOM     10  O   UNL     1       6.242   0.830   0.222  0.00  0.00    -0.277 OA
ATOM     11  C   UNL     1       4.074   1.931   0.234  0.00  0.00    +0.053 C 
ATOM     12  C   UNL     1       4.174   2.631  -1.126  0.00  0.00    +0.089 C 
ATOM     13  C   UNL     1       5.066   3.875  -0.864  0.00  0.00    +0.074 C 
ATOM     14  C   UNL     1       5.423   3.808   0.632  0.00  0.00    -0.054 C 
ATOM     15  C   UNL     1       3.195   3.860   1.396  0.00  0.00    -0.076 C 
ATOM     16  C   UNL     1       3.788   5.230   1.780  0.00  0.00    -0.020 C 
ATOM     17  C   UNL     1       5.240   5.200   1.263  0.00  0.00    -0.016 C 
ATOM     18  C   UNL     1       6.303   3.598  -1.689  0.00  0.00    +0.228 C 
ATOM     19  O   UNL     1       7.269   4.326  -1.770  0.00  0.00    -0.275 OA
ATOM     20  N   UNL     1       6.165   2.424  -2.316  0.00  0.00    -0.210 N 
ATOM     21  C   UNL     1       5.009   1.796  -2.071  0.00  0.00    +0.229 C 
ATOM     22  O   UNL     1       4.681   0.725  -2.535  0.00  0.00    -0.275 OA
ATOM     23 CL   UNL     1      -0.798  -1.396   1.139  0.00  0.00    -0.083 Cl
ATOM     24  H   UNL     1       4.670  -1.214   0.664  0.00  0.00    +0.155 HD
ATOM     25  N   UNL     1       4.372   2.996   1.203  0.00  0.00    +0.395 N 
ATOM     26  H   UNL     1       4.666   2.592   2.099  0.00  0.00    -0.079 HD
ENDROOT
BRANCH  20  27
ATOM     27  C   UNL     1       7.151   1.895  -3.160  0.00  0.00    +0.045 A 
ATOM     28  C   UNL     1       8.373   1.494  -2.637  0.00  0.00    +0.024 A 
ATOM     29  C   UNL     1       9.341   0.969  -3.470  0.00  0.00    +0.003 A 
ATOM     30  C   UNL     1       9.098   0.852  -4.827  0.00  0.00    +0.015 A 
ATOM     31  C   UNL     1       7.883   1.254  -5.352  0.00  0.00    +0.020 A 
ATOM     32  C   UNL     1       6.909   1.776  -4.522  0.00  0.00    +0.039 A 
ATOM     33 BR   UNL     1       7.556   1.092  -7.207  0.00  0.00    -0.050 Br
ENDBRANCH  20  27
TORSDOF 1
