REMARK  Name = ZINC35639080
REMARK  6 active torsions:
REMARK  status: ('A' for Active; 'I' for Inactive)
REMARK    1  A    between atoms: C_1  and  C_2
REMARK    2  A    between atoms: C_2  and  C_3
REMARK    3  A    between atoms: C_3  and  N_4
REMARK    4  A    between atoms: C_5  and  C_7
REMARK    5  A    between atoms: C_13  and  C_15
REMARK    6  A    between atoms: C_27  and  C_29
REMARK                            x       y       z     vdW  Elec       q    Type
REMARK                         _______ _______ _______ _____ _____    ______ ____
ROOT
ATOM      1  C   UNL     1      -2.109  -4.542   0.997  0.00  0.00    +0.190 C 
ATOM      2  C   UNL     1      -1.587  -5.253   2.271  0.00  0.00    +0.194 C 
ATOM      3  O   UNL     1      -2.237  -6.543   2.194  0.00  0.00    -0.353 OA
ATOM      4  C   UNL     1      -3.549  -6.283   1.671  0.00  0.00    +0.142 C 
ATOM      5  N   UNL     1      -3.500  -5.035   0.889  0.00  0.00    -0.255 N 
ATOM      6  C   UNL     1      -4.515  -4.457   0.215  0.00  0.00    +0.249 C 
ATOM      7  O   UNL     1      -5.631  -4.936   0.269  0.00  0.00    -0.270 OA
ATOM      8  C   UNL     1      -4.539  -6.131   2.826  0.00  0.00    +0.074 C 
ATOM      9  C   UNL     1      -5.931  -5.822   2.265  0.00  0.00    +0.112 C 
ATOM     10  N   UNL     1      -6.288  -6.862   1.290  0.00  0.00    -0.297 N 
ATOM     11  C   UNL     1      -5.362  -7.141   0.183  0.00  0.00    +0.112 C 
ATOM     12  C   UNL     1      -3.976  -7.438   0.764  0.00  0.00    +0.074 C 
ATOM     13  C   UNL     1      -7.443  -7.546   1.408  0.00  0.00    +0.247 C 
ATOM     14  O   UNL     1      -7.764  -8.349   0.554  0.00  0.00    -0.270 OA
ENDROOT
BRANCH  13  15
ATOM     15  C   UNL     1      -8.320  -7.320   2.576  0.00  0.00    +0.038 A 
ATOM     16  C   UNL     1      -8.646  -6.019   2.966  0.00  0.00    +0.014 A 
ATOM     17  C   UNL     1      -9.464  -5.814   4.057  0.00  0.00    +0.022 A 
ATOM     18  C   UNL     1      -9.963  -6.894   4.766  0.00  0.00    +0.059 A 
ATOM     19  C   UNL     1      -9.643  -8.188   4.384  0.00  0.00    +0.060 A 
ATOM     20  C   UNL     1      -8.830  -8.405   3.290  0.00  0.00    +0.034 A 
ATOM     21 CL   UNL     1     -10.273  -9.536   5.278  0.00  0.00    -0.082 Cl
ATOM     22 CL   UNL     1     -10.991  -6.627   6.138  0.00  0.00    -0.082 Cl
ENDBRANCH  13  15
BRANCH   6  23
ATOM     23  C   UNL     1      -4.270  -3.241  -0.588  0.00  0.00    +0.037 A 
ATOM     24  C   UNL     1      -2.966  -2.880  -0.933  0.00  0.00    +0.016 A 
ATOM     25  C   UNL     1      -2.744  -1.745  -1.682  0.00  0.00    +0.039 A 
ATOM     26  C   UNL     1      -3.812  -0.962  -2.093  0.00  0.00    +0.123 A 
ATOM     27  C   UNL     1      -5.109  -1.316  -1.753  0.00  0.00    +0.039 A 
ATOM     28  C   UNL     1      -5.343  -2.453  -1.009  0.00  0.00    +0.016 A 
ATOM     29  F   UNL     1      -3.589   0.150  -2.826  0.00  0.00    -0.205 F 
ENDBRANCH   6  23
BRANCH   1  31
ATOM     30  N   UNL     1      -0.915  -2.378   1.099  0.00  0.00    -0.314 N 
ATOM     31  C   UNL     1      -2.084  -3.046   1.171  0.00  0.00    +0.236 C 
ATOM     32  O   UNL     1      -3.116  -2.442   1.376  0.00  0.00    -0.274 OA
ATOM     33  H   UNL     1      -0.090  -2.861   0.935  0.00  0.00    +0.149 HD
BRANCH  30  34
ATOM     34  C   UNL     1      -0.891  -0.923   1.269  0.00  0.00    +0.104 C 
BRANCH  34  36
ATOM     35  C   UNL     1       0.573   1.101   1.321  0.00  0.00    +0.005 C 
ATOM     36  C   UNL     1       0.548  -0.419   1.143  0.00  0.00    +0.015 C 
ENDBRANCH  34  36
ENDBRANCH  30  34
ENDBRANCH   1  31
TORSDOF 5
