REMARK  Name = ZINC51354880
REMARK  7 active torsions:
REMARK  status: ('A' for Active; 'I' for Inactive)
REMARK    1  A    between atoms: C_3  and  C_20
REMARK    2  A    between atoms: C_6  and  C_7
REMARK    3  A    between atoms: C_7  and  N_8
REMARK    4  A    between atoms: C_9  and  C_11
REMARK    5  A    between atoms: C_14  and  C_16
REMARK    6  A    between atoms: C_17  and  C_18
REMARK    7  A    between atoms: C_18  and  N_19
REMARK                            x       y       z     vdW  Elec       q    Type
REMARK                         _______ _______ _______ _____ _____    ______ ____
ROOT
ATOM      1  N   UNL     1      -1.729  -1.013  -1.367  0.00  0.00    -0.307 N 
ATOM      2  C   UNL     1      -2.871  -1.687  -1.606  0.00  0.00    +0.251 C 
ATOM      3  O   UNL     1      -3.543  -2.095  -0.676  0.00  0.00    -0.270 OA
ATOM      4  H   UNL     1      -1.194  -0.688  -2.108  0.00  0.00    +0.149 HD
ENDROOT
BRANCH   2   5
ATOM      5  C   UNL     1      -3.305  -1.928  -2.984  0.00  0.00    +0.075 A 
ATOM      6  C   UNL     1      -4.439  -2.588  -3.438  0.00  0.00    +0.022 A 
ATOM      7  C   UNL     1      -4.641  -2.694  -4.785  0.00  0.00    +0.025 A 
ATOM      8  C   UNL     1      -3.705  -2.138  -5.646  0.00  0.00    +0.063 A 
ATOM      9  S   UNL     1      -2.515  -1.443  -4.510  0.00  0.00    -0.075 S 
BRANCH   8  10
ATOM     10  C   UNL     1      -3.697  -2.120  -7.077  0.00  0.00    -0.061 C 
ATOM     11  C   UNL     1      -3.692  -2.106  -8.251  0.00  0.00    -0.116 C 
BRANCH  11  12
ATOM     12  C   UNL     1      -3.685  -2.089  -9.723  0.00  0.00    +0.005 C 
BRANCH  12  13
ATOM     13  N   UNL     1      -2.487  -1.383 -10.199  0.00  0.00    +0.385 N 
ATOM     14  H   UNL     1      -2.494  -0.436  -9.851  0.00  0.00    -0.089 HD
ATOM     15  H   UNL     1      -1.662  -1.858  -9.864  0.00  0.00    -0.089 HD
ATOM     16  H   UNL     1      -2.482  -1.371 -11.207  0.00  0.00    -0.089 HD
ENDBRANCH  12  13
ENDBRANCH  11  12
ENDBRANCH   8  10
ENDBRANCH   2   5
BRANCH   1  17
ATOM     17  C   UNL     1      -1.295  -0.772   0.011  0.00  0.00    +0.139 C 
BRANCH  17  23
ATOM     18  C   UNL     1      -0.017   1.379   0.010  0.00  0.00    +0.006 A 
ATOM     19  C   UNL     1       1.167   2.088   0.002  0.00  0.00    +0.019 A 
ATOM     20  C   UNL     1       2.385   1.407  -0.013  0.00  0.00    +0.052 A 
ATOM     21  C   UNL     1       2.397   0.011  -0.021  0.00  0.00    +0.019 A 
ATOM     22  C   UNL     1       1.206  -0.686  -0.013  0.00  0.00    +0.006 A 
ATOM     23  C   UNL     1       0.002  -0.004   0.002  0.00  0.00    -0.030 A 
BRANCH  20  24
ATOM     24  C   UNL     1       3.617   2.136  -0.021  0.00  0.00    +0.099 C 
ATOM     25  N   UNL     1       4.595   2.715  -0.028  0.00  0.00    -0.191 NA
ENDBRANCH  20  24
ENDBRANCH  17  23
ENDBRANCH   1  17
TORSDOF 7
