REMARK  Name = ZINC36813985
REMARK  3 active torsions:
REMARK  status: ('A' for Active; 'I' for Inactive)
REMARK    1  A    between atoms: C_3  and  O_12
REMARK    2  A    between atoms: C_10  and  N_11
REMARK    3  A    between atoms: O_12  and  C_13
REMARK                            x       y       z     vdW  Elec       q    Type
REMARK                         _______ _______ _______ _____ _____    ______ ____
ROOT
ATOM      1  C   UNL     1       0.140   1.317  -1.016  0.00  0.00    +0.027 A 
ATOM      2  C   UNL     1       1.271   2.067  -0.709  0.00  0.00    +0.049 A 
ATOM      3  C   UNL     1       2.441   1.454  -0.317  0.00  0.00    +0.136 A 
ATOM      4  C   UNL     1       2.493   0.052  -0.225  0.00  0.00    +0.029 A 
ATOM      5  C   UNL     1       3.658  -0.628   0.171  0.00  0.00    +0.032 A 
ATOM      6  C   UNL     1       3.631  -1.988   0.237  0.00  0.00    +0.111 A 
ATOM      7  N   UNL     1       2.539  -2.681  -0.061  0.00  0.00    -0.263 NA
ATOM      8  C   UNL     1       1.417  -2.112  -0.437  0.00  0.00    +0.121 A 
ATOM      9  C   UNL     1       1.341  -0.715  -0.537  0.00  0.00    +0.024 A 
ATOM     10  C   UNL     1       0.159  -0.059  -0.936  0.00  0.00    +0.034 A 
ENDROOT
BRANCH  10  11
ATOM     11  N   UNL     1      -0.984  -0.797  -1.247  0.00  0.00    -0.357 N 
ATOM     12  H   UNL     1      -1.795  -0.342  -1.521  0.00  0.00    +0.142 HD
ATOM     13  H   UNL     1      -0.967  -1.765  -1.189  0.00  0.00    +0.142 HD
ENDBRANCH  10  11
BRANCH   3  14
ATOM     14  O   UNL     1       3.538   2.200  -0.021  0.00  0.00    -0.455 OA
BRANCH  14  15
ATOM     15  C   UNL     1       3.435   3.551  -0.118  0.00  0.00    +0.131 A 
ATOM     16  C   UNL     1       3.036   4.298   0.981  0.00  0.00    +0.066 A 
ATOM     17  C   UNL     1       2.933   5.673   0.880  0.00  0.00    +0.046 A 
ATOM     18  C   UNL     1       3.226   6.305  -0.316  0.00  0.00    +0.040 A 
ATOM     19  C   UNL     1       3.624   5.561  -1.413  0.00  0.00    +0.046 A 
ATOM     20  C   UNL     1       3.735   4.187  -1.315  0.00  0.00    +0.066 A 
ATOM     21 CL   UNL     1       3.990   6.356  -2.912  0.00  0.00    -0.083 Cl
ATOM     22 CL   UNL     1       2.433   6.609   2.255  0.00  0.00    -0.083 Cl
ENDBRANCH  14  15
ENDBRANCH   3  14
TORSDOF 3
