REMARK  Name = ZINC39198274
REMARK  6 active torsions:
REMARK  status: ('A' for Active; 'I' for Inactive)
REMARK    1  A    between atoms: C_10  and  N_12
REMARK    2  A    between atoms: C_13  and  C_15
REMARK    3  A    between atoms: N_20  and  C_22
REMARK    4  A    between atoms: C_22  and  C_23
REMARK    5  A    between atoms: C_28  and  N_29
REMARK    6  A    between atoms: N_29  and  C_30
REMARK                            x       y       z     vdW  Elec       q    Type
REMARK                         _______ _______ _______ _____ _____    ______ ____
ROOT
ATOM      1  C   UNL     1       5.884   3.178  -3.248  0.00  0.00    +0.058 C 
ATOM      2  C   UNL     1       5.657   4.384  -4.164  0.00  0.00    +0.009 C 
ATOM      3  C   UNL     1       6.989   5.106  -4.381  0.00  0.00    -0.018 C 
ATOM      4  C   UNL     1       7.570   5.511  -3.024  0.00  0.00    -0.078 C 
ATOM      5  N   UNL     1       7.789   4.313  -2.205  0.00  0.00    +0.383 N 
ATOM      6  C   UNL     1       6.506   3.653  -1.933  0.00  0.00    -0.066 C 
ATOM      7  H   UNL     1       8.396   3.675  -2.698  0.00  0.00    -0.081 HD
ENDROOT
BRANCH   1   9
ATOM      8  N   UNL     1       3.833   2.005  -3.981  0.00  0.00    -0.308 N 
ATOM      9  C   UNL     1       4.566   2.505  -2.966  0.00  0.00    +0.215 C 
ATOM     10  O   UNL     1       4.164   2.412  -1.825  0.00  0.00    -0.276 OA
ATOM     11  H   UNL     1       4.155   2.080  -4.893  0.00  0.00    +0.149 HD
BRANCH   8  21
ATOM     12  C   UNL     1      -0.448   4.383  -3.395  0.00  0.00    +0.000 A 
ATOM     13  C   UNL     1       0.802   4.563  -2.833  0.00  0.00    +0.000 A 
ATOM     14  C   UNL     1       1.754   3.572  -2.948  0.00  0.00    +0.006 A 
ATOM     15  C   UNL     1       1.468   2.394  -3.626  0.00  0.00    -0.024 A 
ATOM     16  C   UNL     1       0.225   2.216  -4.190  0.00  0.00    -0.042 A 
ATOM     17  C   UNL     1      -0.734   3.214  -4.070  0.00  0.00    +0.004 A 
ATOM     18  C   UNL     1      -0.149   0.973  -4.953  0.00  0.00    +0.035 C 
ATOM     19  C   UNL     1       0.818  -0.166  -4.633  0.00  0.00    +0.007 C 
ATOM     20  C   UNL     1       2.250   0.349  -4.820  0.00  0.00    +0.027 C 
ATOM     21  C   UNL     1       2.552   1.351  -3.707  0.00  0.00    +0.103 C 
ENDBRANCH   8  21
ENDBRANCH   1   9
BRANCH   5  22
ATOM     22  C   UNL     1       8.418   4.699  -0.935  0.00  0.00    -0.040 C 
BRANCH  22  23
ATOM     23  C   UNL     1       9.704   5.435  -1.214  0.00  0.00    -0.024 A 
ATOM     24  C   UNL     1       9.742   6.817  -1.176  0.00  0.00    +0.006 A 
ATOM     25  C   UNL     1      10.948   7.454  -1.439  0.00  0.00    +0.020 A 
ATOM     26  C   UNL     1      12.064   6.695  -1.729  0.00  0.00    +0.113 A 
ATOM     27  N   UNL     1      11.998   5.378  -1.758  0.00  0.00    -0.240 NA
ATOM     28  C   UNL     1      10.868   4.733  -1.508  0.00  0.00    +0.124 A 
BRANCH  28  29
ATOM     29  N   UNL     1      10.845   3.343  -1.544  0.00  0.00    -0.299 N 
ATOM     30  H   UNL     1      10.004   2.870  -1.449  0.00  0.00    +0.154 HD
BRANCH  29  31
ATOM     31  C   UNL     1      12.035   2.628  -1.715  0.00  0.00    +0.033 A 
ATOM     32  C   UNL     1      13.050   3.147  -2.509  0.00  0.00    +0.026 A 
ATOM     33  C   UNL     1      14.224   2.439  -2.677  0.00  0.00    +0.040 A 
ATOM     34  C   UNL     1      14.389   1.213  -2.055  0.00  0.00    +0.124 A 
ATOM     35  C   UNL     1      13.378   0.693  -1.265  0.00  0.00    +0.040 A 
ATOM     36  C   UNL     1      12.205   1.401  -1.089  0.00  0.00    +0.026 A 
ATOM     37  F   UNL     1      15.539   0.522  -2.222  0.00  0.00    -0.205 F 
ENDBRANCH  29  31
ENDBRANCH  28  29
ENDBRANCH  22  23
ENDBRANCH   5  22
TORSDOF 6
