REMARK  Name = ZINC01721122
REMARK  4 active torsions:
REMARK  status: ('A' for Active; 'I' for Inactive)
REMARK    1  A    between atoms: C_1  and  N_2
REMARK    2  A    between atoms: N_6  and  N_7
REMARK    3  A    between atoms: N_7  and  C_8
REMARK    4  A    between atoms: N_18  and  C_21
REMARK                            x       y       z     vdW  Elec       q    Type
REMARK                         _______ _______ _______ _____ _____    ______ ____
ROOT
ATOM      1  C   UNL     1       4.698   9.412   0.431  0.00  0.00    +0.143 C 
ATOM      2  N   UNL     1       4.662   7.952   0.311  0.00  0.00    -0.223 N 
ATOM      3  C   UNL     1       3.470   7.328   0.220  0.00  0.00    +0.279 C 
ATOM      4  O   UNL     1       2.431   7.960   0.237  0.00  0.00    -0.268 OA
ATOM      5  C   UNL     1       3.461   5.856   0.100  0.00  0.00    +0.206 C 
ATOM      6  N   UNL     1       2.332   5.179   0.007  0.00  0.00    -0.172 NA
ATOM      7  C   UNL     1       4.771   5.175   0.095  0.00  0.00    +0.279 C 
ATOM      8  O   UNL     1       4.846   3.965   0.004  0.00  0.00    -0.268 OA
ATOM      9  N   UNL     1       5.883   5.934   0.188  0.00  0.00    -0.223 N 
ATOM     10  C   UNL     1       5.815   7.268   0.294  0.00  0.00    +0.317 C 
ATOM     11  O   UNL     1       6.854   7.892   0.380  0.00  0.00    -0.252 OA
ATOM     12  C   UNL     1       7.196   5.283   0.179  0.00  0.00    +0.143 C 
ENDROOT
BRANCH   6  13
ATOM     13  N   UNL     1       2.358   3.910  -0.224  0.00  0.00    -0.236 N 
ATOM     14  H   UNL     1       3.204   3.465  -0.392  0.00  0.00    +0.174 HD
BRANCH  13  15
ATOM     15  C   UNL     1       1.171   3.178  -0.233  0.00  0.00    +0.063 A 
ATOM     16  C   UNL     1      -0.041   3.814   0.008  0.00  0.00    +0.041 A 
ATOM     17  C   UNL     1      -1.215   3.086  -0.001  0.00  0.00    +0.020 A 
ATOM     18  C   UNL     1      -1.186   1.725  -0.255  0.00  0.00    +0.016 A 
ATOM     19  C   UNL     1       0.019   1.088  -0.490  0.00  0.00    +0.018 A 
ATOM     20  C   UNL     1       1.197   1.810  -0.482  0.00  0.00    +0.040 A 
ATOM     21 BR   UNL     1       2.843   0.939  -0.810  0.00  0.00    -0.048 Br
ATOM     22 BR   UNL     1      -2.865   3.950   0.326  0.00  0.00    -0.050 Br
ENDBRANCH  13  15
ENDBRANCH   6  13
TORSDOF 2
