REMARK  Name = ZINC20806330
REMARK  5 active torsions:
REMARK  status: ('A' for Active; 'I' for Inactive)
REMARK    1  A    between atoms: C_6  and  C_7
REMARK    2  A    between atoms: N_12  and  C_13
REMARK    3  A    between atoms: C_13  and  C_14
REMARK    4  A    between atoms: N_16  and  C_17
REMARK    5  A    between atoms: C_22  and  C_23
REMARK                            x       y       z     vdW  Elec       q    Type
REMARK                         _______ _______ _______ _____ _____    ______ ____
ROOT
ATOM      1  C   UNL     1      -0.303   8.791  -1.006  0.00  0.00    -0.037 C 
ATOM      2  C   UNL     1       0.137  10.106  -0.314  0.00  0.00    -0.013 C 
ATOM      3  C   UNL     1       1.031   9.570   0.835  0.00  0.00    -0.020 C 
ATOM      4  C   UNL     1       0.322   8.263   1.248  0.00  0.00    -0.077 C 
ATOM      5  N   UNL     1      -0.495   7.829   0.099  0.00  0.00    +0.390 N 
ATOM      6  H   UNL     1      -1.556   7.800   0.390  0.00  0.00    -0.080 HD
ENDROOT
BRANCH   1  12
ATOM      7  C   UNL     1      -2.787   9.082  -1.055  0.00  0.00    +0.006 A 
ATOM      8  C   UNL     1      -3.979   9.273  -1.733  0.00  0.00    +0.049 A 
ATOM      9  C   UNL     1      -3.974   9.378  -3.113  0.00  0.00    +0.162 A 
ATOM     10  C   UNL     1      -2.778   9.294  -3.812  0.00  0.00    +0.162 A 
ATOM     11  C   UNL     1      -1.587   9.110  -3.131  0.00  0.00    +0.051 A 
ATOM     12  C   UNL     1      -1.596   8.999  -1.752  0.00  0.00    -0.057 A 
ATOM     13  O   UNL     1      -2.784   9.400  -5.173  0.00  0.00    -0.488 OA
ATOM     14  C   UNL     1      -3.122  10.685  -5.699  0.00  0.00    +0.232 C 
ATOM     15  C   UNL     1      -4.631  10.848  -5.791  0.00  0.00    +0.082 C 
ATOM     16  C   UNL     1      -5.300  10.837  -4.425  0.00  0.00    +0.232 C 
ATOM     17  O   UNL     1      -5.142   9.565  -3.794  0.00  0.00    -0.488 OA
ENDBRANCH   1  12
BRANCH   5  18
ATOM     18  C   UNL     1      -0.133   6.468  -0.319  0.00  0.00    +0.020 C 
BRANCH  18  19
ATOM     19  C   UNL     1      -0.583   5.483   0.729  0.00  0.00    +0.201 C 
ATOM     20  O   UNL     1      -1.151   5.877   1.726  0.00  0.00    -0.278 OA
ATOM     21  N   UNL     1      -0.356   4.166   0.558  0.00  0.00    -0.287 N 
ATOM     22  H   UNL     1       0.237   3.817  -0.300  0.00  0.00    +0.155 HD
BRANCH  21  23
ATOM     23  C   UNL     1      -0.875   3.242   1.473  0.00  0.00    +0.045 A 
ATOM     24  C   UNL     1      -2.000   3.561   2.222  0.00  0.00    +0.025 A 
ATOM     25  C   UNL     1      -2.510   2.648   3.123  0.00  0.00    +0.022 A 
ATOM     26  C   UNL     1      -1.902   1.414   3.279  0.00  0.00    +0.042 A 
ATOM     27  C   UNL     1      -0.784   1.092   2.530  0.00  0.00    +0.034 A 
ATOM     28  C   UNL     1      -0.267   2.004   1.631  0.00  0.00    +0.077 A 
ATOM     29 CL   UNL     1      -2.546   0.268   4.413  0.00  0.00    -0.084 Cl
BRANCH  28  30
ATOM     30  C   UNL     1       0.954   1.654   0.820  0.00  0.00    +0.419 C 
ATOM     31  F   UNL     1       1.382   0.365   1.154  0.00  0.00    -0.166 F 
ATOM     32  F   UNL     1       1.975   2.570   1.095  0.00  0.00    -0.166 F 
ATOM     33  F   UNL     1       0.638   1.702  -0.542  0.00  0.00    -0.166 F 
ENDBRANCH  28  30
ENDBRANCH  21  23
ENDBRANCH  18  19
ENDBRANCH   5  18
TORSDOF 5
