REMARK  Name = ZINC64996386
REMARK  6 active torsions:
REMARK  status: ('A' for Active; 'I' for Inactive)
REMARK    1  A    between atoms: C_1  and  C_2
REMARK    2  A    between atoms: C_4  and  C_26
REMARK    3  A    between atoms: C_8  and  C_25
REMARK    4  A    between atoms: C_9  and  C_11
REMARK    5  A    between atoms: C_17  and  C_19
REMARK    6  A    between atoms: N_21  and  C_22
REMARK                            x       y       z     vdW  Elec       q    Type
REMARK                         _______ _______ _______ _____ _____    ______ ____
ROOT
ATOM      1  C   UNL     1       1.166  -0.544   4.823  0.00  0.00    +0.254 C 
ATOM      2  O   UNL     1       1.144   0.636   5.117  0.00  0.00    -0.269 OA
ATOM      3  N   UNL     1       1.671  -1.445   5.689  0.00  0.00    -0.296 N 
ATOM      4  C   UNL     1       1.651  -2.880   5.373  0.00  0.00    +0.108 C 
ATOM      5  C   UNL     1       3.073  -3.434   5.510  0.00  0.00    +0.020 C 
ATOM      6  C   UNL     1       3.612  -3.105   6.904  0.00  0.00    +0.016 C 
ATOM      7  C   UNL     1       3.667  -1.587   7.087  0.00  0.00    +0.092 C 
ATOM      8  C   UNL     1       2.257  -1.010   6.964  0.00  0.00    +0.120 C 
ENDROOT
BRANCH   1  17
ATOM      9  C   UNL     1       1.064   0.672  -0.552  0.00  0.00    +0.044 C 
ATOM     10  C   UNL     1       0.290  -0.567  -0.183  0.00  0.00    -0.039 A 
ATOM     11  C   UNL     1      -0.357  -1.289  -1.143  0.00  0.00    +0.027 A 
ATOM     12  C   UNL     1      -1.071  -2.430  -0.809  0.00  0.00    +0.040 A 
ATOM     13  N   UNL     1      -1.135  -2.835   0.446  0.00  0.00    -0.245 NA
ATOM     14  C   UNL     1      -0.530  -2.174   1.406  0.00  0.00    +0.110 A 
ATOM     15  C   UNL     1       0.228  -1.001   1.167  0.00  0.00    +0.014 A 
ATOM     16  C   UNL     1       0.817  -0.418   2.301  0.00  0.00    -0.022 A 
ATOM     17  C   UNL     1       0.643  -0.987   3.523  0.00  0.00    +0.080 A 
ATOM     18  S   UNL     1      -0.388  -2.398   3.163  0.00  0.00    -0.064 S 
ATOM     19  C   UNL     1       1.641   0.836   2.164  0.00  0.00    +0.046 C 
ATOM     20  C   UNL     1      -1.778  -3.213  -1.885  0.00  0.00    +0.065 C 
ENDBRANCH   1  17
BRANCH   7  21
ATOM     21  C   UNL     1       4.228  -1.263   8.447  0.00  0.00    +0.218 C 
ATOM     22  O   UNL     1       4.553  -2.159   9.198  0.00  0.00    -0.275 OA
ATOM     23  N   UNL     1       4.369   0.021   8.830  0.00  0.00    -0.312 N 
ATOM     24  H   UNL     1       4.109   0.737   8.230  0.00  0.00    +0.149 HD
BRANCH  23  25
ATOM     25  C   UNL     1       4.915   0.336  10.153  0.00  0.00    +0.073 C 
ATOM     26  C   UNL     1       4.221   1.435  10.960  0.00  0.00    +0.024 C 
ATOM     27  C   UNL     1       5.592   1.696  10.332  0.00  0.00    +0.024 C 
ENDBRANCH  23  25
ENDBRANCH   7  21
TORSDOF 3
