REMARK  Name = ZINC12818196
REMARK  4 active torsions:
REMARK  status: ('A' for Active; 'I' for Inactive)
REMARK    1  A    between atoms: C_1  and  C_2
REMARK    2  A    between atoms: C_3  and  C_13
REMARK    3  A    between atoms: N_18  and  S_21
REMARK    4  A    between atoms: S_21  and  C_24
REMARK                            x       y       z     vdW  Elec       q    Type
REMARK                         _______ _______ _______ _____ _____    ______ ____
ROOT
ATOM      1  C   UNL     1      -1.119   0.689   2.158  0.00  0.00    +0.248 C 
ATOM      2  O   UNL     1      -1.016  -0.507   1.971  0.00  0.00    -0.270 OA
ATOM      3  N   UNL     1      -0.687   1.557   1.222  0.00  0.00    -0.295 N 
ATOM      4  C   UNL     1       0.022   1.078   0.027  0.00  0.00    +0.125 C 
ATOM      5  C   UNL     1      -0.706   1.594  -1.220  0.00  0.00    +0.128 C 
ATOM      6  N   UNL     1      -0.936   3.037  -1.065  0.00  0.00    -0.174 NA
ATOM      7  C   UNL     1      -1.649   3.517   0.127  0.00  0.00    +0.128 C 
ATOM      8  C   UNL     1      -0.921   3.001   1.374  0.00  0.00    +0.125 C 
ENDROOT
BRANCH   1  11
ATOM      9  C   UNL     1      -3.742  -0.223   2.946  0.00  0.00    +0.066 C 
ATOM     10  C   UNL     1      -2.994   0.759   3.811  0.00  0.00    +0.051 A 
ATOM     11  C   UNL     1      -1.717   1.192   3.411  0.00  0.00    +0.058 A 
ATOM     12  C   UNL     1      -1.025   2.102   4.203  0.00  0.00    +0.025 A 
ATOM     13  C   UNL     1      -1.639   2.549   5.384  0.00  0.00    +0.001 A 
ATOM     14  C   UNL     1      -1.001   3.469   6.234  0.00  0.00    +0.013 A 
ATOM     15  C   UNL     1      -1.624   3.881   7.371  0.00  0.00    +0.039 A 
ATOM     16  C   UNL     1      -2.892   3.401   7.705  0.00  0.00    +0.125 A 
ATOM     17  C   UNL     1      -3.540   2.508   6.902  0.00  0.00    +0.066 A 
ATOM     18  C   UNL     1      -2.928   2.060   5.720  0.00  0.00    +0.074 A 
ATOM     19  N   UNL     1      -3.545   1.184   4.918  0.00  0.00    -0.251 NA
ATOM     20  F   UNL     1      -3.487   3.827   8.840  0.00  0.00    -0.205 F 
ENDBRANCH   1  11
BRANCH   6  21
ATOM     21  S   UNL     1      -0.403   4.104  -2.214  0.00  0.00    +0.061 S 
ATOM     22  O   UNL     1      -0.257   5.360  -1.566  0.00  0.00    -0.153 OA
ATOM     23  O   UNL     1       0.671   3.467  -2.892  0.00  0.00    -0.153 OA
BRANCH  21  24
ATOM     24  C   UNL     1      -1.700   4.293  -3.392  0.00  0.00    +0.106 A 
ATOM     25  C   UNL     1      -1.759   3.460  -4.494  0.00  0.00    +0.029 A 
ATOM     26  C   UNL     1      -2.779   3.605  -5.416  0.00  0.00    +0.017 A 
ATOM     27  C   UNL     1      -3.735   4.590  -5.240  0.00  0.00    +0.018 A 
ATOM     28  C   UNL     1      -3.672   5.426  -4.140  0.00  0.00    +0.017 A 
ATOM     29  C   UNL     1      -2.655   5.277  -3.216  0.00  0.00    +0.029 A 
ATOM     30 BR   UNL     1      -5.127   4.792  -6.504  0.00  0.00    -0.050 Br
ENDBRANCH  21  24
ENDBRANCH   6  21
TORSDOF 3
