REMARK  Name = ZINC33223778
REMARK  6 active torsions:
REMARK  status: ('A' for Active; 'I' for Inactive)
REMARK    1  A    between atoms: C_1  and  C_2
REMARK    2  A    between atoms: C_4  and  N_11
REMARK    3  A    between atoms: C_6  and  C_8
REMARK    4  A    between atoms: C_8  and  C_9
REMARK    5  A    between atoms: C_8  and  C_10
REMARK    6  A    between atoms: C_17  and  C_19
REMARK                            x       y       z     vdW  Elec       q    Type
REMARK                         _______ _______ _______ _____ _____    ______ ____
ROOT
ATOM      1  N   UNL     1       2.125  -2.713  -1.943  0.00  0.00    -0.312 N 
ATOM      2  C   UNL     1       3.027  -2.314  -3.031  0.00  0.00    +0.125 C 
ATOM      3  C   UNL     1       4.364  -1.855  -2.439  0.00  0.00    +0.127 C 
ATOM      4  N   UNL     1       4.878  -2.920  -1.564  0.00  0.00    -0.295 N 
ATOM      5  C   UNL     1       3.981  -3.468  -0.535  0.00  0.00    +0.127 C 
ATOM      6  C   UNL     1       2.659  -3.863  -1.202  0.00  0.00    +0.125 C 
ATOM      7  C   UNL     1       6.137  -3.381  -1.701  0.00  0.00    +0.248 C 
ATOM      8  O   UNL     1       6.572  -4.201  -0.917  0.00  0.00    -0.270 OA
ENDROOT
BRANCH   1  12
ATOM      9  C   UNL     1      -1.898  -1.330  -4.419  0.00  0.00    +0.063 C 
ATOM     10  C   UNL     1      -1.106  -2.332  -3.620  0.00  0.00    +0.017 A 
ATOM     11  C   UNL     1       0.158  -2.018  -3.161  0.00  0.00    +0.064 A 
ATOM     12  C   UNL     1       0.854  -2.979  -2.425  0.00  0.00    +0.125 A 
ATOM     13  N   UNL     1       0.276  -4.155  -2.194  0.00  0.00    -0.219 NA
ATOM     14  C   UNL     1      -0.932  -4.412  -2.651  0.00  0.00    +0.112 A 
ATOM     15  N   UNL     1      -1.614  -3.526  -3.349  0.00  0.00    -0.347 N 
ATOM     16  H   UNL     1      -2.620  -3.790  -3.708  0.00  0.00    +0.167 HD
BRANCH  14  17
ATOM     17  C   UNL     1      -1.552  -5.756  -2.368  0.00  0.00    +0.049 C 
ATOM     18  C   UNL     1      -2.849  -5.564  -1.578  0.00  0.00    +0.015 C 
ATOM     19  C   UNL     1      -1.860  -6.465  -3.688  0.00  0.00    +0.015 C 
ENDBRANCH  14  17
ENDBRANCH   1  12
BRANCH   7  20
ATOM     20  C   UNL     1       6.988  -2.889  -2.804  0.00  0.00    +0.051 A 
ATOM     21  C   UNL     1       7.200  -1.519  -2.970  0.00  0.00    +0.034 A 
ATOM     22  C   UNL     1       7.999  -1.067  -4.000  0.00  0.00    +0.042 A 
ATOM     23  C   UNL     1       8.583  -1.968  -4.874  0.00  0.00    +0.021 A 
ATOM     24  C   UNL     1       8.373  -3.326  -4.719  0.00  0.00    +0.016 A 
ATOM     25  C   UNL     1       7.579  -3.792  -3.690  0.00  0.00    +0.026 A 
ATOM     26  I   UNL     1       7.263  -5.850  -3.457  0.00  0.00    -0.043 I 
ATOM     27 CL   UNL     1       8.269   0.636  -4.203  0.00  0.00    -0.084 Cl
ENDBRANCH   7  20
TORSDOF 3
