REMARK  Name = ZINC59063492
REMARK  15 active torsions:
REMARK  status: ('A' for Active; 'I' for Inactive)
REMARK    1  A    between atoms: C_1  and  C_2
REMARK    2  A    between atoms: C_2  and  C_3
REMARK    3  A    between atoms: C_3  and  C_4
REMARK    4  A    between atoms: C_4  and  C_5
REMARK    5  A    between atoms: C_8  and  N_11
REMARK    6  A    between atoms: N_11  and  C_12
REMARK    7  A    between atoms: C_12  and  N_14
REMARK    8  A    between atoms: N_14  and  C_15
REMARK    9  A    between atoms: N_14  and  C_24
REMARK   10  A    between atoms: C_15  and  C_16
REMARK   11  A    between atoms: C_19  and  C_22
REMARK   12  A    between atoms: C_22  and  C_23
REMARK   13  A    between atoms: C_24  and  C_25
REMARK   14  A    between atoms: C_28  and  O_31
REMARK   15  A    between atoms: O_31  and  C_32
REMARK                            x       y       z     vdW  Elec       q    Type
REMARK                         _______ _______ _______ _____ _____    ______ ____
ROOT
ATOM      1  N   UNL     1       3.517  -4.419   8.109  0.00  0.00    -0.304 N 
ENDROOT
BRANCH   1   2
ATOM      2  C   UNL     1       2.846  -4.070   6.994  0.00  0.00    +0.138 C 
ATOM      3  S   UNL     1       1.154  -3.815   7.058  0.00  0.00    -0.018 S 
BRANCH   2   4
ATOM      4  N   UNL     1       3.506  -3.920   5.829  0.00  0.00    -0.297 N 
ATOM      5  H   UNL     1       4.449  -4.142   5.774  0.00  0.00    +0.154 HD
BRANCH   4   9
ATOM      6  C   UNL     1       1.499  -2.507   2.463  0.00  0.00    -0.047 A 
ATOM      7  C   UNL     1       2.396  -3.553   2.343  0.00  0.00    +0.005 A 
ATOM      8  C   UNL     1       3.063  -4.024   3.457  0.00  0.00    +0.023 A 
ATOM      9  C   UNL     1       2.833  -3.446   4.699  0.00  0.00    +0.033 A 
ATOM     10  C   UNL     1       1.931  -2.395   4.816  0.00  0.00    +0.023 A 
ATOM     11  C   UNL     1       1.272  -1.925   3.697  0.00  0.00    +0.005 A 
BRANCH   6  12
ATOM     12  C   UNL     1       0.773  -1.996   1.246  0.00  0.00    +0.035 C 
BRANCH  12  13
ATOM     13  C   UNL     1       1.597  -0.886   0.589  0.00  0.00    +0.004 C 
BRANCH  13  15
ATOM     14  C   UNL     1       1.683   0.743  -1.303  0.00  0.00    +0.004 C 
ATOM     15  C   UNL     1       0.859  -0.367  -0.647  0.00  0.00    -0.003 C 
ENDBRANCH  13  15
ENDBRANCH  12  13
ENDBRANCH   6  12
ENDBRANCH   4   9
ENDBRANCH   2   4
ENDBRANCH   1   2
BRANCH   1  16
ATOM     16  C   UNL     1       2.799  -4.582   9.376  0.00  0.00    +0.142 C 
BRANCH  16  17
ATOM     17  C   UNL     1       2.335  -6.009   9.511  0.00  0.00    -0.030 A 
ATOM     18  C   UNL     1       1.097  -6.383   9.021  0.00  0.00    +0.005 A 
ATOM     19  C   UNL     1       0.672  -7.692   9.145  0.00  0.00    +0.004 A 
ATOM     20  C   UNL     1       1.484  -8.628   9.758  0.00  0.00    -0.048 A 
ATOM     21  C   UNL     1       2.722  -8.255  10.247  0.00  0.00    +0.004 A 
ATOM     22  C   UNL     1       3.149  -6.946  10.119  0.00  0.00    +0.005 A 
BRANCH  20  23
ATOM     23  C   UNL     1       1.020 -10.055   9.894  0.00  0.00    +0.032 C 
ATOM     24  C   UNL     1       1.460 -10.854   8.666  0.00  0.00    +0.009 C 
ENDBRANCH  20  23
ENDBRANCH  16  17
ENDBRANCH   1  16
BRANCH   1  25
ATOM     25  C   UNL     1       4.965  -4.637   8.055  0.00  0.00    +0.142 C 
BRANCH  25  26
ATOM     26  C   UNL     1       5.679  -3.340   8.335  0.00  0.00    -0.030 A 
ATOM     27  C   UNL     1       5.995  -2.487   7.294  0.00  0.00    +0.009 A 
ATOM     28  C   UNL     1       6.650  -1.298   7.549  0.00  0.00    +0.046 A 
ATOM     29  C   UNL     1       6.990  -0.959   8.850  0.00  0.00    +0.120 A 
ATOM     30  C   UNL     1       6.671  -1.816   9.893  0.00  0.00    +0.046 A 
ATOM     31  C   UNL     1       6.011  -3.002   9.634  0.00  0.00    +0.009 A 
BRANCH  29  32
ATOM     32  O   UNL     1       7.635   0.210   9.103  0.00  0.00    -0.495 OA
ATOM     33  C   UNL     1       7.953   0.493  10.467  0.00  0.00    +0.277 C 
ENDBRANCH  29  32
ENDBRANCH  25  26
ENDBRANCH   1  25
TORSDOF 12
