REMARK  Name = ZINC00146683
REMARK  3 active torsions:
REMARK  status: ('A' for Active; 'I' for Inactive)
REMARK    1  A    between atoms: C_6  and  C_7
REMARK    2  A    between atoms: C_7  and  O_9
REMARK    3  A    between atoms: O_9  and  C_10
REMARK                            x       y       z     vdW  Elec       q    Type
REMARK                         _______ _______ _______ _____ _____    ______ ____
ROOT
ATOM      1  C   UNL     1       1.253  -2.156   0.021  0.00  0.00    +0.344 C 
ATOM      2  O   UNL     1       0.211  -2.780   0.066  0.00  0.00    -0.245 OA
ENDROOT
BRANCH   1   8
ATOM      3  C   UNL     1       0.012   0.002   0.090  0.00  0.00    +0.016 A 
ATOM      4  C   UNL     1      -0.003   1.381   0.098  0.00  0.00    +0.021 A 
ATOM      5  C   UNL     1       1.187   2.090   0.047  0.00  0.00    +0.041 A 
ATOM      6  C   UNL     1       2.397   1.419  -0.013  0.00  0.00    +0.021 A 
ATOM      7  C   UNL     1       2.425   0.041  -0.021  0.00  0.00    +0.016 A 
ATOM      8  C   UNL     1       1.230  -0.680   0.030  0.00  0.00    +0.059 A 
ATOM      9 CL   UNL     1       1.159   3.825   0.057  0.00  0.00    -0.084 Cl
ENDBRANCH   1   8
BRANCH   1  10
ATOM     10  O   UNL     1       2.429  -2.811  -0.037  0.00  0.00    -0.422 OA
BRANCH  10  11
ATOM     11  C   UNL     1       2.386  -4.166   0.062  0.00  0.00    +0.132 A 
ATOM     12  C   UNL     1       2.739  -4.788   1.250  0.00  0.00    +0.047 A 
ATOM     13  C   UNL     1       2.690  -6.165   1.350  0.00  0.00    +0.019 A 
ATOM     14  C   UNL     1       2.299  -6.924   0.261  0.00  0.00    +0.018 A 
ATOM     15  C   UNL     1       1.951  -6.306  -0.927  0.00  0.00    +0.019 A 
ATOM     16  C   UNL     1       1.994  -4.930  -1.029  0.00  0.00    +0.047 A 
ATOM     17 BR   UNL     1       2.240  -8.809   0.398  0.00  0.00    -0.050 Br
ENDBRANCH  10  11
ENDBRANCH   1  10
TORSDOF 3
