REMARK  Name = ZINC60342246
REMARK  10 active torsions:
REMARK  status: ('A' for Active; 'I' for Inactive)
REMARK    1  A    between atoms: C_1  and  C_2
REMARK    2  A    between atoms: C_2  and  C_4
REMARK    3  A    between atoms: C_2  and  N_18
REMARK    4  A    between atoms: C_9  and  N_10
REMARK    5  A    between atoms: N_13  and  C_16
REMARK    6  A    between atoms: C_19  and  C_21
REMARK    7  A    between atoms: C_25  and  N_27
REMARK    8  A    between atoms: N_30  and  C_31
REMARK    9  A    between atoms: C_31  and  C_32
REMARK   10  A    between atoms: C_31  and  C_33
REMARK                            x       y       z     vdW  Elec       q    Type
REMARK                         _______ _______ _______ _____ _____    ______ ____
ROOT
ATOM      1  N   UNL     1       0.608  -0.843  -1.124  0.00  0.00    -0.305 N 
ATOM      2  C   UNL     1      -0.069  -0.971  -2.282  0.00  0.00    +0.245 C 
ATOM      3  O   UNL     1      -1.278  -0.845  -2.296  0.00  0.00    -0.270 OA
ATOM      4  H   UNL     1       1.573  -0.943  -1.113  0.00  0.00    +0.150 HD
ENDROOT
BRANCH   2   5
ATOM      5  C   UNL     1       0.658  -1.265  -3.535  0.00  0.00    +0.038 A 
ATOM      6  C   UNL     1       2.046  -1.417  -3.521  0.00  0.00    +0.013 A 
ATOM      7  C   UNL     1       2.722  -1.691  -4.692  0.00  0.00    +0.003 A 
ATOM      8  C   UNL     1       2.030  -1.817  -5.882  0.00  0.00    +0.023 A 
ATOM      9  C   UNL     1       0.649  -1.669  -5.907  0.00  0.00    +0.035 A 
ATOM     10  C   UNL     1      -0.041  -1.399  -4.735  0.00  0.00    +0.036 A 
BRANCH   9  11
ATOM     11  N   UNL     1      -0.047  -1.797  -7.115  0.00  0.00    -0.269 N 
ATOM     12  C   UNL     1      -1.154  -1.060  -7.337  0.00  0.00    +0.304 C 
ATOM     13  O   UNL     1      -1.493  -0.215  -6.531  0.00  0.00    -0.253 OA
ATOM     14  N   UNL     1      -1.884  -1.260  -8.451  0.00  0.00    -0.297 N 
ATOM     15  H   UNL     1       0.267  -2.417  -7.792  0.00  0.00    +0.156 HD
ATOM     16  H   UNL     1      -1.613  -1.934  -9.094  0.00  0.00    +0.151 HD
BRANCH  14  17
ATOM     17  C   UNL     1      -3.087  -0.459  -8.693  0.00  0.00    +0.068 C 
ATOM     18  C   UNL     1      -2.695   0.860  -9.362  0.00  0.00    +0.027 C 
ATOM     19  C   UNL     1      -4.039  -1.232  -9.607  0.00  0.00    +0.027 C 
ENDBRANCH  14  17
ENDBRANCH   9  11
ENDBRANCH   2   5
BRANCH   1  21
ATOM     20  C   UNL     1      -0.322   0.960   0.243  0.00  0.00    +0.033 C 
ATOM     21  C   UNL     1      -0.112  -0.551   0.118  0.00  0.00    +0.102 C 
BRANCH  21  22
ATOM     22  C   UNL     1       0.691  -1.046   1.293  0.00  0.00    -0.004 A 
ATOM     23  C   UNL     1       2.062  -1.174   1.188  0.00  0.00    +0.045 A 
ATOM     24  C   UNL     1       2.801  -1.628   2.267  0.00  0.00    +0.124 A 
ATOM     25  C   UNL     1       2.167  -1.955   3.454  0.00  0.00    +0.040 A 
ATOM     26  C   UNL     1       0.796  -1.829   3.563  0.00  0.00    +0.026 A 
ATOM     27  C   UNL     1       0.054  -1.367   2.484  0.00  0.00    +0.035 A 
ATOM     28  F   UNL     1       4.142  -1.753   2.162  0.00  0.00    -0.205 F 
BRANCH  27  29
ATOM     29  N   UNL     1      -1.333  -1.233   2.595  0.00  0.00    -0.333 N 
ATOM     30  C   UNL     1      -2.231  -2.349   2.261  0.00  0.00    +0.086 C 
ATOM     31  C   UNL     1      -3.210  -2.550   3.422  0.00  0.00    -0.060 C 
ATOM     32  N   UNL     1      -3.897  -1.284   3.706  0.00  0.00    +0.380 N 
ATOM     33  C   UNL     1      -2.929  -0.283   4.173  0.00  0.00    -0.060 C 
ATOM     34  C   UNL     1      -1.937   0.028   3.054  0.00  0.00    +0.086 C 
ATOM     35  C   UNL     1      -4.913  -1.502   4.745  0.00  0.00    -0.096 C 
ATOM     36  H   UNL     1      -4.345  -0.950   2.866  0.00  0.00    -0.082 HD
ENDBRANCH  27  29
ENDBRANCH  21  22
ENDBRANCH   1  21
TORSDOF 6
