REMARK  Name = ZINC09081101
REMARK  11 active torsions:
REMARK  status: ('A' for Active; 'I' for Inactive)
REMARK    1  A    between atoms: C_1  and  N_2
REMARK    2  A    between atoms: N_2  and  C_3
REMARK    3  A    between atoms: N_2  and  C_4
REMARK    4  A    between atoms: C_7  and  C_10
REMARK    5  A    between atoms: C_10  and  C_12
REMARK    6  A    between atoms: C_10  and  S_22
REMARK    7  A    between atoms: C_12  and  N_13
REMARK    8  A    between atoms: C_14  and  C_16
REMARK    9  A    between atoms: S_22  and  C_25
REMARK   10  A    between atoms: C_28  and  O_31
REMARK   11  A    between atoms: O_31  and  C_32
REMARK                            x       y       z     vdW  Elec       q    Type
REMARK                         _______ _______ _______ _____ _____    ______ ____
ROOT
ATOM      1  C   UNL     1      -4.870  -2.906   0.033  0.00  0.00    +0.183 C 
ENDROOT
BRANCH   1   5
ATOM      2  C   UNL     1      -1.198  -0.719   0.010  0.00  0.00    +0.029 A 
ATOM      3  C   UNL     1      -1.181  -2.108   0.008  0.00  0.00    +0.023 A 
ATOM      4  C   UNL     1      -2.369  -2.812   0.016  0.00  0.00    +0.007 A 
ATOM      5  C   UNL     1      -3.575  -2.135   0.025  0.00  0.00    -0.021 A 
ATOM      6  C   UNL     1      -3.596  -0.752   0.027  0.00  0.00    +0.007 A 
ATOM      7  C   UNL     1      -2.411  -0.042   0.025  0.00  0.00    +0.023 A 
BRANCH   2   9
ATOM      8  C   UNL     1      -0.018   1.461   0.010  0.00  0.00    +0.129 C 
ATOM      9  N   UNL     1       0.002  -0.004   0.002  0.00  0.00    -0.336 N 
ATOM     10  C   UNL     1       1.281  -0.719  -0.014  0.00  0.00    +0.129 C 
ENDBRANCH   2   9
ENDBRANCH   1   5
BRANCH   1  11
ATOM     11  S   UNL     1      -5.837  -2.478  -1.441  0.00  0.00    +0.005 S 
ATOM     12  O   UNL     1      -6.974  -3.324  -1.542  0.00  0.00    -0.169 OA
ATOM     13  O   UNL     1      -5.972  -1.068  -1.546  0.00  0.00    -0.169 OA
BRANCH  11  14
ATOM     14  C   UNL     1      -4.815  -2.935  -2.801  0.00  0.00    +0.089 A 
ATOM     15  C   UNL     1      -3.924  -2.020  -3.333  0.00  0.00    +0.030 A 
ATOM     16  C   UNL     1      -3.122  -2.376  -4.399  0.00  0.00    +0.047 A 
ATOM     17  C   UNL     1      -3.210  -3.651  -4.938  0.00  0.00    +0.120 A 
ATOM     18  C   UNL     1      -4.104  -4.567  -4.403  0.00  0.00    +0.047 A 
ATOM     19  C   UNL     1      -4.901  -4.208  -3.333  0.00  0.00    +0.030 A 
BRANCH  17  20
ATOM     20  O   UNL     1      -2.422  -4.003  -5.988  0.00  0.00    -0.495 OA
ATOM     21  C   UNL     1      -2.567  -5.332  -6.491  0.00  0.00    +0.277 C 
ENDBRANCH  17  20
ENDBRANCH  11  14
ENDBRANCH   1  11
BRANCH   1  22
ATOM     22  C   UNL     1      -5.668  -2.549   1.288  0.00  0.00    +0.135 C 
BRANCH  22  23
ATOM     23  N   UNL     1      -6.927  -3.299   1.296  0.00  0.00    -0.309 N 
ATOM     24  C   UNL     1      -7.798  -3.144   2.313  0.00  0.00    +0.244 C 
ATOM     25  O   UNL     1      -7.538  -2.382   3.224  0.00  0.00    -0.270 OA
ATOM     26  H   UNL     1      -7.134  -3.907   0.569  0.00  0.00    +0.149 HD
BRANCH  24  27
ATOM     27  C   UNL     1      -9.068  -3.901   2.321  0.00  0.00    +0.037 A 
ATOM     28  C   UNL     1      -9.366  -4.780   1.279  0.00  0.00    +0.013 A 
ATOM     29  C   UNL     1     -10.553  -5.484   1.292  0.00  0.00    +0.001 A 
ATOM     30  C   UNL     1     -11.447  -5.318   2.335  0.00  0.00    +0.000 A 
ATOM     31  C   UNL     1     -11.158  -4.447   3.370  0.00  0.00    +0.001 A 
ATOM     32  C   UNL     1      -9.972  -3.742   3.372  0.00  0.00    +0.013 A 
ENDBRANCH  24  27
ENDBRANCH  22  23
ENDBRANCH   1  22
TORSDOF 8
