REMARK  Name = ZINC45693935
REMARK  10 active torsions:
REMARK  status: ('A' for Active; 'I' for Inactive)
REMARK    1  A    between atoms: C_1  and  C_2
REMARK    2  A    between atoms: C_2  and  N_3
REMARK    3  A    between atoms: N_3  and  C_4
REMARK    4  A    between atoms: N_3  and  C_6
REMARK    5  A    between atoms: C_4  and  C_5
REMARK    6  A    between atoms: C_6  and  C_8
REMARK    7  A    between atoms: C_6  and  C_23
REMARK    8  A    between atoms: C_8  and  N_9
REMARK    9  A    between atoms: N_12  and  C_13
REMARK   10  A    between atoms: C_17  and  C_19
REMARK                            x       y       z     vdW  Elec       q    Type
REMARK                         _______ _______ _______ _____ _____    ______ ____
ROOT
ATOM      1  N   UNL     1       1.393   0.827  -0.935  0.00  0.00    -0.300 N 
ATOM      2  C   UNL     1       2.355   1.771  -0.969  0.00  0.00    +0.304 C 
ATOM      3  O   UNL     1       3.146   1.801  -1.892  0.00  0.00    -0.253 OA
ATOM      4  N   UNL     1       2.440   2.682   0.021  0.00  0.00    -0.269 N 
ATOM      5  H   UNL     1       0.762   0.804  -0.199  0.00  0.00    +0.150 HD
ATOM      6  H   UNL     1       1.853   2.618   0.791  0.00  0.00    +0.156 HD
ENDROOT
BRANCH   4   7
ATOM      7  C   UNL     1       3.375   3.722  -0.062  0.00  0.00    +0.036 A 
ATOM      8  C   UNL     1       3.692   4.274  -1.299  0.00  0.00    +0.026 A 
ATOM      9  C   UNL     1       4.613   5.299  -1.388  0.00  0.00    +0.041 A 
ATOM     10  C   UNL     1       5.227   5.784  -0.248  0.00  0.00    +0.136 A 
ATOM     11  C   UNL     1       4.915   5.235   1.000  0.00  0.00    +0.073 A 
ATOM     12  C   UNL     1       3.979   4.203   1.087  0.00  0.00    +0.039 A 
ATOM     13  F   UNL     1       6.128   6.787  -0.339  0.00  0.00    -0.205 F 
BRANCH  11  14
ATOM     14  C   UNL     1       5.568   5.749   2.221  0.00  0.00    +0.244 C 
ATOM     15  O   UNL     1       6.379   6.651   2.142  0.00  0.00    -0.270 OA
ATOM     16  N   UNL     1       5.265   5.218   3.422  0.00  0.00    -0.325 N 
ATOM     17  H   UNL     1       4.618   4.498   3.484  0.00  0.00    +0.145 HD
ATOM     18  H   UNL     1       5.694   5.556   4.223  0.00  0.00    +0.145 HD
ENDBRANCH  11  14
ENDBRANCH   4   7
BRANCH   1  19
ATOM     19  C   UNL     1       1.301  -0.163  -2.011  0.00  0.00    +0.095 C 
BRANCH  19  20
ATOM     20  C   UNL     1       0.059  -1.031  -1.800  0.00  0.00    -0.020 C 
BRANCH  20  21
ATOM     21  C   UNL     1       0.041  -2.138  -2.822  0.00  0.00    -0.059 A 
ATOM     22  C   UNL     1       1.224  -2.580  -3.384  0.00  0.00    +0.002 A 
ATOM     23  C   UNL     1       1.206  -3.596  -4.321  0.00  0.00    +0.000 A 
ATOM     24  C   UNL     1       0.006  -4.170  -4.697  0.00  0.00    +0.000 A 
ATOM     25  C   UNL     1      -1.177  -3.729  -4.134  0.00  0.00    +0.000 A 
ATOM     26  C   UNL     1      -1.159  -2.716  -3.193  0.00  0.00    +0.002 A 
ENDBRANCH  20  21
BRANCH  20  27
ATOM     27  N   UNL     1       0.091  -1.611  -0.450  0.00  0.00    +0.385 N 
ATOM     28  H   UNL     1       0.179  -0.872   0.232  0.00  0.00    -0.081 HD
BRANCH  27  30
ATOM     29  C   UNL     1      -2.330  -1.381  -0.162  0.00  0.00    -0.017 C 
ATOM     30  C   UNL     1      -1.152  -2.356  -0.208  0.00  0.00    -0.081 C 
ENDBRANCH  27  30
BRANCH  27  31
ATOM     31  C   UNL     1       1.238  -2.522  -0.335  0.00  0.00    -0.081 C 
ATOM     32  C   UNL     1       2.467  -1.738   0.130  0.00  0.00    -0.017 C 
ENDBRANCH  27  31
ENDBRANCH  20  27
ENDBRANCH  19  20
ENDBRANCH   1  19
TORSDOF 8
