REMARK  Name = ZINC00808865
REMARK  8 active torsions:
REMARK  status: ('A' for Active; 'I' for Inactive)
REMARK    1  A    between atoms: C_1  and  C_2
REMARK    2  A    between atoms: C_5  and  N_8
REMARK    3  A    between atoms: C_10  and  C_14
REMARK    4  A    between atoms: C_11  and  C_13
REMARK    5  A    between atoms: C_16  and  C_29
REMARK    6  A    between atoms: C_17  and  N_28
REMARK    7  A    between atoms: C_24  and  C_26
REMARK    8  A    between atoms: C_24  and  C_27
REMARK                            x       y       z     vdW  Elec       q    Type
REMARK                         _______ _______ _______ _____ _____    ______ ____
ROOT
ATOM      1  C   UNL     1       0.984  -7.480   1.224  0.00  0.00    +0.106 C 
ATOM      2  C   UNL     1       2.486  -7.458   1.222  0.00  0.00    +0.098 C 
ATOM      3  C   UNL     1       3.171  -7.093   2.333  0.00  0.00    +0.198 C 
ATOM      4  O   UNL     1       2.528  -6.738   3.458  0.00  0.00    -0.445 OA
ATOM      5  C   UNL     1       1.254  -7.123   3.665  0.00  0.00    +0.115 C 
ATOM      6  C   UNL     1       0.467  -7.492   2.642  0.00  0.00    +0.046 C 
ATOM      7  C   UNL     1      -0.863  -7.902   2.860  0.00  0.00    +0.164 C 
ATOM      8  O   UNL     1      -1.553  -8.216   1.911  0.00  0.00    -0.292 OA
ATOM      9  C   UNL     1      -1.443  -7.958   4.247  0.00  0.00    +0.086 C 
ATOM     10  C   UNL     1      -0.311  -8.216   5.248  0.00  0.00    -0.021 C 
ATOM     11  C   UNL     1       0.732  -7.122   5.082  0.00  0.00    +0.081 C 
ATOM     12  C   UNL     1       0.321  -9.581   4.969  0.00  0.00    +0.012 C 
ATOM     13  C   UNL     1      -0.868  -8.184   6.673  0.00  0.00    +0.012 C 
ENDROOT
BRANCH   1  16
ATOM     14  N   UNL     1       0.057  -4.172  -0.021  0.00  0.00    -0.221 N 
ATOM     15  C   UNL     1       0.697  -4.969   0.874  0.00  0.00    +0.137 A 
ATOM     16  C   UNL     1       0.466  -6.255   0.515  0.00  0.00    +0.025 A 
ATOM     17  C   UNL     1      -0.337  -6.245  -0.631  0.00  0.00    +0.066 A 
ATOM     18  N   UNL     1      -0.587  -5.001  -0.949  0.00  0.00    -0.170 NA
ATOM     19  C   UNL     1      -0.835  -7.461  -1.369  0.00  0.00    +0.068 C 
ATOM     20 CL   UNL     1       1.640  -4.437   2.230  0.00  0.00    -0.062 Cl
BRANCH  14  25
ATOM     21  C   UNL     1      -0.018   1.503   0.010  0.00  0.00    +0.044 C 
ATOM     22  C   UNL     1       0.002  -0.004   0.002  0.00  0.00    -0.050 A 
ATOM     23  C   UNL     1       0.006  -0.688  -1.200  0.00  0.00    +0.005 A 
ATOM     24  C   UNL     1       0.024  -2.068  -1.211  0.00  0.00    +0.028 A 
ATOM     25  C   UNL     1       0.039  -2.771  -0.013  0.00  0.00    +0.067 A 
ATOM     26  C   UNL     1       0.036  -2.082   1.192  0.00  0.00    +0.028 A 
ATOM     27  C   UNL     1       0.023  -0.700   1.196  0.00  0.00    +0.005 A 
ENDBRANCH  14  25
ENDBRANCH   1  16
BRANCH   3  28
ATOM     28  N   UNL     1       4.543  -7.084   2.308  0.00  0.00    -0.328 N 
ATOM     29  H   UNL     1       5.016  -7.338   1.500  0.00  0.00    +0.145 HD
ATOM     30  H   UNL     1       5.041  -6.824   3.099  0.00  0.00    +0.145 HD
ENDBRANCH   3  28
BRANCH   2  31
ATOM     31  C   UNL     1       3.201  -7.828   0.037  0.00  0.00    +0.101 C 
ATOM     32  N   UNL     1       3.767  -8.120  -0.903  0.00  0.00    -0.191 NA
ENDBRANCH   2  31
TORSDOF 4
