REMARK  Name = ZINC09703653
REMARK  6 active torsions:
REMARK  status: ('A' for Active; 'I' for Inactive)
REMARK    1  A    between atoms: C_1  and  C_2
REMARK    2  A    between atoms: C_4  and  N_9
REMARK    3  A    between atoms: C_10  and  C_12
REMARK    4  A    between atoms: C_12  and  N_13
REMARK    5  A    between atoms: C_16  and  C_20
REMARK    6  A    between atoms: C_16  and  C_21
REMARK                            x       y       z     vdW  Elec       q    Type
REMARK                         _______ _______ _______ _____ _____    ______ ____
ROOT
ATOM      1  N   UNL     1      -2.733   2.176  -1.783  0.00  0.00    -0.215 N 
ATOM      2  C   UNL     1      -2.366   1.351  -0.782  0.00  0.00    +0.251 C 
ATOM      3  O   UNL     1      -2.779   0.232  -0.567  0.00  0.00    -0.272 OA
ATOM      4  C   UNL     1      -1.328   2.114   0.018  0.00  0.00    +0.135 C 
ATOM      5  N   UNL     1      -1.221   3.401  -0.692  0.00  0.00    -0.281 N 
ATOM      6  C   UNL     1      -2.078   3.341  -1.728  0.00  0.00    +0.310 C 
ATOM      7  O   UNL     1      -2.240   4.245  -2.524  0.00  0.00    -0.252 OA
ATOM      8  C   UNL     1      -1.805   2.331   1.455  0.00  0.00    +0.047 C 
ATOM      9  H   UNL     1      -0.645   4.145  -0.459  0.00  0.00    +0.152 HD
ENDROOT
BRANCH   4  10
ATOM     10  C   UNL     1      -0.008   1.388   0.002  0.00  0.00    -0.012 A 
ATOM     11  C   UNL     1       0.020   0.006  -0.010  0.00  0.00    +0.010 A 
ATOM     12  C   UNL     1       1.229  -0.663  -0.029  0.00  0.00    +0.050 A 
ATOM     13  C   UNL     1       2.418   0.051  -0.035  0.00  0.00    +0.162 A 
ATOM     14  C   UNL     1       2.390   1.440  -0.026  0.00  0.00    +0.162 A 
ATOM     15  C   UNL     1       1.173   2.105  -0.007  0.00  0.00    +0.055 A 
ATOM     16  O   UNL     1       3.545   2.160  -0.037  0.00  0.00    -0.485 OA
ATOM     17  C   UNL     1       4.742   1.462   0.325  0.00  0.00    +0.270 C 
ATOM     18  C   UNL     1       4.763   0.124  -0.426  0.00  0.00    +0.270 C 
ATOM     19  O   UNL     1       3.601  -0.622  -0.046  0.00  0.00    -0.485 OA
ENDBRANCH   4  10
BRANCH   1  20
ATOM     20  C   UNL     1      -3.725   1.837  -2.807  0.00  0.00    +0.214 C 
BRANCH  20  22
ATOM     21  N   UNL     1      -3.756   0.784  -5.044  0.00  0.00    -0.284 N 
ATOM     22  C   UNL     1      -3.037   1.183  -3.977  0.00  0.00    +0.235 C 
ATOM     23  O   UNL     1      -1.835   1.016  -3.958  0.00  0.00    -0.274 OA
ATOM     24  H   UNL     1      -4.723   0.856  -5.032  0.00  0.00    +0.155 HD
BRANCH  21  28
ATOM     25  C   UNL     1      -3.514   0.275  -9.929  0.00  0.00    +0.045 C 
ATOM     26  C   UNL     1      -2.969   0.003  -8.550  0.00  0.00    -0.035 A 
ATOM     27  C   UNL     1      -3.613   0.512  -7.440  0.00  0.00    +0.027 A 
ATOM     28  C   UNL     1      -3.107   0.265  -6.171  0.00  0.00    +0.034 A 
ATOM     29  C   UNL     1      -1.959  -0.502  -6.021  0.00  0.00    +0.024 A 
ATOM     30  C   UNL     1      -1.321  -1.013  -7.134  0.00  0.00    +0.017 A 
ATOM     31  C   UNL     1      -1.825  -0.761  -8.398  0.00  0.00    +0.021 A 
ATOM     32 BR   UNL     1      -0.949  -1.462  -9.920  0.00  0.00    -0.050 Br
ENDBRANCH  21  28
ENDBRANCH  20  22
ENDBRANCH   1  20
TORSDOF 4
