REMARK  Name = ZINC66209743
REMARK  7 active torsions:
REMARK  status: ('A' for Active; 'I' for Inactive)
REMARK    1  A    between atoms: C_4  and  C_7
REMARK    2  A    between atoms: C_7  and  O_8
REMARK    3  A    between atoms: O_8  and  C_9
REMARK    4  A    between atoms: C_12  and  N_15
REMARK    5  A    between atoms: C_16  and  C_18
REMARK    6  A    between atoms: C_18  and  N_19
REMARK    7  A    between atoms: N_19  and  C_20
REMARK                            x       y       z     vdW  Elec       q    Type
REMARK                         _______ _______ _______ _____ _____    ______ ____
ROOT
ATOM      1  N   UNL     1       8.932  -3.626   1.965  0.00  0.00    -0.284 N 
ATOM      2  C   UNL     1       9.869  -3.581   0.997  0.00  0.00    +0.234 C 
ATOM      3  O   UNL     1       9.700  -2.879   0.022  0.00  0.00    -0.274 OA
ATOM      4  H   UNL     1       9.100  -4.126   2.779  0.00  0.00    +0.155 HD
ENDROOT
BRANCH   1   8
ATOM      5  C   UNL     1       5.312  -1.619   1.460  0.00  0.00    +0.121 A 
ATOM      6  C   UNL     1       5.957  -2.173   0.363  0.00  0.00    +0.047 A 
ATOM      7  C   UNL     1       7.156  -2.838   0.530  0.00  0.00    +0.027 A 
ATOM      8  C   UNL     1       7.716  -2.952   1.795  0.00  0.00    +0.034 A 
ATOM      9  C   UNL     1       7.070  -2.397   2.892  0.00  0.00    +0.027 A 
ATOM     10  C   UNL     1       5.874  -1.728   2.723  0.00  0.00    +0.047 A 
BRANCH   5  11
ATOM     11  O   UNL     1       4.132  -0.965   1.295  0.00  0.00    -0.487 OA
BRANCH  11  12
ATOM     12  C   UNL     1       3.611  -0.892  -0.034  0.00  0.00    +0.264 C 
BRANCH  12  16
ATOM     13  C   UNL     1      -0.085   1.251  -0.000  0.00  0.00    +0.000 A 
ATOM     14  C   UNL     1       1.106   1.930  -0.180  0.00  0.00    +0.000 A 
ATOM     15  C   UNL     1       2.302   1.236  -0.191  0.00  0.00    +0.007 A 
ATOM     16  C   UNL     1       2.307  -0.136  -0.021  0.00  0.00    -0.010 A 
ATOM     17  C   UNL     1       1.117  -0.814   0.160  0.00  0.00    +0.007 A 
ATOM     18  C   UNL     1      -0.079  -0.121   0.169  0.00  0.00    +0.000 A 
ENDBRANCH  12  16
ENDBRANCH  11  12
ENDBRANCH   5  11
ENDBRANCH   1   8
BRANCH   2  19
ATOM     19  C   UNL     1      11.127  -4.401   1.127  0.00  0.00    +0.198 C 
BRANCH  19  20
ATOM     20  N   UNL     1      11.977  -4.179  -0.045  0.00  0.00    -0.335 N 
ATOM     21  H   UNL     1      11.688  -3.575  -0.747  0.00  0.00    +0.147 HD
BRANCH  20  22
ATOM     22  C   UNL     1      13.206  -4.837  -0.152  0.00  0.00    +0.029 A 
ATOM     23  C   UNL     1      13.618  -5.706   0.850  0.00  0.00    +0.024 A 
ATOM     24  C   UNL     1      14.833  -6.355   0.743  0.00  0.00    +0.023 A 
ATOM     25  C   UNL     1      15.639  -6.140  -0.361  0.00  0.00    +0.059 A 
ATOM     26  C   UNL     1      15.230  -5.274  -1.361  0.00  0.00    +0.061 A 
ATOM     27  C   UNL     1      14.013  -4.627  -1.262  0.00  0.00    +0.044 A 
ATOM     28 CL   UNL     1      16.245  -5.006  -2.744  0.00  0.00    -0.082 Cl
ATOM     29 CL   UNL     1      17.165  -6.957  -0.492  0.00  0.00    -0.082 Cl
ENDBRANCH  20  22
ENDBRANCH  19  20
ENDBRANCH   2  19
TORSDOF 7
