REMARK  Name = ZINC39899538
REMARK  6 active torsions:
REMARK  status: ('A' for Active; 'I' for Inactive)
REMARK    1  A    between atoms: C_4  and  O_7
REMARK    2  A    between atoms: O_7  and  C_8
REMARK    3  A    between atoms: C_10  and  O_32
REMARK    4  A    between atoms: C_13  and  N_14
REMARK    5  A    between atoms: C_15  and  C_17
REMARK    6  A    between atoms: C_18  and  C_19
REMARK                            x       y       z     vdW  Elec       q    Type
REMARK                         _______ _______ _______ _____ _____    ______ ____
ROOT
ATOM      1  C   UNL     1       3.992  -1.755  -1.785  0.00  0.00    +0.154 A 
ATOM      2  C   UNL     1       2.775  -2.278  -2.179  0.00  0.00    +0.094 A 
ATOM      3  C   UNL     1       2.259  -3.410  -1.556  0.00  0.00    +0.132 A 
ATOM      4  C   UNL     1       2.974  -4.029  -0.524  0.00  0.00    +0.076 A 
ATOM      5  C   UNL     1       4.217  -3.499  -0.119  0.00  0.00    +0.061 A 
ATOM      6  C   UNL     1       4.726  -2.365  -0.755  0.00  0.00    +0.088 A 
ATOM      7  C   UNL     1       4.975  -4.144   0.967  0.00  0.00    +0.197 C 
ATOM      8  O   UNL     1       6.047  -3.687   1.317  0.00  0.00    -0.287 OA
ATOM      9  C   UNL     1       4.431  -5.346   1.631  0.00  0.00    +0.033 A 
ATOM     10  C   UNL     1       5.139  -5.963   2.659  0.00  0.00    +0.012 A 
ATOM     11  C   UNL     1       4.621  -7.088   3.275  0.00  0.00    +0.001 A 
ATOM     12  C   UNL     1       3.402  -7.606   2.876  0.00  0.00    +0.001 A 
ATOM     13  C   UNL     1       2.686  -7.006   1.857  0.00  0.00    +0.012 A 
ATOM     14  C   UNL     1       3.192  -5.873   1.226  0.00  0.00    +0.033 A 
ATOM     15  C   UNL     1       2.432  -5.225   0.136  0.00  0.00    +0.198 C 
ATOM     16  O   UNL     1       1.360  -5.681  -0.213  0.00  0.00    -0.286 OA
ENDROOT
BRANCH   6  17
ATOM     17  N   UNL     1       5.952  -1.839  -0.367  0.00  0.00    -0.278 N 
ATOM     18  C   UNL     1       6.056  -0.532  -0.054  0.00  0.00    +0.241 C 
ATOM     19  O   UNL     1       5.113   0.213  -0.235  0.00  0.00    -0.270 OA
ATOM     20  H   UNL     1       6.733  -2.412  -0.322  0.00  0.00    +0.155 HD
BRANCH  18  21
ATOM     21  C   UNL     1       7.316  -0.005   0.509  0.00  0.00    +0.075 C 
ATOM     22  C   UNL     1       7.374   1.259   0.958  0.00  0.00    +0.101 C 
BRANCH  22  23
ATOM     23  C   UNL     1       6.146   1.940   1.405  0.00  0.00    +0.380 C 
ATOM     24  O   UNL     1       5.099   1.315   1.496  0.00  0.00    -0.241 OA
ATOM     25  O   UNL     1       6.173   3.130   1.684  0.00  0.00    -0.241 OA
ENDBRANCH  22  23
ENDBRANCH  18  21
ENDBRANCH   6  17
BRANCH   3  26
ATOM     26  O   UNL     1       1.064  -3.914  -1.950  0.00  0.00    -0.506 OA
ATOM     27  H   UNL     1       1.128  -4.573  -2.655  0.00  0.00    +0.292 HD
ENDBRANCH   3  26
BRANCH   1  28
ATOM     28  O   UNL     1       4.483  -0.650  -2.400  0.00  0.00    -0.454 OA
BRANCH  28  32
ATOM     29  C   UNL     1       2.087   1.250  -5.169  0.00  0.00    +0.000 A 
ATOM     30  C   UNL     1       1.731   1.251  -3.833  0.00  0.00    +0.004 A 
ATOM     31  C   UNL     1       2.532   0.616  -2.904  0.00  0.00    +0.046 A 
ATOM     32  C   UNL     1       3.693  -0.024  -3.312  0.00  0.00    +0.129 A 
ATOM     33  C   UNL     1       4.048  -0.023  -4.654  0.00  0.00    +0.046 A 
ATOM     34  C   UNL     1       3.244   0.614  -5.579  0.00  0.00    +0.004 A 
ENDBRANCH  28  32
ENDBRANCH   1  28
TORSDOF 6
