REMARK  Name = ZINC01472237
REMARK  5 active torsions:
REMARK  status: ('A' for Active; 'I' for Inactive)
REMARK    1  A    between atoms: C_4  and  C_7
REMARK    2  A    between atoms: N_10  and  C_12
REMARK    3  A    between atoms: C_19  and  N_34
REMARK    4  A    between atoms: C_20  and  C_32
REMARK    5  A    between atoms: C_21  and  C_23
REMARK                            x       y       z     vdW  Elec       q    Type
REMARK                         _______ _______ _______ _____ _____    ______ ____
ROOT
ATOM      1  C   UNL     1       1.989   4.611  -0.667  0.00  0.00    +0.101 A 
ATOM      2  C   UNL     1       1.055   3.613  -0.371  0.00  0.00    +0.055 A 
ATOM      3  C   UNL     1      -0.181   4.189  -0.332  0.00  0.00    +0.230 A 
ATOM      4  N   UNL     1      -0.029   5.507  -0.593  0.00  0.00    -0.199 N 
ATOM      5  N   UNL     1       1.337   5.752  -0.800  0.00  0.00    -0.163 NA
ATOM      6  O   UNL     1      -1.310   3.483  -0.069  0.00  0.00    -0.423 OA
ATOM      7  C   UNL     1      -1.230   2.138  -0.120  0.00  0.00    +0.200 C 
ATOM      8  C   UNL     1      -0.065   1.454  -0.145  0.00  0.00    +0.098 C 
ATOM      9  C   UNL     1       1.277   2.143  -0.124  0.00  0.00    +0.102 C 
ENDROOT
BRANCH   9  10
ATOM     10  C   UNL     1       1.930   1.946   1.220  0.00  0.00    -0.031 A 
ATOM     11  C   UNL     1       1.334   2.458   2.357  0.00  0.00    +0.008 A 
ATOM     12  C   UNL     1       1.926   2.275   3.593  0.00  0.00    +0.050 A 
ATOM     13  C   UNL     1       3.125   1.588   3.693  0.00  0.00    +0.166 A 
ATOM     14  C   UNL     1       3.728   1.077   2.546  0.00  0.00    +0.167 A 
ATOM     15  C   UNL     1       3.126   1.259   1.312  0.00  0.00    +0.054 A 
ATOM     16  O   UNL     1       4.886   0.450   2.905  0.00  0.00    -0.453 OA
ATOM     17  C   UNL     1       5.192   0.934   4.226  0.00  0.00    +0.466 C 
ATOM     18  O   UNL     1       3.905   1.281   4.770  0.00  0.00    -0.453 OA
ENDBRANCH   9  10
BRANCH   1  22
ATOM     19  C   UNL     1       6.188   4.069  -1.068  0.00  0.00    +0.000 A 
ATOM     20  C   UNL     1       5.318   3.144  -1.616  0.00  0.00    +0.001 A 
ATOM     21  C   UNL     1       3.954   3.315  -1.490  0.00  0.00    +0.010 A 
ATOM     22  C   UNL     1       3.454   4.422  -0.807  0.00  0.00    +0.003 A 
ATOM     23  C   UNL     1       4.335   5.354  -0.261  0.00  0.00    +0.010 A 
ATOM     24  C   UNL     1       5.697   5.170  -0.389  0.00  0.00    +0.001 A 
ENDBRANCH   1  22
BRANCH   4  25
ATOM     25  C   UNL     1      -1.054   6.460  -0.646  0.00  0.00    +0.069 A 
ATOM     26  C   UNL     1      -2.303   6.112  -1.143  0.00  0.00    +0.028 A 
ATOM     27  C   UNL     1      -3.313   7.052  -1.190  0.00  0.00    +0.002 A 
ATOM     28  C   UNL     1      -3.079   8.343  -0.751  0.00  0.00    +0.000 A 
ATOM     29  C   UNL     1      -1.835   8.694  -0.260  0.00  0.00    +0.002 A 
ATOM     30  C   UNL     1      -0.822   7.757  -0.206  0.00  0.00    +0.028 A 
ENDBRANCH   4  25
BRANCH   7  31
ATOM     31  N   UNL     1      -2.401   1.422  -0.143  0.00  0.00    -0.328 N 
ATOM     32  H   UNL     1      -2.376   0.453  -0.176  0.00  0.00    +0.145 HD
ATOM     33  H   UNL     1      -3.253   1.885  -0.127  0.00  0.00    +0.145 HD
ENDBRANCH   7  31
BRANCH   8  34
ATOM     34  C   UNL     1      -0.105   0.024  -0.197  0.00  0.00    +0.101 C 
ATOM     35  N   UNL     1      -0.137  -1.111  -0.239  0.00  0.00    -0.191 NA
ENDBRANCH   8  34
TORSDOF 5
