REMARK  Name = ZINC08972171
REMARK  3 active torsions:
REMARK  status: ('A' for Active; 'I' for Inactive)
REMARK    1  A    between atoms: C_6  and  N_7
REMARK    2  A    between atoms: C_11  and  C_12
REMARK    3  A    between atoms: C_20  and  O_24
REMARK                            x       y       z     vdW  Elec       q    Type
REMARK                         _______ _______ _______ _____ _____    ______ ____
ROOT
ATOM      1  N   UNL     1       0.320   1.766  -1.480  0.00  0.00    -0.188 N 
ATOM      2  C   UNL     1       1.485   2.346  -1.120  0.00  0.00    +0.263 C 
ATOM      3  O   UNL     1       2.553   1.825  -1.379  0.00  0.00    -0.269 OA
ATOM      4  C   UNL     1       1.418   3.636  -0.402  0.00  0.00    +0.097 C 
ATOM      5  C   UNL     1       2.563   4.298   0.003  0.00  0.00    +0.026 C 
ATOM      6  C   UNL     1       0.077   4.184  -0.137  0.00  0.00    +0.218 C 
ATOM      7  N   UNL     1      -0.975   3.500  -0.551  0.00  0.00    -0.127 NA
ATOM      8  C   UNL     1      -0.857   2.344  -1.199  0.00  0.00    +0.340 C 
ATOM      9  O   UNL     1      -1.875   1.776  -1.552  0.00  0.00    -0.250 OA
ENDROOT
BRANCH   5  10
ATOM     10  C   UNL     1       3.864   3.633  -0.086  0.00  0.00    -0.023 A 
ATOM     11  C   UNL     1       4.972   4.315  -0.610  0.00  0.00    +0.009 A 
ATOM     12  C   UNL     1       6.192   3.682  -0.690  0.00  0.00    +0.022 A 
ATOM     13  C   UNL     1       6.329   2.373  -0.252  0.00  0.00    +0.059 A 
ATOM     14  C   UNL     1       5.239   1.690   0.268  0.00  0.00    +0.060 A 
ATOM     15  C   UNL     1       4.011   2.311   0.359  0.00  0.00    +0.029 A 
ATOM     16 CL   UNL     1       5.423   0.052   0.812  0.00  0.00    -0.082 Cl
ATOM     17 CL   UNL     1       7.872   1.585  -0.356  0.00  0.00    -0.082 Cl
ENDBRANCH   5  10
BRANCH   1  23
ATOM     18  C   UNL     1      -0.153  -0.603  -1.554  0.00  0.00    +0.025 A 
ATOM     19  C   UNL     1      -0.136  -1.806  -2.231  0.00  0.00    +0.017 A 
ATOM     20  C   UNL     1       0.385  -1.873  -3.512  0.00  0.00    +0.018 A 
ATOM     21  C   UNL     1       0.883  -0.735  -4.119  0.00  0.00    +0.017 A 
ATOM     22  C   UNL     1       0.863   0.472  -3.448  0.00  0.00    +0.025 A 
ATOM     23  C   UNL     1       0.341   0.542  -2.163  0.00  0.00    +0.046 A 
ATOM     24 BR   UNL     1       0.414  -3.524  -4.433  0.00  0.00    -0.050 Br
ENDBRANCH   1  23
BRANCH   6  25
ATOM     25  O   UNL     1      -0.073   5.356   0.514  0.00  0.00    -0.493 OA
ATOM     26  H   UNL     1      -0.994   5.623   0.635  0.00  0.00    +0.294 HD
ENDBRANCH   6  25
TORSDOF 3
