REMARK  Name = ZINC21035665
REMARK  7 active torsions:
REMARK  status: ('A' for Active; 'I' for Inactive)
REMARK    1  A    between atoms: C_1  and  C_2
REMARK    2  A    between atoms: C_3  and  N_9
REMARK    3  A    between atoms: C_10  and  C_12
REMARK    4  A    between atoms: C_12  and  S_13
REMARK    5  A    between atoms: S_13  and  C_14
REMARK    6  A    between atoms: N_18  and  N_19
REMARK    7  A    between atoms: N_20  and  N_21
REMARK                            x       y       z     vdW  Elec       q    Type
REMARK                         _______ _______ _______ _____ _____    ______ ____
ROOT
ATOM      1  S   UNL     1      -3.174   1.528   0.330  0.00  0.00    -0.075 S 
ENDROOT
BRANCH   1   2
ATOM      2  C   UNL     1      -2.087   1.732  -1.041  0.00  0.00    +0.210 A 
ATOM      3  N   UNL     1      -2.419   2.174  -2.229  0.00  0.00    -0.119 NA
ATOM      4  N   UNL     1      -1.267   2.184  -3.026  0.00  0.00    -0.110 NA
ATOM      5  C   UNL     1      -0.267   1.753  -2.297  0.00  0.00    +0.248 A 
ATOM      6  N   UNL     1      -0.748   1.457  -1.053  0.00  0.00    -0.211 N 
ATOM      7  N   UNL     1       1.050   1.618  -2.716  0.00  0.00    -0.251 N 
ATOM      8  H   UNL     1       1.814   1.242  -2.019  0.00  0.00    +0.169 HD
BRANCH   6   9
ATOM      9  N   UNL     1      -0.018   0.976  -0.003  0.00  0.00    -0.294 N 
ATOM     10  H   UNL     1       1.060   0.789  -0.122  0.00  0.00    +0.163 HD
ATOM     11  H   UNL     1      -0.507   0.776   0.961  0.00  0.00    +0.163 HD
ENDBRANCH   6   9
BRANCH   7  12
ATOM     12  N   UNL     1       1.398   1.952  -3.994  0.00  0.00    -0.254 NA
ATOM     13  H   UNL     1       2.475   1.779  -4.138  0.00  0.00    +0.140 HD
ATOM     14  H   UNL     1       0.829   1.333  -4.703  0.00  0.00    +0.140 HD
ENDBRANCH   7  12
ENDBRANCH   1   2
BRANCH   1  15
ATOM     15  C   UNL     1      -4.787   2.063  -0.305  0.00  0.00    +0.173 C 
BRANCH  15  17
ATOM     16  N   UNL     1      -7.102   2.281   0.538  0.00  0.00    -0.284 N 
ATOM     17  C   UNL     1      -5.822   1.938   0.783  0.00  0.00    +0.227 C 
ATOM     18  O   UNL     1      -5.503   1.528   1.879  0.00  0.00    -0.275 OA
ATOM     19  H   UNL     1      -7.374   2.737  -0.425  0.00  0.00    +0.155 HD
BRANCH  16  22
ATOM     20  C   UNL     1      -9.434   3.910   0.490  0.00  0.00    +0.048 C 
ATOM     21  C   UNL     1      -9.238   2.829   1.521  0.00  0.00    +0.006 A 
ATOM     22  C   UNL     1      -8.085   2.057   1.508  0.00  0.00    +0.039 A 
ATOM     23  C   UNL     1      -7.905   1.065   2.463  0.00  0.00    +0.024 A 
ATOM     24  C   UNL     1      -8.876   0.845   3.421  0.00  0.00    +0.005 A 
ATOM     25  C   UNL     1     -10.027   1.611   3.430  0.00  0.00    +0.039 A 
ATOM     26  C   UNL     1     -10.210   2.602   2.479  0.00  0.00    +0.128 A 
ATOM     27  F   UNL     1     -11.335   3.349   2.490  0.00  0.00    -0.205 F 
ENDBRANCH  16  22
ENDBRANCH  15  17
ENDBRANCH   1  15
TORSDOF 6
