REMARK  Name = ZINC15784132
REMARK  13 active torsions:
REMARK  status: ('A' for Active; 'I' for Inactive)
REMARK    1  A    between atoms: CE_1  and  SD_2
REMARK    2  A    between atoms: SD_2  and  CG_3
REMARK    3  A    between atoms: CG_3  and  CB_4
REMARK    4  A    between atoms: CB_4  and  CA_5
REMARK    5  A    between atoms: CA_5  and  C_7
REMARK    6  A    between atoms: CA_5  and  N_17
REMARK    7  A    between atoms: N_9  and  CA_10
REMARK    8  A    between atoms: CA_10  and  CB_12
REMARK    9  A    between atoms: CA_10  and  C_15
REMARK   10  A    between atoms: CB_12  and  CG_13
REMARK   11  A    between atoms: C_18  and  O_20
REMARK   12  A    between atoms: O_20  and  C_21
REMARK   13  A    between atoms: C_21  and  C_22
REMARK                            x       y       z     vdW  Elec       q    Type
REMARK                         _______ _______ _______ _____ _____    ______ ____
ROOT
ATOM      1  N   ASP A   1       6.796   2.395   2.330  0.00  0.00    -0.270 N 
ATOM      2  C   UNK A   0       7.530   1.576   3.109  0.00  0.00    +0.401 C 
ATOM      3  O   UNK A   0       6.995   0.940   3.995  0.00  0.00    -0.226 OA
ATOM      4  H   ASP A   1       7.223   2.903   1.622  0.00  0.00    +0.153 HD
ENDROOT
BRANCH   1   5
ATOM      5  CA  ASP A   1       5.353   2.518   2.552  0.00  0.00    +0.163 C 
BRANCH   5   6
ATOM      6  C   ASP A   1       4.683   2.950   1.273  0.00  0.00    +0.234 C 
ATOM      7  O   ASP A   1       5.345   3.136   0.274  0.00  0.00    -0.274 OA
ATOM      8  N   ASP A   1       3.348   3.129   1.239  0.00  0.00    -0.300 N 
ATOM      9  H   ASP A   1       2.818   2.980   2.038  0.00  0.00    +0.150 HD
BRANCH   8  10
ATOM     10  CA  ASP A   1       2.696   3.548  -0.005  0.00  0.00    +0.197 C 
BRANCH  10  11
ATOM     11  C   ASP A   1       2.755   5.049  -0.121  0.00  0.00    +0.376 C 
ATOM     12  O   ASP A   1       3.287   5.702   0.746  0.00  0.00    -0.244 OA
ATOM     13  OXT ASP A   1       2.217   5.662  -1.188  0.00  0.00    -0.244 OA
ENDBRANCH  10  11
BRANCH  10  14
ATOM     14  CB  ASP A   1       1.235   3.094   0.007  0.00  0.00    +0.159 C 
BRANCH  14  15
ATOM     15  CG  ASP A   1       1.177   1.588  -0.001  0.00  0.00    +0.358 C 
ATOM     16  OD1 ASP A   1       2.199   0.944  -0.014  0.00  0.00    -0.246 OA
ATOM     17  OD2 ASP A   1      -0.011   0.963   0.007  0.00  0.00    -0.246 OA
ENDBRANCH  14  15
ENDBRANCH  10  14
ENDBRANCH   8  10
ENDBRANCH   5   6
BRANCH   5  18
ATOM     18  CB  ASP A   1       5.092   3.561   3.641  0.00  0.00    +0.042 C 
BRANCH  18  19
ATOM     19  CG  ASP A   1       5.665   3.064   4.970  0.00  0.00    +0.071 C 
BRANCH  19  21
ATOM     20  CE  ASP A   1       6.086   3.569   7.752  0.00  0.00    +0.084 C 
ATOM     21  SD  ASP A   1       5.355   4.300   6.261  0.00  0.00    -0.164 S 
ENDBRANCH  19  21
ENDBRANCH  18  19
ENDBRANCH   5  18
ENDBRANCH   1   5
BRANCH   2  22
ATOM     22  O   UNK A   0       8.856   1.463   2.905  0.00  0.00    -0.449 OA
BRANCH  22  23
ATOM     23  C   UNK A   0       9.583   0.562   3.781  0.00  0.00    +0.246 C 
BRANCH  23  24
ATOM     24  C   UNK A   0      11.065   0.566   3.400  0.00  0.00    +0.088 C 
ATOM     25  C   UNK A   0      11.255  -0.081   2.050  0.00  0.00    -0.029 A 
ATOM     26  C   UNK A   0      10.779   0.237   0.796  0.00  0.00    +0.005 A 
ATOM     27  C   UNK A   0      11.118  -0.547  -0.293  0.00  0.00    +0.000 A 
ATOM     28  C   UNK A   0      11.936  -1.650  -0.126  0.00  0.00    +0.001 A 
ATOM     29  C   UNK A   0      12.418  -1.974   1.125  0.00  0.00    +0.009 A 
ATOM     30  C   UNK A   0      12.080  -1.189   2.228  0.00  0.00    -0.014 A 
ATOM     31  C   UNK A   0      12.448  -1.305   3.661  0.00  0.00    -0.014 A 
ATOM     32  C   UNK A   0      11.855  -0.270   4.378  0.00  0.00    -0.029 A 
ATOM     33  C   UNK A   0      12.051  -0.164   5.738  0.00  0.00    +0.005 A 
ATOM     34  C   UNK A   0      12.841  -1.089   6.398  0.00  0.00    +0.000 A 
ATOM     35  C   UNK A   0      13.435  -2.122   5.694  0.00  0.00    +0.001 A 
ATOM     36  C   UNK A   0      13.244  -2.235   4.333  0.00  0.00    +0.009 A 
ENDBRANCH  23  24
ENDBRANCH  22  23
ENDBRANCH   2  22
TORSDOF 12
