REMARK  Name = ZINC48579746
REMARK  7 active torsions:
REMARK  status: ('A' for Active; 'I' for Inactive)
REMARK    1  A    between atoms: C_1  and  C_2
REMARK    2  A    between atoms: C_2  and  C_4
REMARK    3  A    between atoms: C_2  and  N_10
REMARK    4  A    between atoms: C_11  and  C_13
REMARK    5  A    between atoms: N_15  and  C_16
REMARK    6  A    between atoms: C_19  and  S_22
REMARK    7  A    between atoms: S_22  and  C_23
REMARK                            x       y       z     vdW  Elec       q    Type
REMARK                         _______ _______ _______ _____ _____    ______ ____
ROOT
ATOM      1  C   UNL     1       0.705  -1.088  -3.587  0.00  0.00    +0.303 C 
ATOM      2  O   UNL     1       1.890  -1.352  -3.548  0.00  0.00    -0.265 OA
ATOM      3  N   UNL     1       0.024  -1.221  -4.742  0.00  0.00    -0.278 N 
ATOM      4  H   UNL     1      -0.935  -1.075  -4.759  0.00  0.00    +0.155 HD
ENDROOT
BRANCH   3   5
ATOM      5  C   UNL     1       0.698  -1.571  -5.917  0.00  0.00    +0.034 A 
ATOM      6  C   UNL     1       0.292  -1.042  -7.135  0.00  0.00    +0.024 A 
ATOM      7  C   UNL     1       0.958  -1.387  -8.294  0.00  0.00    +0.017 A 
ATOM      8  C   UNL     1       2.035  -2.264  -8.241  0.00  0.00    +0.016 A 
ATOM      9  C   UNL     1       2.441  -2.793  -7.022  0.00  0.00    +0.017 A 
ATOM     10  C   UNL     1       1.778  -2.444  -5.863  0.00  0.00    +0.024 A 
BRANCH   8  11
ATOM     11  S   UNL     1       2.884  -2.705  -9.721  0.00  0.00    -0.016 S 
BRANCH  11  12
ATOM     12  C   UNL     1       4.180  -3.844  -9.159  0.00  0.00    +0.448 C 
ATOM     13  F   UNL     1       3.592  -4.951  -8.539  0.00  0.00    -0.160 F 
ATOM     14  F   UNL     1       4.934  -4.270 -10.258  0.00  0.00    -0.160 F 
ATOM     15  F   UNL     1       5.015  -3.188  -8.248  0.00  0.00    -0.160 F 
ENDBRANCH  11  12
ENDBRANCH   8  11
ENDBRANCH   3   5
BRANCH   1  17
ATOM     16  N   UNL     1       0.686  -0.481  -1.202  0.00  0.00    -0.301 N 
ATOM     17  C   UNL     1       0.004  -0.614  -2.357  0.00  0.00    +0.300 C 
ATOM     18  O   UNL     1      -1.179  -0.350  -2.397  0.00  0.00    -0.265 OA
ATOM     19  H   UNL     1       1.633  -0.692  -1.170  0.00  0.00    +0.150 HD
BRANCH  16  21
ATOM     20  C   UNL     1      -0.033   1.513   0.017  0.00  0.00    +0.033 C 
ATOM     21  C   UNL     1      -0.002  -0.016   0.005  0.00  0.00    +0.101 C 
BRANCH  21  22
ATOM     22  C   UNL     1       0.732  -0.513   1.224  0.00  0.00    -0.027 A 
ATOM     23  C   UNL     1       2.115  -0.513   1.246  0.00  0.00    +0.005 A 
ATOM     24  C   UNL     1       2.788  -0.969   2.364  0.00  0.00    +0.000 A 
ATOM     25  C   UNL     1       2.079  -1.424   3.460  0.00  0.00    +0.000 A 
ATOM     26  C   UNL     1       0.697  -1.423   3.438  0.00  0.00    +0.000 A 
ATOM     27  C   UNL     1       0.023  -0.963   2.322  0.00  0.00    +0.005 A 
ENDBRANCH  21  22
ENDBRANCH  16  21
ENDBRANCH   1  17
TORSDOF 6
