REMARK  Name = ZINC36510698
REMARK  21 active torsions:
REMARK  status: ('A' for Active; 'I' for Inactive)
REMARK    1  A    between atoms: C_1  and  C_2
REMARK    2  A    between atoms: C_2  and  C_3
REMARK    3  A    between atoms: C_3  and  C_4
REMARK    4  A    between atoms: C_4  and  C_5
REMARK    5  A    between atoms: C_5  and  C_6
REMARK    6  A    between atoms: C_6  and  N_7
REMARK    7  A    between atoms: N_7  and  C_8
REMARK    8  A    between atoms: C_8  and  C_10
REMARK    9  A    between atoms: C_8  and  C_13
REMARK   10  A    between atoms: C_11  and  C_12
REMARK   11  A    between atoms: N_15  and  C_16
REMARK   12  A    between atoms: C_16  and  C_17
REMARK   13  A    between atoms: C_17  and  C_18
REMARK   14  A    between atoms: C_18  and  C_19
REMARK   15  A    between atoms: C_20  and  C_22
REMARK   16  A    between atoms: C_22  and  C_24
REMARK   17  A    between atoms: C_22  and  C_26
REMARK   18  A    between atoms: C_24  and  C_25
REMARK   19  A    between atoms: C_26  and  C_27
REMARK   20  A    between atoms: C_27  and  C_28
REMARK   21  A    between atoms: C_28  and  C_29
REMARK                            x       y       z     vdW  Elec       q    Type
REMARK                         _______ _______ _______ _____ _____    ______ ____
ROOT
ATOM      1  N   UNL     1      -3.852  -4.551   0.751  0.00  0.00    -0.286 N 
ATOM      2  C   UNL     1      -4.250  -3.908   1.867  0.00  0.00    +0.219 C 
ATOM      3  O   UNL     1      -5.242  -3.209   1.843  0.00  0.00    -0.275 OA
ENDROOT
BRANCH   1   4
ATOM      4  C   UNL     1      -4.686  -4.514  -0.453  0.00  0.00    +0.185 C 
BRANCH   4   5
ATOM      5  C   UNL     1      -5.981  -5.239  -0.189  0.00  0.00    +0.238 C 
ATOM      6  O   UNL     1      -6.274  -5.565   0.942  0.00  0.00    -0.273 OA
ATOM      7  N   UNL     1      -6.813  -5.525  -1.210  0.00  0.00    -0.314 N 
ATOM      8  H   UNL     1      -6.579  -5.265  -2.114  0.00  0.00    +0.149 HD
BRANCH   7   9
ATOM      9  C   UNL     1      -8.072  -6.230  -0.953  0.00  0.00    +0.104 C 
BRANCH   9  10
ATOM     10  C   UNL     1      -8.823  -6.429  -2.271  0.00  0.00    +0.018 C 
BRANCH  10  11
ATOM     11  C   UNL     1     -10.137  -7.165  -2.003  0.00  0.00    -0.002 C 
ATOM     12  C   UNL     1     -10.889  -7.363  -3.321  0.00  0.00    +0.004 C 
ENDBRANCH  10  11
ENDBRANCH   9  10
ENDBRANCH   7   9
ENDBRANCH   4   5
BRANCH   4  13
ATOM     13  C   UNL     1      -4.978  -3.082  -0.819  0.00  0.00    +0.000 C 
ATOM     14  C   UNL     1      -4.581  -2.607  -1.973  0.00  0.00    -0.032 C 
ATOM     15  C   UNL     1      -3.929  -3.519  -2.980  0.00  0.00    +0.035 C 
ENDBRANCH   4  13
ENDBRANCH   1   4
BRANCH   1  16
ATOM     16  C   UNL     1      -2.585  -5.286   0.742  0.00  0.00    +0.109 C 
BRANCH  16  17
ATOM     17  C   UNL     1      -1.485  -4.398   0.157  0.00  0.00    +0.019 C 
BRANCH  17  18
ATOM     18  C   UNL     1      -0.137  -5.114   0.272  0.00  0.00    +0.002 C 
BRANCH  18  19
ATOM     19  C   UNL     1       0.963  -4.226  -0.312  0.00  0.00    -0.000 C 
BRANCH  19  21
ATOM     20  C   UNL     1       3.411  -4.054  -0.782  0.00  0.00    +0.004 C 
ATOM     21  C   UNL     1       2.311  -4.941  -0.198  0.00  0.00    -0.003 C 
ENDBRANCH  19  21
ENDBRANCH  18  19
ENDBRANCH  17  18
ENDBRANCH  16  17
ENDBRANCH   1  16
BRANCH   2  22
ATOM     22  C   UNL     1      -3.464  -4.057   3.143  0.00  0.00    +0.075 C 
BRANCH  22  23
ATOM     23  C   UNL     1      -2.321  -3.041   3.160  0.00  0.00    +0.009 C 
ATOM     24  C   UNL     1      -2.883  -1.636   2.936  0.00  0.00    +0.004 C 
ENDBRANCH  22  23
BRANCH  22  25
ATOM     25  C   UNL     1      -4.384  -3.808   4.341  0.00  0.00    +0.013 C 
BRANCH  25  26
ATOM     26  C   UNL     1      -3.609  -4.048   5.638  0.00  0.00    +0.000 C 
BRANCH  26  27
ATOM     27  C   UNL     1      -4.561  -3.932   6.830  0.00  0.00    -0.003 C 
ATOM     28  C   UNL     1      -3.786  -4.172   8.127  0.00  0.00    +0.004 C 
ENDBRANCH  26  27
ENDBRANCH  25  26
ENDBRANCH  22  25
ENDBRANCH   2  22
TORSDOF 16
