REMARK  Name = ZINC63138581
REMARK  2 active torsions:
REMARK  status: ('A' for Active; 'I' for Inactive)
REMARK    1  A    between atoms: C_8  and  C_28
REMARK    2  A    between atoms: N_19  and  C_23
REMARK                            x       y       z     vdW  Elec       q    Type
REMARK                         _______ _______ _______ _____ _____    ______ ____
ROOT
ATOM      1  C   UNL     1       0.041   1.386  -0.038  0.00  0.00    +0.001 A 
ATOM      2  C   UNL     1       1.206   2.159  -0.045  0.00  0.00    +0.002 A 
ATOM      3  C   UNL     1       2.463   1.651  -0.050  0.00  0.00    +0.026 A 
ATOM      4  C   UNL     1       2.598   0.231  -0.049  0.00  0.00    +0.043 A 
ATOM      5  N   UNL     1       3.663  -0.511  -0.062  0.00  0.00    -0.375 N 
ATOM      6  C   UNL     1       3.255  -1.921  -0.018  0.00  0.00    +0.131 C 
ATOM      7  C   UNL     1       3.703  -2.648  -1.286  0.00  0.00    +0.133 C 
ATOM      8  N   UNL     1       2.927  -3.858  -1.520  0.00  0.00    -0.279 N 
ATOM      9  C   UNL     1       1.599  -4.161  -1.031  0.00  0.00    +0.167 C 
ATOM     10  C   UNL     1       0.918  -3.157  -0.138  0.00  0.00    +0.065 C 
ATOM     11  C   UNL     1       1.728  -1.895  -0.044  0.00  0.00    -0.034 C 
ATOM     12  C   UNL     1       1.369  -0.618  -0.043  0.00  0.00    -0.001 A 
ATOM     13  C   UNL     1       0.045   0.027  -0.037  0.00  0.00    +0.010 A 
ATOM     14  C   UNL     1       0.723  -4.598  -2.178  0.00  0.00    +0.237 C 
ATOM     15  O   UNL     1      -0.395  -4.157  -2.342  0.00  0.00    -0.274 OA
ATOM     16  N   UNL     1       1.272  -5.523  -3.020  0.00  0.00    -0.288 N 
ATOM     17  C   UNL     1       2.624  -6.005  -2.683  0.00  0.00    +0.204 C 
ATOM     18  C   UNL     1       3.487  -4.812  -2.333  0.00  0.00    +0.234 C 
ATOM     19  O   UNL     1       4.620  -4.704  -2.752  0.00  0.00    -0.274 OA
ATOM     20  H   UNL     1       4.577  -0.188  -0.096  0.00  0.00    +0.160 HD
ENDROOT
BRANCH   7  21
ATOM     21  C   UNL     1       3.537  -1.725  -2.465  0.00  0.00    -0.025 A 
ATOM     22  C   UNL     1       2.289  -1.549  -3.035  0.00  0.00    +0.006 A 
ATOM     23  C   UNL     1       2.137  -0.702  -4.116  0.00  0.00    +0.015 A 
ATOM     24  C   UNL     1       3.232  -0.031  -4.629  0.00  0.00    +0.018 A 
ATOM     25  C   UNL     1       4.480  -0.207  -4.059  0.00  0.00    +0.015 A 
ATOM     26  C   UNL     1       4.631  -1.050  -2.974  0.00  0.00    +0.006 A 
ATOM     27 BR   UNL     1       3.024   1.128  -6.109  0.00  0.00    -0.050 Br
ENDBRANCH   7  21
BRANCH  16  28
ATOM     28  C   UNL     1       0.553  -6.011  -4.200  0.00  0.00    +0.077 C 
ATOM     29  C   UNL     1       1.321  -5.629  -5.482  0.00  0.00    +0.022 C 
ATOM     30  C   UNL     1       2.163  -6.886  -5.810  0.00  0.00    +0.002 C 
ATOM     31  C   UNL     1       1.206  -8.046  -5.441  0.00  0.00    +0.002 C 
ATOM     32  C   UNL     1       0.480  -7.548  -4.173  0.00  0.00    +0.022 C 
ENDBRANCH  16  28
TORSDOF 2
