REMARK  Name = ZINC39770253
REMARK  10 active torsions:
REMARK  status: ('A' for Active; 'I' for Inactive)
REMARK    1  A    between atoms: C_1  and  C_2
REMARK    2  A    between atoms: C_2  and  C_3
REMARK    3  A    between atoms: C_3  and  N_4
REMARK    4  A    between atoms: C_5  and  N_24
REMARK    5  A    between atoms: C_6  and  C_14
REMARK    6  A    between atoms: C_7  and  C_13
REMARK    7  A    between atoms: C_8  and  C_11
REMARK    8  A    between atoms: N_18  and  C_22
REMARK    9  A    between atoms: C_22  and  C_23
REMARK   10  A    between atoms: N_27  and  C_30
REMARK                            x       y       z     vdW  Elec       q    Type
REMARK                         _______ _______ _______ _____ _____    ______ ____
ROOT
ATOM      1  N   UNL     1      -1.343  -2.363   0.426  0.00  0.00    -0.295 N 
ATOM      2  C   UNL     1      -1.350  -2.856  -0.839  0.00  0.00    +0.112 A 
ATOM      3  C   UNL     1      -1.683  -4.199  -1.079  0.00  0.00    +0.019 A 
ATOM      4  C   UNL     1      -2.010  -5.034   0.003  0.00  0.00    -0.017 A 
ATOM      5  C   UNL     1      -1.995  -4.504   1.290  0.00  0.00    +0.120 A 
ATOM      6  C   UNL     1      -1.647  -3.143   1.479  0.00  0.00    +0.270 A 
ATOM      7  O   UNL     1      -1.628  -2.674   2.604  0.00  0.00    -0.266 OA
ATOM      8  C   UNL     1      -2.372  -6.479  -0.227  0.00  0.00    +0.046 C 
ENDROOT
BRANCH   3   9
ATOM      9  C   UNL     1      -1.690  -4.725  -2.445  0.00  0.00    +0.032 C 
ATOM     10  C   UNL     1      -0.787  -5.675  -2.813  0.00  0.00    +0.077 C 
ATOM     11  C   UNL     1       0.309  -6.220  -2.078  0.00  0.00    +0.258 C 
ATOM     12  O   UNL     1       0.554  -5.844  -0.946  0.00  0.00    -0.269 OA
ATOM     13  N   UNL     1       1.050  -7.145  -2.663  0.00  0.00    -0.256 N 
ATOM     14  C   UNL     1       0.779  -7.562  -3.919  0.00  0.00    +0.121 C 
ATOM     15  S   UNL     1       1.597  -8.734  -4.861  0.00  0.00    -0.027 S 
ATOM     16  S   UNL     1      -0.654  -6.584  -4.347  0.00  0.00    -0.061 S 
BRANCH  13  17
ATOM     17  C   UNL     1       2.183  -7.727  -1.938  0.00  0.00    +0.111 C 
ATOM     18  C   UNL     1       1.712  -8.956  -1.158  0.00  0.00    +0.025 C 
ENDBRANCH  13  17
ENDBRANCH   3   9
BRANCH   2  19
ATOM     19  N   UNL     1      -1.032  -2.040  -1.885  0.00  0.00    -0.313 N 
ATOM     20  C   UNL     1       0.341  -1.998  -2.409  0.00  0.00    +0.125 C 
ATOM     21  C   UNL     1       0.301  -2.300  -3.912  0.00  0.00    +0.124 C 
ATOM     22  N   UNL     1      -0.722  -1.449  -4.536  0.00  0.00    -0.325 N 
ATOM     23  C   UNL     1      -2.095  -1.492  -4.011  0.00  0.00    +0.124 C 
ATOM     24  C   UNL     1      -2.056  -1.193  -2.512  0.00  0.00    +0.125 C 
BRANCH  22  25
ATOM     25  C   UNL     1      -0.396  -0.613  -5.608  0.00  0.00    +0.065 A 
ATOM     26  C   UNL     1      -0.505  -1.078  -6.912  0.00  0.00    +0.026 A 
ATOM     27  C   UNL     1      -0.182  -0.250  -7.969  0.00  0.00    +0.002 A 
ATOM     28  C   UNL     1       0.250   1.042  -7.731  0.00  0.00    +0.003 A 
ATOM     29  C   UNL     1       0.361   1.510  -6.435  0.00  0.00    +0.040 A 
ATOM     30  C   UNL     1       0.033   0.689  -5.372  0.00  0.00    +0.144 A 
ATOM     31  F   UNL     1       0.136   1.148  -4.105  0.00  0.00    -0.204 F 
ENDBRANCH  22  25
ENDBRANCH   2  19
BRANCH   5  32
ATOM     32  C   UNL     1      -2.324  -5.329   2.414  0.00  0.00    +0.105 C 
ATOM     33  N   UNL     1      -2.585  -5.982   3.306  0.00  0.00    -0.191 NA
ENDBRANCH   5  32
BRANCH   1  34
ATOM     34  C   UNL     1      -0.993  -0.958   0.649  0.00  0.00    +0.126 C 
BRANCH  34  36
ATOM     35  C   UNL     1       0.863   0.617   1.213  0.00  0.00    +0.005 C 
ATOM     36  C   UNL     1       0.497  -0.850   0.980  0.00  0.00    +0.018 C 
ENDBRANCH  34  36
ENDBRANCH   1  34
TORSDOF 7
