REMARK  Name = ZINC36340943
REMARK  5 active torsions:
REMARK  status: ('A' for Active; 'I' for Inactive)
REMARK    1  A    between atoms: C_5  and  C_7
REMARK    2  A    between atoms: C_10  and  C_29
REMARK    3  A    between atoms: C_13  and  C_15
REMARK    4  A    between atoms: C_15  and  N_16
REMARK    5  A    between atoms: N_19  and  C_22
REMARK                            x       y       z     vdW  Elec       q    Type
REMARK                         _______ _______ _______ _____ _____    ______ ____
ROOT
ATOM      1  C   UNL     1       1.229  -2.186  -0.022  0.00  0.00    +0.138 C 
ATOM      2  C   UNL     1       1.322  -2.736   1.415  0.00  0.00    +0.087 C 
ATOM      3  C   UNL     1       0.051  -3.538   1.582  0.00  0.00    +0.069 C 
ATOM      4  N   UNL     1      -0.639  -3.480   0.497  0.00  0.00    -0.181 NA
ATOM      5  N   UNL     1      -0.051  -2.718  -0.516  0.00  0.00    -0.187 N 
ATOM      6  C   UNL     1      -0.569  -2.504  -1.742  0.00  0.00    +0.219 C 
ATOM      7  O   UNL     1       0.033  -1.821  -2.543  0.00  0.00    -0.276 OA
ENDROOT
BRANCH   1  12
ATOM      8  C   UNL     1      -0.017   1.378   0.010  0.00  0.00    +0.000 A 
ATOM      9  C   UNL     1       1.171   2.086   0.002  0.00  0.00    +0.001 A 
ATOM     10  C   UNL     1       2.377   1.412  -0.013  0.00  0.00    +0.020 A 
ATOM     11  C   UNL     1       2.397   0.029  -0.021  0.00  0.00    +0.046 A 
ATOM     12  C   UNL     1       1.208  -0.679  -0.013  0.00  0.00    -0.006 A 
ATOM     13  C   UNL     1       0.002  -0.004   0.002  0.00  0.00    +0.007 A 
ATOM     14 CL   UNL     1       3.912  -0.818  -0.041  0.00  0.00    -0.083 Cl
ENDBRANCH   1  12
BRANCH   3  15
ATOM     15  C   UNL     1      -0.337  -4.273   2.800  0.00  0.00    -0.002 A 
ATOM     16  C   UNL     1       0.494  -4.260   3.922  0.00  0.00    +0.012 A 
ATOM     17  C   UNL     1       0.126  -4.949   5.058  0.00  0.00    +0.039 A 
ATOM     18  C   UNL     1      -1.067  -5.655   5.088  0.00  0.00    +0.123 A 
ATOM     19  C   UNL     1      -1.895  -5.672   3.977  0.00  0.00    +0.039 A 
ATOM     20  C   UNL     1      -1.540  -4.982   2.837  0.00  0.00    +0.012 A 
ATOM     21  F   UNL     1      -1.422  -6.329   6.203  0.00  0.00    -0.205 F 
ENDBRANCH   3  15
BRANCH   6  22
ATOM     22  C   UNL     1      -1.895  -3.113  -2.117  0.00  0.00    +0.021 C 
BRANCH  22  23
ATOM     23  N   UNL     1      -2.236  -2.733  -3.494  0.00  0.00    +0.387 N 
ATOM     24  C   UNL     1      -2.431  -1.280  -3.566  0.00  0.00    -0.059 C 
ATOM     25  C   UNL     1      -2.673  -0.869  -5.022  0.00  0.00    +0.086 C 
ATOM     26  N   UNL     1      -3.798  -1.658  -5.548  0.00  0.00    -0.331 N 
ATOM     27  C   UNL     1      -3.762  -3.118  -5.372  0.00  0.00    +0.086 C 
ATOM     28  C   UNL     1      -3.468  -3.423  -3.899  0.00  0.00    -0.059 C 
ATOM     29  H   UNL     1      -1.484  -3.001  -4.111  0.00  0.00    -0.081 HD
BRANCH  26  30
ATOM     30  C   UNL     1      -4.870  -1.038  -6.196  0.00  0.00    +0.065 A 
ATOM     31  C   UNL     1      -4.836  -0.847  -7.571  0.00  0.00    +0.026 A 
ATOM     32  C   UNL     1      -5.897  -0.235  -8.209  0.00  0.00    +0.002 A 
ATOM     33  C   UNL     1      -6.994   0.189  -7.481  0.00  0.00    +0.003 A 
ATOM     34  C   UNL     1      -7.033   0.001  -6.111  0.00  0.00    +0.040 A 
ATOM     35  C   UNL     1      -5.977  -0.617  -5.467  0.00  0.00    +0.144 A 
ATOM     36  F   UNL     1      -6.017  -0.805  -4.130  0.00  0.00    -0.204 F 
ENDBRANCH  26  30
ENDBRANCH  22  23
ENDBRANCH   6  22
TORSDOF 5
