REMARK  Name = ZINC38904610
REMARK  9 active torsions:
REMARK  status: ('A' for Active; 'I' for Inactive)
REMARK    1  A    between atoms: C_1  and  C_2
REMARK    2  A    between atoms: C_5  and  C_34
REMARK    3  A    between atoms: C_6  and  C_8
REMARK    4  A    between atoms: C_8  and  C_10
REMARK    5  A    between atoms: C_8  and  N_11
REMARK    6  A    between atoms: C_12  and  C_14
REMARK    7  A    between atoms: N_19  and  C_21
REMARK    8  A    between atoms: C_21  and  C_22
REMARK    9  A    between atoms: C_24  and  C_27
REMARK                            x       y       z     vdW  Elec       q    Type
REMARK                         _______ _______ _______ _____ _____    ______ ____
ROOT
ATOM      1  C   UNL     1      -1.695  -1.750   5.713  0.00  0.00    +0.058 C 
ATOM      2  C   UNL     1      -2.831  -0.906   5.129  0.00  0.00    +0.009 C 
ATOM      3  C   UNL     1      -3.491  -0.105   6.255  0.00  0.00    -0.018 C 
ATOM      4  C   UNL     1      -3.982  -1.068   7.338  0.00  0.00    -0.078 C 
ATOM      5  N   UNL     1      -2.845  -1.827   7.875  0.00  0.00    +0.386 N 
ATOM      6  C   UNL     1      -2.251  -2.652   6.817  0.00  0.00    -0.065 C 
ATOM      7  H   UNL     1      -2.151  -1.185   8.229  0.00  0.00    -0.081 HD
ENDROOT
BRANCH   1   9
ATOM      8  N   UNL     1      -0.535  -2.018   3.545  0.00  0.00    -0.309 N 
ATOM      9  C   UNL     1      -1.089  -2.601   4.627  0.00  0.00    +0.215 C 
ATOM     10  O   UNL     1      -1.099  -3.809   4.726  0.00  0.00    -0.276 OA
ATOM     11  H   UNL     1      -0.527  -1.051   3.466  0.00  0.00    +0.149 HD
BRANCH   8  12
ATOM     12  C   UNL     1       0.054  -2.845   2.489  0.00  0.00    +0.100 C 
ATOM     13  C   UNL     1       1.497  -3.192   2.858  0.00  0.00    +0.033 C 
BRANCH  12  19
ATOM     14  C   UNL     1      -0.018   1.503   0.010  0.00  0.00    +0.044 C 
ATOM     15  C   UNL     1       0.002  -0.004   0.002  0.00  0.00    -0.050 A 
ATOM     16  C   UNL     1       0.006  -0.689  -1.199  0.00  0.00    +0.003 A 
ATOM     17  C   UNL     1       0.025  -2.071  -1.207  0.00  0.00    +0.004 A 
ATOM     18  C   UNL     1       0.040  -2.768  -0.013  0.00  0.00    -0.046 A 
ATOM     19  C   UNL     1       0.037  -2.084   1.188  0.00  0.00    -0.024 A 
ATOM     20  C   UNL     1       0.023  -0.702   1.195  0.00  0.00    +0.009 A 
ATOM     21  C   UNL     1       0.059  -4.275  -0.021  0.00  0.00    +0.044 C 
ENDBRANCH  12  19
ENDBRANCH   8  12
ENDBRANCH   1   9
BRANCH   5  22
ATOM     22  C   UNL     1      -3.309  -2.692   8.968  0.00  0.00    +0.022 C 
BRANCH  22  23
ATOM     23  C   UNL     1      -3.798  -1.841  10.111  0.00  0.00    +0.211 A 
ATOM     24  N   UNL     1      -5.018  -1.416  10.277  0.00  0.00    -0.193 NA
ATOM     25  C   UNL     1      -5.101  -0.683  11.402  0.00  0.00    +0.202 A 
ATOM     26  N   UNL     1      -3.918  -0.639  11.962  0.00  0.00    -0.056 NA
ATOM     27  O   UNL     1      -3.051  -1.397  11.131  0.00  0.00    -0.340 OA
BRANCH  25  28
ATOM     28  C   UNL     1      -6.330  -0.033  11.922  0.00  0.00    +0.023 A 
ATOM     29  C   UNL     1      -7.534  -0.160  11.232  0.00  0.00    +0.012 A 
ATOM     30  C   UNL     1      -8.674   0.447  11.719  0.00  0.00    +0.002 A 
ATOM     31  C   UNL     1      -8.623   1.181  12.891  0.00  0.00    +0.015 A 
ATOM     32  C   UNL     1      -7.430   1.311  13.580  0.00  0.00    +0.019 A 
ATOM     33  C   UNL     1      -6.285   0.703  13.104  0.00  0.00    +0.027 A 
ATOM     34 BR   UNL     1      -7.369   2.318  15.179  0.00  0.00    -0.050 Br
ENDBRANCH  25  28
ENDBRANCH  22  23
ENDBRANCH   5  22
TORSDOF 6
