REMARK  Name = ZINC22358104
REMARK  7 active torsions:
REMARK  status: ('A' for Active; 'I' for Inactive)
REMARK    1  A    between atoms: C_1  and  C_2
REMARK    2  A    between atoms: N_5  and  S_11
REMARK    3  A    between atoms: C_7  and  C_10
REMARK    4  A    between atoms: S_11  and  C_14
REMARK    5  A    between atoms: C_17  and  N_20
REMARK    6  A    between atoms: N_20  and  C_21
REMARK    7  A    between atoms: C_21  and  C_22
REMARK                            x       y       z     vdW  Elec       q    Type
REMARK                         _______ _______ _______ _____ _____    ______ ____
ROOT
ATOM      1  C   UNL     1       0.773   0.551   4.976  0.00  0.00    +0.106 A 
ATOM      2  C   UNL     1      -0.363   1.332   4.866  0.00  0.00    +0.030 A 
ATOM      3  C   UNL     1      -0.854   1.668   3.619  0.00  0.00    +0.025 A 
ATOM      4  C   UNL     1      -0.205   1.221   2.475  0.00  0.00    +0.028 A 
ATOM      5  C   UNL     1       0.933   0.432   2.590  0.00  0.00    +0.025 A 
ATOM      6  C   UNL     1       1.422   0.104   3.839  0.00  0.00    +0.030 A 
ENDROOT
BRANCH   1   7
ATOM      7  S   UNL     1       1.395   0.124   6.568  0.00  0.00    +0.061 S 
ATOM      8  O   UNL     1       2.778  -0.158   6.401  0.00  0.00    -0.153 OA
ATOM      9  O   UNL     1       0.924   1.117   7.468  0.00  0.00    -0.153 OA
BRANCH   7  13
ATOM     10  C   UNL     1      -0.158  -2.883   4.647  0.00  0.00    +0.039 C 
ATOM     11  C   UNL     1       0.213  -3.472   6.010  0.00  0.00    +0.131 C 
ATOM     12  C   UNL     1       1.281  -2.595   6.673  0.00  0.00    +0.140 C 
ATOM     13  N   UNL     1       0.672  -1.299   7.011  0.00  0.00    -0.172 NA
ATOM     14  C   UNL     1      -0.595  -1.303   7.759  0.00  0.00    +0.140 C 
ATOM     15  C   UNL     1      -1.574  -2.243   7.038  0.00  0.00    +0.131 C 
ATOM     16  O   UNL     1      -0.947  -3.514   6.844  0.00  0.00    -0.371 OA
ATOM     17  C   UNL     1      -2.832  -2.419   7.890  0.00  0.00    +0.039 C 
ENDBRANCH   7  13
ENDBRANCH   1   7
BRANCH   4  18
ATOM     18  N   UNL     1      -0.698   1.558   1.213  0.00  0.00    -0.338 N 
ATOM     19  H   UNL     1      -1.602   2.179   1.124  0.00  0.00    +0.146 HD
BRANCH  18  20
ATOM     20  C   UNL     1      -0.013   1.086   0.008  0.00  0.00    +0.157 C 
BRANCH  20  21
ATOM     21  C   UNL     1      -0.742   1.585  -1.213  0.00  0.00    +0.066 A 
ATOM     22  C   UNL     1      -0.139   2.478  -2.073  0.00  0.00    +0.095 A 
ATOM     23  C   UNL     1      -0.828   2.925  -3.201  0.00  0.00    +0.259 A 
ATOM     24  O   UNL     1      -0.297   3.712  -3.969  0.00  0.00    -0.267 OA
ATOM     25  N   UNL     1      -2.099   2.485  -3.442  0.00  0.00    -0.262 N 
ATOM     26  C   UNL     1      -2.904   2.836  -4.500  0.00  0.00    +0.104 A 
ATOM     27  C   UNL     1      -4.133   2.336  -4.625  0.00  0.00    +0.067 A 
ATOM     28  S   UNL     1      -4.247   1.282  -3.188  0.00  0.00    -0.058 S 
ATOM     29  C   UNL     1      -2.623   1.604  -2.534  0.00  0.00    +0.180 A 
ATOM     30  N   UNL     1      -1.980   1.176  -1.477  0.00  0.00    -0.226 NA
ENDBRANCH  20  21
ENDBRANCH  18  20
ENDBRANCH   4  18
TORSDOF 5
