REMARK  Name = ZINC20441797
REMARK  6 active torsions:
REMARK  status: ('A' for Active; 'I' for Inactive)
REMARK    1  A    between atoms: C_6  and  S_7
REMARK    2  A    between atoms: S_7  and  N_10
REMARK    3  A    between atoms: N_10  and  C_11
REMARK    4  A    between atoms: C_17  and  N_19
REMARK    5  A    between atoms: N_22  and  C_25
REMARK    6  A    between atoms: C_25  and  C_26
REMARK                            x       y       z     vdW  Elec       q    Type
REMARK                         _______ _______ _______ _____ _____    ______ ____
ROOT
ATOM      1  C   UNL     1       3.284  -2.058  -5.629  0.00  0.00    +0.063 C 
ATOM      2  C   UNL     1       3.715  -2.301  -7.077  0.00  0.00    +0.019 C 
ATOM      3  C   UNL     1       3.607  -0.996  -7.867  0.00  0.00    +0.001 C 
ATOM      4  C   UNL     1       4.516   0.060  -7.235  0.00  0.00    -0.001 C 
ATOM      5  C   UNL     1       4.085   0.303  -5.787  0.00  0.00    -0.014 C 
ATOM      6  C   UNL     1       4.193  -1.002  -4.997  0.00  0.00    -0.050 C 
ENDROOT
BRANCH   6   7
ATOM      7  N   UNL     1       3.779  -0.769  -3.607  0.00  0.00    +0.384 N 
ATOM      8  C   UNL     1       4.058  -1.944  -2.770  0.00  0.00    -0.063 C 
ATOM      9  C   UNL     1       3.541  -1.691  -1.351  0.00  0.00    +0.066 C 
ATOM     10  N   UNL     1       4.189  -0.491  -0.803  0.00  0.00    -0.302 NA
ATOM     11  C   UNL     1       3.910   0.684  -1.641  0.00  0.00    +0.066 C 
ATOM     12  C   UNL     1       4.427   0.431  -3.059  0.00  0.00    -0.063 C 
ATOM     13  H   UNL     1       2.692  -0.600  -3.603  0.00  0.00    -0.081 HD
BRANCH  10  14
ATOM     14  C   UNL     1       3.775  -0.258   0.587  0.00  0.00    +0.119 C 
BRANCH  14  15
ATOM     15  C   UNL     1       4.634   0.823   1.192  0.00  0.00    -0.030 A 
ATOM     16  C   UNL     1       4.247   2.146   1.097  0.00  0.00    +0.009 A 
ATOM     17  C   UNL     1       5.034   3.141   1.646  0.00  0.00    +0.050 A 
ATOM     18  C   UNL     1       6.209   2.812   2.303  0.00  0.00    +0.166 A 
ATOM     19  C   UNL     1       6.599   1.479   2.398  0.00  0.00    +0.167 A 
ATOM     20  C   UNL     1       5.808   0.487   1.841  0.00  0.00    +0.054 A 
ATOM     21  O   UNL     1       7.781   1.417   3.079  0.00  0.00    -0.453 OA
ATOM     22  C   UNL     1       7.903   2.684   3.752  0.00  0.00    +0.466 C 
ATOM     23  O   UNL     1       7.146   3.587   2.923  0.00  0.00    -0.453 OA
ENDBRANCH  14  15
ENDBRANCH  10  14
ENDBRANCH   6   7
BRANCH   1  24
ATOM     24  N   UNL     1       1.897  -1.586  -5.606  0.00  0.00    -0.188 NA
ATOM     25  H   UNL     1       1.684  -0.507  -5.574  0.00  0.00    +0.148 HD
BRANCH  24  26
ATOM     26  S   UNL     1       0.659  -2.662  -5.377  0.00  0.00    +0.059 S 
ATOM     27  O   UNL     1      -0.543  -1.905  -5.378  0.00  0.00    -0.153 OA
ATOM     28  O   UNL     1       0.883  -3.736  -6.280  0.00  0.00    -0.153 OA
BRANCH  26  34
ATOM     29  C   UNL     1       1.588  -4.467  -3.552  0.00  0.00    +0.030 A 
ATOM     30  C   UNL     1       1.732  -4.984  -2.279  0.00  0.00    +0.022 A 
ATOM     31  C   UNL     1       1.116  -4.363  -1.207  0.00  0.00    +0.041 A 
ATOM     32  C   UNL     1       0.360  -3.222  -1.410  0.00  0.00    +0.022 A 
ATOM     33  C   UNL     1       0.222  -2.703  -2.683  0.00  0.00    +0.030 A 
ATOM     34  C   UNL     1       0.837  -3.324  -3.754  0.00  0.00    +0.105 A 
ATOM     35 CL   UNL     1       1.290  -5.016   0.392  0.00  0.00    -0.084 Cl
ENDBRANCH  26  34
ENDBRANCH  24  26
ENDBRANCH   1  24
TORSDOF 6
