REMARK  Name = ZINC62794841
REMARK  3 active torsions:
REMARK  status: ('A' for Active; 'I' for Inactive)
REMARK    1  A    between atoms: C_3  and  S_11
REMARK    2  A    between atoms: C_6  and  C_7
REMARK    3  A    between atoms: S_11  and  C_12
REMARK                            x       y       z     vdW  Elec       q    Type
REMARK                         _______ _______ _______ _____ _____    ______ ____
ROOT
ATOM      1  C   UNL     1       0.009   1.359  -0.394  0.00  0.00    +0.012 A 
ATOM      2  C   UNL     1       1.190   2.065  -0.362  0.00  0.00    +0.017 A 
ATOM      3  C   UNL     1       2.384   1.415  -0.063  0.00  0.00    +0.033 A 
ATOM      4  C   UNL     1       2.387   0.047   0.206  0.00  0.00    +0.055 A 
ATOM      5  C   UNL     1       1.208  -0.664   0.176  0.00  0.00    +0.032 A 
ATOM      6  C   UNL     1       0.008  -0.013  -0.125  0.00  0.00    +0.014 A 
ATOM      7 CL   UNL     1       3.878  -0.760   0.579  0.00  0.00    -0.082 Cl
ENDROOT
BRANCH   6   8
ATOM      8  C   UNL     1      -1.257  -0.772  -0.158  0.00  0.00    +0.094 C 
ATOM      9  N   UNL     1      -1.257  -2.080   0.100  0.00  0.00    -0.387 N 
ATOM     10  N   UNL     1      -2.401  -0.150  -0.445  0.00  0.00    -0.345 N 
ATOM     11  H   UNL     1      -0.425  -2.533   0.308  0.00  0.00    +0.157 HD
ATOM     12  H   UNL     1      -2.401   0.802  -0.632  0.00  0.00    +0.144 HD
ATOM     13  H   UNL     1      -3.232  -0.649  -0.466  0.00  0.00    +0.144 HD
ATOM     14  H   UNL     1      -2.088  -2.579   0.078  0.00  0.00    +0.157 HD
ENDBRANCH   6   8
BRANCH   3  15
ATOM     15  S   UNL     1       3.894   2.322  -0.024  0.00  0.00    -0.060 S 
BRANCH  15  16
ATOM     16  C   UNL     1       3.384   4.003  -0.159  0.00  0.00    +0.163 A 
ATOM     17  N   UNL     1       2.167   4.530  -0.143  0.00  0.00    -0.135 NA
ATOM     18  N   UNL     1       1.979   5.773  -0.253  0.00  0.00    -0.149 NA
ATOM     19  C   UNL     1       2.975   6.624  -0.390  0.00  0.00    +0.182 A 
ATOM     20  S   UNL     1       4.362   5.492  -0.348  0.00  0.00    -0.047 S 
ENDBRANCH  15  16
ENDBRANCH   3  15
TORSDOF 3
