REMARK  Name = ZINC28628138
REMARK  4 active torsions:
REMARK  status: ('A' for Active; 'I' for Inactive)
REMARK    1  A    between atoms: C_6  and  C_7
REMARK    2  A    between atoms: N_9  and  N_10
REMARK    3  A    between atoms: N_13  and  C_14
REMARK    4  A    between atoms: C_14  and  C_24
REMARK                            x       y       z     vdW  Elec       q    Type
REMARK                         _______ _______ _______ _____ _____    ______ ____
ROOT
ATOM      1  N   UNL     1       2.558   2.526   4.006  0.00  0.00    -0.218 N 
ATOM      2  C   UNL     1       2.379   2.530   2.671  0.00  0.00    +0.322 C 
ATOM      3  O   UNL     1       1.255   2.554   2.208  0.00  0.00    -0.251 OA
ATOM      4  N   UNL     1       3.446   2.508   1.848  0.00  0.00    -0.219 N 
ATOM      5  H   UNL     1       1.687   2.544   4.678  0.00  0.00    +0.174 HD
ATOM      6  H   UNL     1       4.463   2.486   2.266  0.00  0.00    +0.158 HD
ENDROOT
BRANCH   4   7
ATOM      7  C   UNL     1       3.252   2.512   0.396  0.00  0.00    +0.436 C 
ATOM      8  O   UNL     1       2.442   3.634  -0.003  0.00  0.00    -0.426 OA
ATOM      9  C   UNL     1       1.155   3.177   0.008  0.00  0.00    +0.169 A 
ATOM     10  C   UNL     1      -0.057   3.847   0.023  0.00  0.00    +0.051 A 
ATOM     11  C   UNL     1      -1.242   3.134   0.032  0.00  0.00    +0.024 A 
ATOM     12  C   UNL     1      -1.220   1.751   0.017  0.00  0.00    +0.045 A 
ATOM     13  C   UNL     1      -0.013   1.076   0.008  0.00  0.00    +0.069 A 
ATOM     14  C   UNL     1       1.178   1.785   0.000  0.00  0.00    +0.170 A 
ATOM     15  O   UNL     1       2.478   1.369  -0.015  0.00  0.00    -0.426 OA
ATOM     16 CL   UNL     1      -2.710   0.861   0.019  0.00  0.00    -0.083 Cl
BRANCH   7  17
ATOM     17  C   UNL     1       4.601   2.536  -0.326  0.00  0.00    +0.490 C 
ATOM     18  F   UNL     1       4.389   2.587  -1.708  0.00  0.00    -0.162 F 
ATOM     19  F   UNL     1       5.325   3.662   0.077  0.00  0.00    -0.162 F 
ATOM     20  F   UNL     1       5.320   1.379  -0.006  0.00  0.00    -0.162 F 
ENDBRANCH   7  17
ENDBRANCH   4   7
BRANCH   1  23
ATOM     21  C   UNL     1       4.032   2.495   5.875  0.00  0.00    +0.260 C 
ATOM     22  O   UNL     1       3.070   2.515   6.618  0.00  0.00    -0.269 OA
ATOM     23  N   UNL     1       3.853   2.499   4.540  0.00  0.00    -0.229 N 
ATOM     24  H   UNL     1       4.724   2.481   3.868  0.00  0.00    +0.173 HD
BRANCH  21  30
ATOM     25  C   UNL     1       6.506   2.437   5.588  0.00  0.00    +0.014 A 
ATOM     26  C   UNL     1       7.778   2.415   6.119  0.00  0.00    +0.021 A 
ATOM     27  C   UNL     1       7.959   2.410   7.492  0.00  0.00    +0.041 A 
ATOM     28  C   UNL     1       6.864   2.434   8.340  0.00  0.00    +0.021 A 
ATOM     29  C   UNL     1       5.587   2.462   7.821  0.00  0.00    +0.014 A 
ATOM     30  C   UNL     1       5.398   2.466   6.438  0.00  0.00    +0.038 A 
ATOM     31 CL   UNL     1       9.564   2.376   8.153  0.00  0.00    -0.084 Cl
ENDBRANCH  21  30
ENDBRANCH   1  23
TORSDOF 4
