REMARK  Name = ZINC57425878
REMARK  9 active torsions:
REMARK  status: ('A' for Active; 'I' for Inactive)
REMARK    1  A    between atoms: C_1  and  O_2
REMARK    2  A    between atoms: O_2  and  C_3
REMARK    3  A    between atoms: C_3  and  C_4
REMARK    4  A    between atoms: C_4  and  N_5
REMARK    5  A    between atoms: C_14  and  S_15
REMARK    6  A    between atoms: S_15  and  C_16
REMARK    7  A    between atoms: C_16  and  C_17
REMARK    8  A    between atoms: N_19  and  C_20
REMARK    9  A    between atoms: C_23  and  C_26
REMARK                            x       y       z     vdW  Elec       q    Type
REMARK                         _______ _______ _______ _____ _____    ______ ____
ROOT
ATOM      1  S   UNL     1      -0.361  -2.664  -3.781  0.00  0.00    -0.078 S 
ENDROOT
BRANCH   1  11
ATOM      2  N   UNL     1      -0.773  -2.567  -1.118  0.00  0.00    -0.285 N 
ATOM      3  C   UNL     1      -1.512  -2.708   0.009  0.00  0.00    +0.269 A 
ATOM      4  O   UNL     1      -1.041  -2.450   1.103  0.00  0.00    -0.266 OA
ATOM      5  C   UNL     1      -2.825  -3.157  -0.117  0.00  0.00    +0.102 A 
ATOM      6  C   UNL     1      -3.384  -3.459  -1.371  0.00  0.00    +0.086 A 
ATOM      7  C   UNL     1      -4.715  -3.900  -1.349  0.00  0.00    +0.036 A 
ATOM      8  C   UNL     1      -5.373  -4.011  -0.175  0.00  0.00    +0.048 A 
ATOM      9  S   UNL     1      -4.148  -3.493   1.015  0.00  0.00    -0.090 S 
ATOM     10  N   UNL     1      -2.565  -3.287  -2.451  0.00  0.00    -0.222 NA
ATOM     11  C   UNL     1      -1.337  -2.861  -2.326  0.00  0.00    +0.173 A 
BRANCH   2  12
ATOM     12  C   UNL     1       0.613  -2.099  -1.041  0.00  0.00    +0.155 C 
BRANCH  12  13
ATOM     13  C   UNL     1       0.641  -0.572  -1.134  0.00  0.00    +0.181 C 
BRANCH  13  15
ATOM     14  C   UNL     1      -0.040   1.416   0.020  0.00  0.00    +0.194 C 
ATOM     15  O   UNL     1      -0.011  -0.013   0.008  0.00  0.00    -0.381 OA
ENDBRANCH  13  15
ENDBRANCH  12  13
ENDBRANCH   2  12
ENDBRANCH   1  11
BRANCH   1  16
ATOM     16  C   UNL     1      -1.476  -3.154  -5.126  0.00  0.00    +0.173 C 
BRANCH  16  17
ATOM     17  C   UNL     1      -0.756  -3.030  -6.444  0.00  0.00    +0.227 C 
ATOM     18  O   UNL     1       0.395  -2.650  -6.474  0.00  0.00    -0.275 OA
ATOM     19  N   UNL     1      -1.392  -3.343  -7.591  0.00  0.00    -0.285 N 
ATOM     20  H   UNL     1      -2.289  -3.711  -7.563  0.00  0.00    +0.155 HD
BRANCH  19  21
ATOM     21  C   UNL     1      -0.758  -3.137  -8.821  0.00  0.00    +0.033 A 
ATOM     22  C   UNL     1      -1.498  -2.738  -9.927  0.00  0.00    +0.024 A 
ATOM     23  C   UNL     1      -0.869  -2.535 -11.139  0.00  0.00    +0.014 A 
ATOM     24  C   UNL     1       0.495  -2.729 -11.254  0.00  0.00    +0.055 A 
ATOM     25  C   UNL     1       1.235  -3.127 -10.155  0.00  0.00    +0.014 A 
ATOM     26  C   UNL     1       0.613  -3.325  -8.938  0.00  0.00    +0.024 A 
BRANCH  24  27
ATOM     27  C   UNL     1       1.178  -2.507 -12.579  0.00  0.00    +0.417 C 
ATOM     28  F   UNL     1       1.596  -1.175 -12.671  0.00  0.00    -0.166 F 
ATOM     29  F   UNL     1       2.289  -3.352 -12.678  0.00  0.00    -0.166 F 
ATOM     30  F   UNL     1       0.284  -2.788 -13.617  0.00  0.00    -0.166 F 
ENDBRANCH  24  27
ENDBRANCH  19  21
ENDBRANCH  16  17
ENDBRANCH   1  16
TORSDOF 8
