REMARK  Name = ZINC12549927
REMARK  9 active torsions:
REMARK  status: ('A' for Active; 'I' for Inactive)
REMARK    1  A    between atoms: C_1  and  C_2
REMARK    2  A    between atoms: C_4  and  C_26
REMARK    3  A    between atoms: C_6  and  S_9
REMARK    4  A    between atoms: C_7  and  C_8
REMARK    5  A    between atoms: S_9  and  N_12
REMARK    6  A    between atoms: N_12  and  C_13
REMARK    7  A    between atoms: C_13  and  C_14
REMARK    8  A    between atoms: C_14  and  C_15
REMARK    9  A    between atoms: C_15  and  C_16
REMARK                            x       y       z     vdW  Elec       q    Type
REMARK                         _______ _______ _______ _____ _____    ______ ____
ROOT
ATOM      1  N   UNL     1      -0.008   0.949   2.479  0.00  0.00    -0.190 NA
ATOM      2  H   UNL     1       0.671   0.256   2.462  0.00  0.00    +0.148 HD
ENDROOT
BRANCH   1   3
ATOM      3  S   UNL     1      -0.257   1.829   3.859  0.00  0.00    +0.059 S 
ATOM      4  O   UNL     1       0.635   1.313   4.837  0.00  0.00    -0.153 OA
ATOM      5  O   UNL     1      -0.256   3.197   3.474  0.00  0.00    -0.153 OA
BRANCH   3  11
ATOM      6  C   UNL     1      -3.814  -1.504   5.744  0.00  0.00    +0.044 C 
ATOM      7  C   UNL     1      -3.479  -0.107   5.288  0.00  0.00    -0.045 A 
ATOM      8  C   UNL     1      -4.447   0.875   5.313  0.00  0.00    +0.018 A 
ATOM      9  C   UNL     1      -4.136   2.168   4.889  0.00  0.00    +0.065 A 
ATOM     10  C   UNL     1      -2.845   2.458   4.442  0.00  0.00    +0.044 A 
ATOM     11  C   UNL     1      -1.887   1.466   4.423  0.00  0.00    +0.109 A 
ATOM     12  C   UNL     1      -2.204   0.185   4.839  0.00  0.00    -0.021 A 
ATOM     13  C   UNL     1      -1.153  -0.895   4.809  0.00  0.00    +0.046 C 
BRANCH   9  14
ATOM     14  C   UNL     1      -5.167   3.226   4.912  0.00  0.00    +0.387 C 
ATOM     15  O   UNL     1      -4.894   4.350   4.542  0.00  0.00    -0.241 OA
ATOM     16  O   UNL     1      -6.412   2.943   5.343  0.00  0.00    -0.241 OA
ENDBRANCH   9  14
ENDBRANCH   3  11
ENDBRANCH   1   3
BRANCH   1  17
ATOM     17  C   UNL     1      -0.814   1.215   1.285  0.00  0.00    +0.106 C 
BRANCH  17  18
ATOM     18  C   UNL     1      -0.157   0.557   0.070  0.00  0.00    +0.024 C 
BRANCH  18  19
ATOM     19  C   UNL     1      -0.998   0.836  -1.177  0.00  0.00    +0.075 C 
BRANCH  19  20
ATOM     20  C   UNL     1      -0.351   0.188  -2.374  0.00  0.00    +0.108 A 
ATOM     21  N   UNL     1      -0.966  -0.689  -3.214  0.00  0.00    -0.342 N 
ATOM     22  H   UNL     1      -1.910  -1.012  -3.146  0.00  0.00    +0.167 HD
ATOM     23  C   UNL     1      -0.045  -1.050  -4.176  0.00  0.00    +0.066 A 
ATOM     24  C   UNL     1      -0.079  -1.895  -5.278  0.00  0.00    +0.028 A 
ATOM     25  C   UNL     1       1.046  -2.040  -6.062  0.00  0.00    +0.002 A 
ATOM     26  C   UNL     1       2.210  -1.348  -5.756  0.00  0.00    +0.002 A 
ATOM     27  C   UNL     1       2.261  -0.513  -4.677  0.00  0.00    +0.030 A 
ATOM     28  C   UNL     1       1.134  -0.350  -3.868  0.00  0.00    +0.089 A 
ATOM     29  N   UNL     1       0.875   0.390  -2.759  0.00  0.00    -0.232 NA
ENDBRANCH  19  20
ENDBRANCH  18  19
ENDBRANCH  17  18
ENDBRANCH   1  17
TORSDOF 7
