REMARK  Name = ZINC25868330
REMARK  7 active torsions:
REMARK  status: ('A' for Active; 'I' for Inactive)
REMARK    1  A    between atoms: C_1  and  C_2
REMARK    2  A    between atoms: C_6  and  C_24
REMARK    3  A    between atoms: C_7  and  C_12
REMARK    4  A    between atoms: C_8  and  C_11
REMARK    5  A    between atoms: C_12  and  C_13
REMARK    6  A    between atoms: C_13  and  C_14
REMARK    7  A    between atoms: N_16  and  C_17
REMARK                            x       y       z     vdW  Elec       q    Type
REMARK                         _______ _______ _______ _____ _____    ______ ____
ROOT
ATOM      1  C   UNL     1       0.086  -5.761   1.422  0.00  0.00    +0.048 C 
ENDROOT
BRANCH   1   8
ATOM      2  C   UNL     1      -0.023   1.523   0.086  0.00  0.00    +0.067 C 
ATOM      3  C   UNL     1      -0.002   0.016   0.066  0.00  0.00    +0.062 A 
ATOM      4  C   UNL     1       0.005  -0.774  -1.073  0.00  0.00    +0.073 A 
ATOM      5  C   UNL     1       0.026  -2.101  -0.665  0.00  0.00    +0.156 A 
ATOM      6  N   UNL     1       0.040  -3.257  -1.341  0.00  0.00    -0.233 NA
ATOM      7  C   UNL     1       0.059  -4.406  -0.708  0.00  0.00    +0.045 A 
ATOM      8  C   UNL     1       0.065  -4.441   0.694  0.00  0.00    -0.005 A 
ATOM      9  C   UNL     1       0.051  -3.278   1.390  0.00  0.00    +0.047 A 
ATOM     10  N   UNL     1       0.032  -2.096   0.707  0.00  0.00    -0.218 N 
ATOM     11  N   UNL     1       0.019  -0.761   1.126  0.00  0.00    -0.170 NA
ATOM     12  C   UNL     1       0.057  -3.289   2.897  0.00  0.00    +0.066 C 
ATOM     13  C   UNL     1       0.074  -5.694  -1.490  0.00  0.00    +0.066 C 
ENDBRANCH   1   8
BRANCH   1  14
ATOM     14  C   UNL     1      -1.343  -6.288   1.563  0.00  0.00    +0.101 C 
BRANCH  14  15
ATOM     15  C   UNL     1      -1.322  -7.608   2.291  0.00  0.00    +0.218 C 
ATOM     16  O   UNL     1      -0.267  -8.080   2.659  0.00  0.00    -0.275 OA
ATOM     17  N   UNL     1      -2.475  -8.263   2.531  0.00  0.00    -0.285 N 
ATOM     18  H   UNL     1      -3.322  -7.856   2.295  0.00  0.00    +0.155 HD
BRANCH  17  19
ATOM     19  C   UNL     1      -2.448  -9.531   3.122  0.00  0.00    +0.047 A 
ATOM     20  C   UNL     1      -1.483  -9.836   4.073  0.00  0.00    +0.024 A 
ATOM     21  C   UNL     1      -1.460 -11.089   4.655  0.00  0.00    +0.002 A 
ATOM     22  C   UNL     1      -2.396 -12.039   4.291  0.00  0.00    +0.001 A 
ATOM     23  C   UNL     1      -3.358 -11.740   3.345  0.00  0.00    +0.017 A 
ATOM     24  C   UNL     1      -3.391 -10.486   2.764  0.00  0.00    +0.039 A 
ATOM     25 BR   UNL     1      -4.713 -10.075   1.475  0.00  0.00    -0.048 Br
ENDBRANCH  17  19
ENDBRANCH  14  15
ENDBRANCH   1  14
TORSDOF 4
