REMARK  Name = ZINC00715686
REMARK  5 active torsions:
REMARK  status: ('A' for Active; 'I' for Inactive)
REMARK    1  A    between atoms: C_12  and  C_20
REMARK    2  A    between atoms: C_14  and  C_18
REMARK    3  A    between atoms: C_15  and  N_17
REMARK    4  A    between atoms: C_23  and  O_26
REMARK    5  A    between atoms: O_26  and  C_27
REMARK                            x       y       z     vdW  Elec       q    Type
REMARK                         _______ _______ _______ _____ _____    ______ ____
ROOT
ATOM      1  C   UNL     1      -1.260   7.230  -3.498  0.00  0.00    +0.001 A 
ATOM      2  C   UNL     1      -1.543   6.584  -4.693  0.00  0.00    +0.004 A 
ATOM      3  C   UNL     1      -1.728   5.218  -4.727  0.00  0.00    +0.047 A 
ATOM      4  C   UNL     1      -1.630   4.476  -3.557  0.00  0.00    +0.143 A 
ATOM      5  C   UNL     1      -1.341   5.129  -2.348  0.00  0.00    +0.060 A 
ATOM      6  C   UNL     1      -1.157   6.513  -2.327  0.00  0.00    +0.015 A 
ATOM      7  C   UNL     1      -1.238   4.330  -1.116  0.00  0.00    +0.152 A 
ATOM      8  C   UNL     1      -1.428   2.982  -1.205  0.00  0.00    +0.092 A 
ATOM      9  C   UNL     1      -1.715   2.402  -2.453  0.00  0.00    +0.345 A 
ATOM     10  O   UNL     1      -1.883   1.197  -2.520  0.00  0.00    -0.245 OA
ATOM     11  O   UNL     1      -1.807   3.137  -3.571  0.00  0.00    -0.422 OA
ATOM     12  C   UNL     1      -1.333   2.113   0.020  0.00  0.00    +0.105 C 
ATOM     13  C   UNL     1      -1.424   2.954   1.262  0.00  0.00    +0.098 C 
ATOM     14  C   UNL     1      -1.237   4.295   1.214  0.00  0.00    +0.199 C 
ATOM     15  O   UNL     1      -0.963   4.927   0.059  0.00  0.00    -0.440 OA
ENDROOT
BRANCH  12  16
ATOM     16  C   UNL     1      -0.017   1.378   0.010  0.00  0.00    -0.034 A 
ATOM     17  C   UNL     1       1.170   2.088   0.002  0.00  0.00    +0.008 A 
ATOM     18  C   UNL     1       2.377   1.417  -0.013  0.00  0.00    +0.046 A 
ATOM     19  C   UNL     1       2.399   0.030  -0.021  0.00  0.00    +0.127 A 
ATOM     20  C   UNL     1       1.207  -0.680  -0.014  0.00  0.00    +0.046 A 
ATOM     21  C   UNL     1       0.002  -0.004   0.002  0.00  0.00    +0.008 A 
BRANCH  19  22
ATOM     22  O   UNL     1       3.586  -0.632  -0.037  0.00  0.00    -0.434 OA
BRANCH  22  23
ATOM     23  C   UNL     1       4.772   0.164  -0.044  0.00  0.00    +0.541 C 
ATOM     24  F   UNL     1       4.781   0.978  -1.182  0.00  0.00    -0.166 F 
ATOM     25  F   UNL     1       4.804   0.964   1.103  0.00  0.00    -0.166 F 
ENDBRANCH  22  23
ENDBRANCH  19  22
ENDBRANCH  12  16
BRANCH  14  26
ATOM     26  N   UNL     1      -1.328   5.026   2.372  0.00  0.00    -0.328 N 
ATOM     27  H   UNL     1      -1.196   5.987   2.351  0.00  0.00    +0.145 HD
ATOM     28  H   UNL     1      -1.525   4.582   3.212  0.00  0.00    +0.145 HD
ENDBRANCH  14  26
BRANCH  13  29
ATOM     29  C   UNL     1      -1.714   2.328   2.517  0.00  0.00    +0.101 C 
ATOM     30  N   UNL     1      -1.944   1.832   3.513  0.00  0.00    -0.191 NA
ENDBRANCH  13  29
TORSDOF 5
