REMARK  Name = ZINC49032363
REMARK  7 active torsions:
REMARK  status: ('A' for Active; 'I' for Inactive)
REMARK    1  A    between atoms: C_5  and  C_7
REMARK    2  A    between atoms: N_8  and  N_9
REMARK    3  A    between atoms: N_16  and  C1*_19
REMARK    4  A    between atoms: C2*_21  and  O2*_31
REMARK    5  A    between atoms: C3*_23  and  O3*_30
REMARK    6  A    between atoms: C4*_25  and  C5*_28
REMARK    7  A    between atoms: C5*_28  and  O5*_29
REMARK                            x       y       z     vdW  Elec       q    Type
REMARK                         _______ _______ _______ _____ _____    ______ ____
ROOT
ATOM      1  N   UNL     1       2.449  -4.159  -0.045  0.00  0.00    -0.205 N 
ATOM      2  C   UNL     1       3.667  -4.820  -0.061  0.00  0.00    +0.239 A 
ATOM      3  N   UNL     1       4.785  -4.104  -0.062  0.00  0.00    -0.196 NA
ATOM      4  C   UNL     1       5.976  -4.691  -0.077  0.00  0.00    +0.149 A 
ATOM      5  C   UNL     1       6.033  -6.096  -0.090  0.00  0.00    +0.147 A 
ATOM      6  C   UNL     1       4.824  -6.812  -0.088  0.00  0.00    +0.169 A 
ATOM      7  N   UNL     1       3.675  -6.143  -0.069  0.00  0.00    -0.193 NA
ATOM      8  N   UNL     1       5.170  -8.139  -0.104  0.00  0.00    -0.285 N 
ATOM      9  C   UNL     1       6.532  -8.207  -0.114  0.00  0.00    +0.203 A 
ATOM     10  N   UNL     1       7.036  -7.007  -0.106  0.00  0.00    -0.231 NA
ATOM     11  N   UNL     1       7.136  -3.937  -0.078  0.00  0.00    -0.341 N 
ATOM     12  H   UNL     1       1.622  -4.666  -0.040  0.00  0.00    +0.177 HD
ATOM     13  H   UNL     1       7.084  -2.968  -0.069  0.00  0.00    +0.144 HD
ATOM     14  H   UNL     1       8.000  -4.377  -0.089  0.00  0.00    +0.144 HD
ENDROOT
BRANCH   8  15
ATOM     15  C1* UNL     1       4.246  -9.276  -0.107  0.00  0.00    +0.253 C 
ATOM     16  C2* UNL     1       3.832  -9.619   1.340  0.00  0.00    +0.195 C 
ATOM     17  C3* UNL     1       3.809 -11.172   1.317  0.00  0.00    +0.178 C 
ATOM     18  C4* UNL     1       4.968 -11.469   0.332  0.00  0.00    +0.177 C 
ATOM     19  O4* UNL     1       4.894 -10.428  -0.658  0.00  0.00    -0.346 OA
BRANCH  17  20
ATOM     20  O3* UNL     1       4.083 -11.710   2.612  0.00  0.00    -0.386 OA
ATOM     21  H3* UNL     1       4.079 -12.677   2.646  0.00  0.00    +0.210 HD
ENDBRANCH  17  20
BRANCH  16  22
ATOM     22  O2* UNL     1       4.799  -9.135   2.274  0.00  0.00    -0.385 OA
ATOM     23  H2* UNL     1       4.585  -9.325   3.197  0.00  0.00    +0.210 HD
ENDBRANCH  16  22
BRANCH  18  24
ATOM     24  C5* UNL     1       4.772 -12.839  -0.320  0.00  0.00    +0.190 C 
BRANCH  24  25
ATOM     25  O5* UNL     1       5.906 -13.145  -1.135  0.00  0.00    -0.392 OA
ATOM     26  H5* UNL     1       5.850 -14.001  -1.581  0.00  0.00    +0.210 HD
ENDBRANCH  24  25
ENDBRANCH  18  24
ENDBRANCH   8  15
BRANCH   1  28
ATOM     27  C   UNL     1       1.271  -2.139  -0.022  0.00  0.00    +0.158 C 
ATOM     28  N   UNL     1       2.412  -2.758  -0.037  0.00  0.00    -0.186 NA
BRANCH  27  33
ATOM     29  C   UNL     1      -0.017   1.379   0.010  0.00  0.00    +0.004 A 
ATOM     30  C   UNL     1       1.194   2.059   0.002  0.00  0.00    +0.020 A 
ATOM     31  C   UNL     1       2.376   1.342  -0.013  0.00  0.00    +0.111 A 
ATOM     32  N   UNL     1       2.369   0.024  -0.021  0.00  0.00    -0.254 NA
ATOM     33  C   UNL     1       1.233  -0.666  -0.014  0.00  0.00    +0.083 A 
ATOM     34  C   UNL     1       0.002  -0.004   0.002  0.00  0.00    +0.029 A 
ENDBRANCH  27  33
ENDBRANCH   1  28
TORSDOF 7
