REMARK  Name = ZINC39835974
REMARK  7 active torsions:
REMARK  status: ('A' for Active; 'I' for Inactive)
REMARK    1  A    between atoms: C_1  and  C_2
REMARK    2  A    between atoms: C_9  and  O_29
REMARK    3  A    between atoms: C_10  and  C_13
REMARK    4  A    between atoms: N_17  and  C_21
REMARK    5  A    between atoms: C_21  and  C_22
REMARK    6  A    between atoms: C_22  and  C_23
REMARK    7  A    between atoms: O_29  and  C_30
REMARK                            x       y       z     vdW  Elec       q    Type
REMARK                         _______ _______ _______ _____ _____    ______ ____
ROOT
ATOM      1  C   UNL     1       1.194   1.146  -0.119  0.00  0.00    +0.047 C 
ATOM      2  C   UNL     1       1.099  -0.356  -0.038  0.00  0.00    -0.007 A 
ATOM      3  C   UNL     1       1.270  -1.115  -1.158  0.00  0.00    +0.008 A 
ATOM      4  C   UNL     1       1.179  -2.511  -1.067  0.00  0.00    +0.019 A 
ATOM      5  C   UNL     1       0.924  -3.098   0.125  0.00  0.00    +0.096 A 
ATOM      6  N   UNL     1       0.751  -2.347   1.249  0.00  0.00    -0.267 N 
ATOM      7  C   UNL     1       0.840  -0.984   1.193  0.00  0.00    +0.147 A 
ATOM      8  N   UNL     1       0.680  -0.233   2.284  0.00  0.00    -0.194 NA
ATOM      9  C   UNL     1       0.435  -0.771   3.468  0.00  0.00    +0.235 A 
ATOM     10  C   UNL     1       0.338  -2.175   3.589  0.00  0.00    +0.103 A 
ATOM     11  C   UNL     1       0.497  -2.964   2.423  0.00  0.00    +0.269 A 
ATOM     12  O   UNL     1       0.422  -4.179   2.482  0.00  0.00    -0.266 OA
ENDROOT
BRANCH  10  13
ATOM     13  C   UNL     1       0.076  -2.778   4.842  0.00  0.00    +0.039 C 
ATOM     14  C   UNL     1      -1.034  -2.425   5.551  0.00  0.00    +0.077 C 
ATOM     15  C   UNL     1      -2.129  -1.597   5.167  0.00  0.00    +0.258 C 
ATOM     16  O   UNL     1      -2.169  -1.084   4.063  0.00  0.00    -0.269 OA
ATOM     17  N   UNL     1      -3.099  -1.401   6.043  0.00  0.00    -0.255 N 
ATOM     18  C   UNL     1      -3.054  -1.971   7.268  0.00  0.00    +0.121 C 
ATOM     19  S   UNL     1      -4.186  -1.857   8.547  0.00  0.00    -0.027 S 
ATOM     20  S   UNL     1      -1.517  -2.879   7.211  0.00  0.00    -0.061 S 
BRANCH  17  21
ATOM     21  C   UNL     1      -4.239  -0.555   5.681  0.00  0.00    +0.119 C 
BRANCH  21  22
ATOM     22  C   UNL     1      -5.331  -1.417   5.043  0.00  0.00    +0.054 C 
BRANCH  22  23
ATOM     23  C   UNL     1      -6.503  -0.546   4.671  0.00  0.00    -0.046 A 
ATOM     24  C   UNL     1      -7.521  -0.331   5.582  0.00  0.00    +0.004 A 
ATOM     25  C   UNL     1      -8.597   0.467   5.241  0.00  0.00    +0.000 A 
ATOM     26  C   UNL     1      -8.655   1.051   3.989  0.00  0.00    +0.000 A 
ATOM     27  C   UNL     1      -7.637   0.836   3.079  0.00  0.00    +0.000 A 
ATOM     28  C   UNL     1      -6.559   0.041   3.421  0.00  0.00    +0.004 A 
ENDBRANCH  22  23
ENDBRANCH  21  22
ENDBRANCH  17  21
ENDBRANCH  10  13
BRANCH   9  29
ATOM     29  O   UNL     1       0.278   0.018   4.554  0.00  0.00    -0.437 OA
BRANCH  29  30
ATOM     30  C   UNL     1       0.473   1.355   4.406  0.00  0.00    +0.131 A 
ATOM     31  C   UNL     1      -0.490   2.131   3.776  0.00  0.00    +0.049 A 
ATOM     32  C   UNL     1      -0.290   3.490   3.626  0.00  0.00    +0.042 A 
ATOM     33  C   UNL     1       0.870   4.077   4.102  0.00  0.00    +0.124 A 
ATOM     34  C   UNL     1       1.831   3.304   4.730  0.00  0.00    +0.042 A 
ATOM     35  C   UNL     1       1.632   1.946   4.888  0.00  0.00    +0.049 A 
ATOM     36  F   UNL     1       1.063   5.406   3.954  0.00  0.00    -0.205 F 
ENDBRANCH  29  30
ENDBRANCH   9  29
TORSDOF 6
