REMARK  Name = ZINC63393959
REMARK  7 active torsions:
REMARK  status: ('A' for Active; 'I' for Inactive)
REMARK    1  A    between atoms: C_1  and  O_2
REMARK    2  A    between atoms: O_2  and  C_3
REMARK    3  A    between atoms: C_6  and  C_9
REMARK    4  A    between atoms: C_9  and  N_10
REMARK    5  A    between atoms: N_10  and  C_11
REMARK    6  A    between atoms: C_11  and  N_13
REMARK    7  A    between atoms: N_13  and  N_14
REMARK                            x       y       z     vdW  Elec       q    Type
REMARK                         _______ _______ _______ _____ _____    ______ ____
ROOT
ATOM      1  N   UNL     1      -0.209  -3.236   7.351  0.00  0.00    -0.237 N 
ATOM      2  C   UNL     1      -1.112  -3.466   8.353  0.00  0.00    +0.202 C 
ATOM      3  N   UNL     1      -0.700  -4.055   9.463  0.00  0.00    -0.147 NA
ATOM      4  C   UNL     1      -1.506  -4.233  10.502  0.00  0.00    +0.248 C 
ATOM      5  O   UNL     1      -1.093  -4.818  11.485  0.00  0.00    -0.273 OA
ATOM      6  C   UNL     1      -2.914  -3.724  10.486  0.00  0.00    +0.131 C 
ATOM      7  C   UNL     1      -3.283  -3.231   9.109  0.00  0.00    +0.038 C 
ATOM      8  N   UNL     1      -2.385  -3.083   8.180  0.00  0.00    -0.331 N 
ATOM      9  C   UNL     1      -4.706  -2.970   8.840  0.00  0.00    -0.002 A 
ATOM     10  C   UNL     1      -5.085  -2.242   7.708  0.00  0.00    +0.010 A 
ATOM     11  C   UNL     1      -6.421  -2.010   7.460  0.00  0.00    +0.001 A 
ATOM     12  C   UNL     1      -7.380  -2.499   8.331  0.00  0.00    +0.000 A 
ATOM     13  C   UNL     1      -7.011  -3.216   9.453  0.00  0.00    +0.004 A 
ATOM     14  C   UNL     1      -5.675  -3.456   9.724  0.00  0.00    -0.038 A 
ATOM     15  C   UNL     1      -5.309  -4.221  10.965  0.00  0.00    +0.043 C 
ATOM     16  C   UNL     1      -3.910  -4.827  10.850  0.00  0.00    -0.009 C 
ATOM     17  C   UNL     1      -3.520  -5.441  12.196  0.00  0.00    +0.008 C 
ATOM     18  C   UNL     1      -4.514  -6.545  12.561  0.00  0.00    +0.001 C 
ATOM     19  C   UNL     1      -4.490  -7.629  11.482  0.00  0.00    +0.000 C 
ATOM     20  C   UNL     1      -4.882  -7.015  10.136  0.00  0.00    +0.001 C 
ATOM     21  C   UNL     1      -3.888  -5.911   9.770  0.00  0.00    +0.008 C 
ATOM     22  H   UNL     1      -2.645  -2.686   7.334  0.00  0.00    +0.168 HD
ATOM     23  H   UNL     1      -0.494  -2.801   6.532  0.00  0.00    +0.173 HD
ENDROOT
BRANCH   1  24
ATOM     24  N   UNL     1       1.126  -3.627   7.508  0.00  0.00    -0.246 N 
ATOM     25  H   UNL     1       1.411  -4.062   8.327  0.00  0.00    +0.172 HD
BRANCH  24  26
ATOM     26  C   UNL     1       2.016  -3.400   6.521  0.00  0.00    +0.147 C 
ATOM     27  S   UNL     1       3.648  -3.879   6.713  0.00  0.00    -0.017 S 
BRANCH  26  28
ATOM     28  N   UNL     1       1.620  -2.797   5.383  0.00  0.00    -0.321 N 
ATOM     29  H   UNL     1       0.695  -2.526   5.274  0.00  0.00    +0.148 HD
BRANCH  28  30
ATOM     30  C   UNL     1       2.587  -2.550   4.310  0.00  0.00    +0.138 C 
BRANCH  30  34
ATOM     31  C   UNL     1       0.626  -0.618   1.042  0.00  0.00    +0.120 A 
ATOM     32  C   UNL     1       1.202   0.138   2.051  0.00  0.00    +0.046 A 
ATOM     33  C   UNL     1       1.835  -0.488   3.107  0.00  0.00    +0.009 A 
ATOM     34  C   UNL     1       1.895  -1.869   3.158  0.00  0.00    -0.030 A 
ATOM     35  C   UNL     1       1.322  -2.625   2.152  0.00  0.00    +0.009 A 
ATOM     36  C   UNL     1       0.682  -2.003   1.098  0.00  0.00    +0.046 A 
BRANCH  31  38
ATOM     37  C   UNL     1      -0.017   1.425   0.010  0.00  0.00    +0.277 C 
ATOM     38  O   UNL     1       0.002  -0.004   0.002  0.00  0.00    -0.495 OA
ENDBRANCH  31  38
ENDBRANCH  30  34
ENDBRANCH  28  30
ENDBRANCH  26  28
ENDBRANCH  24  26
ENDBRANCH   1  24
TORSDOF 6
