REMARK  Name = ZINC39666224
REMARK  8 active torsions:
REMARK  status: ('A' for Active; 'I' for Inactive)
REMARK    1  A    between atoms: C_1  and  C_2
REMARK    2  A    between atoms: C_5  and  O_8
REMARK    3  A    between atoms: O_8  and  C_9
REMARK    4  A    between atoms: C_9  and  C_11
REMARK    5  A    between atoms: C_9  and  C_12
REMARK    6  A    between atoms: C_12  and  N_13
REMARK    7  A    between atoms: C_14  and  C_16
REMARK    8  A    between atoms: C_27  and  C_29
REMARK                            x       y       z     vdW  Elec       q    Type
REMARK                         _______ _______ _______ _____ _____    ______ ____
ROOT
ATOM      1  C   UNL     1       4.871  -6.444   0.584  0.00  0.00    +0.100 C 
ATOM      2  C   UNL     1       5.036  -5.593  -0.695  0.00  0.00    +0.121 C 
ATOM      3  N   UNL     1       6.284  -6.093  -1.319  0.00  0.00    -0.296 N 
ATOM      4  C   UNL     1       6.236  -7.561  -1.115  0.00  0.00    +0.115 C 
ATOM      5  C   UNL     1       5.659  -7.735   0.304  0.00  0.00    -0.004 C 
ATOM      6  C   UNL     1       4.728  -8.943   0.350  0.00  0.00    -0.010 C 
ATOM      7  C   UNL     1       5.543 -10.220   0.126  0.00  0.00    -0.082 C 
ATOM      8  N   UNL     1       6.574 -10.332   1.165  0.00  0.00    +0.379 N 
ATOM      9  C   UNL     1       7.520  -9.215   1.054  0.00  0.00    -0.082 C 
ATOM     10  C   UNL     1       6.788  -7.896   1.317  0.00  0.00    -0.010 C 
ATOM     11  C   UNL     1       7.246  -5.376  -1.932  0.00  0.00    +0.248 C 
ATOM     12  O   UNL     1       8.269  -5.921  -2.303  0.00  0.00    -0.270 OA
ATOM     13  H   UNL     1       6.138 -10.312   2.074  0.00  0.00    -0.086 HD
ATOM     14  H   UNL     1       7.071 -11.203   1.052  0.00  0.00    -0.086 HD
ENDROOT
BRANCH  11  15
ATOM     15  C   UNL     1       7.059  -3.936  -2.154  0.00  0.00    +0.052 A 
ATOM     16  C   UNL     1       5.816  -3.397  -2.242  0.00  0.00    +0.059 A 
ATOM     17  S   UNL     1       6.059  -1.756  -2.492  0.00  0.00    -0.096 S 
ATOM     18  C   UNL     1       7.829  -1.698  -2.493  0.00  0.00    +0.020 A 
ATOM     19  C   UNL     1       8.209  -3.037  -2.280  0.00  0.00    +0.001 A 
ATOM     20  C   UNL     1       9.587  -3.316  -2.224  0.00  0.00    +0.010 A 
ATOM     21  C   UNL     1      10.507  -2.307  -2.369  0.00  0.00    +0.001 A 
ATOM     22  C   UNL     1      10.107  -0.994  -2.573  0.00  0.00    +0.001 A 
ATOM     23  C   UNL     1       8.761  -0.693  -2.643  0.00  0.00    +0.015 A 
ENDBRANCH  11  15
BRANCH   1  25
ATOM     24  N   UNL     1       2.958  -6.920   2.078  0.00  0.00    -0.312 N 
ATOM     25  C   UNL     1       3.416  -6.759   0.821  0.00  0.00    +0.218 C 
ATOM     26  O   UNL     1       2.658  -6.866  -0.119  0.00  0.00    -0.275 OA
ATOM     27  H   UNL     1       3.564  -6.834   2.830  0.00  0.00    +0.149 HD
BRANCH  24  28
ATOM     28  C   UNL     1       1.544  -7.225   2.309  0.00  0.00    +0.148 C 
BRANCH  28  29
ATOM     29  C   UNL     1       1.289  -7.357   3.811  0.00  0.00    +0.187 C 
ATOM     30  C   UNL     1      -0.158  -7.798   4.047  0.00  0.00    +0.053 C 
BRANCH  29  31
ATOM     31  O   UNL     1       1.511  -6.095   4.445  0.00  0.00    -0.488 OA
BRANCH  31  36
ATOM     32  C   UNL     1       3.675  -6.191   9.644  0.00  0.00    +0.044 C 
ATOM     33  C   UNL     1       3.096  -6.166   8.253  0.00  0.00    -0.050 A 
ATOM     34  C   UNL     1       2.748  -7.349   7.628  0.00  0.00    +0.007 A 
ATOM     35  C   UNL     1       2.217  -7.328   6.353  0.00  0.00    +0.046 A 
ATOM     36  C   UNL     1       2.033  -6.119   5.699  0.00  0.00    +0.121 A 
ATOM     37  C   UNL     1       2.382  -4.932   6.329  0.00  0.00    +0.046 A 
ATOM     38  C   UNL     1       2.908  -4.958   7.606  0.00  0.00    +0.007 A 
ENDBRANCH  31  36
ENDBRANCH  29  31
ENDBRANCH  28  29
ENDBRANCH  24  28
ENDBRANCH   1  25
TORSDOF 6
