REMARK  Name = ZINC45947937
REMARK  8 active torsions:
REMARK  status: ('A' for Active; 'I' for Inactive)
REMARK    1  A    between atoms: C_1  and  C_2
REMARK    2  A    between atoms: C_4  and  N_24
REMARK    3  A    between atoms: C_7  and  N_8
REMARK    4  A    between atoms: C_9  and  C_11
REMARK    5  A    between atoms: C_12  and  C_13
REMARK    6  A    between atoms: C_16  and  O_19
REMARK    7  A    between atoms: O_19  and  C_20
REMARK    8  A    between atoms: N_27  and  C_30
REMARK                            x       y       z     vdW  Elec       q    Type
REMARK                         _______ _______ _______ _____ _____    ______ ____
ROOT
ATOM      1  N   UNL     1       0.024  -0.011   2.417  0.00  0.00    -0.282 N 
ATOM      2  C   UNL     1      -0.446  -0.540   3.564  0.00  0.00    +0.241 C 
ATOM      3  O   UNL     1      -0.813  -1.701   3.593  0.00  0.00    -0.270 OA
ATOM      4  H   UNL     1       0.369   0.895   2.407  0.00  0.00    +0.155 HD
ENDROOT
BRANCH   1  11
ATOM      5  C   UNL     1      -0.066   1.369  -0.068  0.00  0.00    +0.046 C 
ATOM      6  C   UNL     1      -0.029  -0.136   0.006  0.00  0.00    -0.027 A 
ATOM      7  C   UNL     1      -0.032  -0.884  -1.155  0.00  0.00    +0.028 A 
ATOM      8  C   UNL     1       0.003  -2.271  -1.087  0.00  0.00    +0.030 A 
ATOM      9  C   UNL     1       0.041  -2.905   0.148  0.00  0.00    +0.025 A 
ATOM     10  C   UNL     1       0.044  -2.157   1.308  0.00  0.00    +0.025 A 
ATOM     11  C   UNL     1       0.015  -0.770   1.240  0.00  0.00    +0.037 A 
BRANCH   8  12
ATOM     12  N   UNL     1      -0.002  -3.029  -2.263  0.00  0.00    -0.333 N 
ATOM     13  C   UNL     1      -0.154  -2.385  -3.577  0.00  0.00    +0.086 C 
ATOM     14  C   UNL     1       0.962  -2.890  -4.498  0.00  0.00    -0.060 C 
ATOM     15  N   UNL     1       0.939  -4.358  -4.535  0.00  0.00    +0.380 N 
ATOM     16  C   UNL     1       1.249  -4.897  -3.205  0.00  0.00    -0.060 C 
ATOM     17  C   UNL     1       0.153  -4.491  -2.221  0.00  0.00    +0.086 C 
ATOM     18  C   UNL     1       1.936  -4.837  -5.501  0.00  0.00    -0.096 C 
ATOM     19  H   UNL     1       0.022  -4.671  -4.818  0.00  0.00    -0.082 HD
ENDBRANCH   8  12
ENDBRANCH   1  11
BRANCH   2  20
ATOM     20  C   UNL     1      -0.515   0.279   4.773  0.00  0.00    +0.068 C 
ATOM     21  C   UNL     1      -0.986  -0.251   5.922  0.00  0.00    +0.013 C 
BRANCH  21  22
ATOM     22  C   UNL     1      -1.056   0.573   7.137  0.00  0.00    -0.025 A 
ATOM     23  C   UNL     1      -0.640   1.909   7.104  0.00  0.00    +0.011 A 
ATOM     24  C   UNL     1      -0.707   2.676   8.245  0.00  0.00    +0.046 A 
ATOM     25  C   UNL     1      -1.187   2.127   9.429  0.00  0.00    +0.130 A 
ATOM     26  C   UNL     1      -1.601   0.800   9.466  0.00  0.00    +0.046 A 
ATOM     27  C   UNL     1      -1.544   0.026   8.329  0.00  0.00    +0.011 A 
BRANCH  25  28
ATOM     28  O   UNL     1      -1.251   2.887  10.551  0.00  0.00    -0.406 OA
BRANCH  28  29
ATOM     29  C   UNL     1      -1.754   2.260  11.732  0.00  0.00    +0.575 C 
ATOM     30  F   UNL     1      -0.942   1.169  12.063  0.00  0.00    -0.133 F 
ATOM     31  F   UNL     1      -1.751   3.180  12.786  0.00  0.00    -0.133 F 
ATOM     32  F   UNL     1      -3.061   1.815  11.504  0.00  0.00    -0.133 F 
ENDBRANCH  28  29
ENDBRANCH  25  28
ENDBRANCH  21  22
ENDBRANCH   2  20
TORSDOF 6
