REMARK  Name = ZINC63476276
REMARK  3 active torsions:
REMARK  status: ('A' for Active; 'I' for Inactive)
REMARK    1  A    between atoms: C_2  and  N_9
REMARK    2  A    between atoms: N_9  and  S_10
REMARK    3  A    between atoms: S_10  and  C_13
REMARK                            x       y       z     vdW  Elec       q    Type
REMARK                         _______ _______ _______ _____ _____    ______ ____
ROOT
ATOM      1  S   UNL     1       2.586   4.329   0.000  0.00  0.00    +0.093 S 
ATOM      2  O   UNL     1       3.228   4.056   1.238  0.00  0.00    -0.148 OA
ATOM      3  O   UNL     1       3.204   4.068  -1.252  0.00  0.00    -0.148 OA
ENDROOT
BRANCH   1   4
ATOM      4  C   UNL     1       2.176   6.042   0.013  0.00  0.00    +0.131 A 
ATOM      5  C   UNL     1       1.996   6.729  -1.178  0.00  0.00    +0.070 A 
ATOM      6  C   UNL     1       1.674   8.078  -1.120  0.00  0.00    +0.143 A 
ATOM      7  C   UNL     1       1.544   8.687   0.117  0.00  0.00    +0.149 A 
ATOM      8  N   UNL     1       1.723   8.000   1.228  0.00  0.00    -0.258 NA
ATOM      9  C   UNL     1       2.024   6.716   1.209  0.00  0.00    +0.139 A 
ATOM     10  F   UNL     1       1.490   8.788  -2.254  0.00  0.00    -0.204 F 
ENDBRANCH   1   4
BRANCH   1  11
ATOM     11  N   UNL     1       1.161   3.484   0.009  0.00  0.00    -0.098 NA
BRANCH  11  13
ATOM     12  C   UNL     1      -0.017   1.378   0.010  0.00  0.00    +0.046 A 
ATOM     13  C   UNL     1       1.177   2.088   0.002  0.00  0.00    +0.077 A 
ATOM     14  C   UNL     1       2.387   1.406  -0.013  0.00  0.00    +0.046 A 
ATOM     15  C   UNL     1       2.400   0.023  -0.021  0.00  0.00    +0.044 A 
ATOM     16  C   UNL     1       1.209  -0.681  -0.014  0.00  0.00    +0.040 A 
ATOM     17  C   UNL     1       0.002  -0.004   0.002  0.00  0.00    +0.044 A 
ATOM     18 CL   UNL     1      -1.490  -0.892   0.011  0.00  0.00    -0.083 Cl
ATOM     19 CL   UNL     1       3.912  -0.830  -0.040  0.00  0.00    -0.083 Cl
ENDBRANCH  11  13
ENDBRANCH   1  11
TORSDOF 3
