REMARK  Name = ZINC65283402
REMARK  7 active torsions:
REMARK  status: ('A' for Active; 'I' for Inactive)
REMARK    1  A    between atoms: C_1  and  C_2
REMARK    2  A    between atoms: C_8  and  C_17
REMARK    3  A    between atoms: N_19  and  C_20
REMARK    4  A    between atoms: C_20  and  C_21
REMARK    5  A    between atoms: C_21  and  N_22
REMARK    6  A    between atoms: N_22  and  C_23
REMARK    7  A    between atoms: N_22  and  C_24
REMARK                            x       y       z     vdW  Elec       q    Type
REMARK                         _______ _______ _______ _____ _____    ______ ____
ROOT
ATOM      1  C   UNL     1      -0.062   1.499  -0.299  0.00  0.00    +0.052 C 
ATOM      2  C   UNL     1      -0.035  -0.007  -0.261  0.00  0.00    -0.001 A 
ATOM      3  C   UNL     1      -1.098  -0.860  -0.032  0.00  0.00    +0.050 A 
ATOM      4  C   UNL     1      -0.740  -2.284  -0.060  0.00  0.00    +0.084 A 
ATOM      5  C   UNL     1       0.601  -2.519  -0.311  0.00  0.00    +0.074 A 
ATOM      6  S   UNL     1       1.285  -1.005  -0.494  0.00  0.00    -0.099 S 
ATOM      7  N   UNL     1      -1.732  -3.184   0.157  0.00  0.00    -0.223 NA
ATOM      8  C   UNL     1      -2.962  -2.805   0.383  0.00  0.00    +0.218 A 
ATOM      9  N   UNL     1      -3.357  -1.530   0.422  0.00  0.00    -0.208 NA
ATOM     10  C   UNL     1      -2.514  -0.534   0.230  0.00  0.00    +0.134 A 
ATOM     11  N   UNL     1      -2.942   0.775   0.275  0.00  0.00    -0.313 N 
ATOM     12  C   UNL     1      -3.393   1.431  -0.953  0.00  0.00    +0.117 C 
ATOM     13  C   UNL     1      -4.890   1.745  -0.845  0.00  0.00    +0.088 C 
ATOM     14  S   UNL     1      -5.163   2.777   0.626  0.00  0.00    -0.158 S 
ATOM     15  C   UNL     1      -4.385   1.814   1.958  0.00  0.00    +0.088 C 
ATOM     16  C   UNL     1      -2.947   1.491   1.552  0.00  0.00    +0.117 C 
ENDROOT
BRANCH   8  17
ATOM     17  C   UNL     1      -3.983  -3.856   0.608  0.00  0.00    +0.281 C 
ATOM     18  O   UNL     1      -5.138  -3.545   0.822  0.00  0.00    -0.267 OA
ATOM     19  N   UNL     1      -3.630  -5.156   0.577  0.00  0.00    -0.311 N 
ATOM     20  H   UNL     1      -2.708  -5.404   0.407  0.00  0.00    +0.149 HD
BRANCH  19  21
ATOM     21  C   UNL     1      -4.639  -6.194   0.801  0.00  0.00    +0.086 C 
BRANCH  21  22
ATOM     22  C   UNL     1      -3.981  -7.573   0.713  0.00  0.00    -0.061 C 
BRANCH  22  23
ATOM     23  N   UNL     1      -4.992  -8.614   0.937  0.00  0.00    +0.377 N 
ATOM     24  C   UNL     1      -5.976  -8.583  -0.154  0.00  0.00    -0.097 C 
ATOM     25  C   UNL     1      -4.341  -9.930   0.972  0.00  0.00    -0.097 C 
ATOM     26  H   UNL     1      -5.459  -8.446   1.816  0.00  0.00    -0.083 HD
ENDBRANCH  22  23
ENDBRANCH  21  22
ENDBRANCH  19  21
ENDBRANCH   8  17
TORSDOF 4
