REMARK  Name = ZINC13879841
REMARK  10 active torsions:
REMARK  status: ('A' for Active; 'I' for Inactive)
REMARK    1  A    between atoms: C_1  and  C_2
REMARK    2  A    between atoms: C_5  and  N_9
REMARK    3  A    between atoms: C_6  and  C_8
REMARK    4  A    between atoms: N_9  and  C_10
REMARK    5  A    between atoms: N_11  and  C_12
REMARK    6  A    between atoms: C_12  and  C_14
REMARK    7  A    between atoms: C_24  and  C_29
REMARK    8  A    between atoms: C_29  and  S_30
REMARK    9  A    between atoms: S_30  and  C_31
REMARK   10  A    between atoms: C_34  and  C_36
REMARK                            x       y       z     vdW  Elec       q    Type
REMARK                         _______ _______ _______ _____ _____    ______ ____
ROOT
ATOM      1  C   UNL     1       0.132  -4.920  -1.159  0.00  0.00    +0.223 C 
ATOM      2  N   UNL     1       0.185  -4.325  -2.340  0.00  0.00    -0.141 NA
ATOM      3  N   UNL     1       0.144  -6.287  -1.079  0.00  0.00    -0.296 N 
ATOM      4  C   UNL     1       0.212  -7.042  -2.227  0.00  0.00    +0.212 A 
ATOM      5  N   UNL     1       0.217  -8.398  -2.134  0.00  0.00    -0.328 N 
ATOM      6  H   UNL     1       0.175  -8.821  -1.263  0.00  0.00    +0.168 HD
ATOM      7  C   UNL     1       0.283  -9.167  -3.259  0.00  0.00    +0.034 A 
ATOM      8  C   UNL     1       0.342  -8.567  -4.468  0.00  0.00    +0.094 A 
ATOM      9  C   UNL     1       0.334  -7.150  -4.530  0.00  0.00    +0.275 A 
ATOM     10  O   UNL     1       0.387  -6.581  -5.610  0.00  0.00    -0.266 OA
ATOM     11  N   UNL     1       0.264  -6.439  -3.395  0.00  0.00    -0.175 NA
ATOM     12  H   UNL     1       0.106  -6.723  -0.213  0.00  0.00    +0.172 HD
ENDROOT
BRANCH   2  13
ATOM     13  C   UNL     1       0.288  -2.991  -2.414  0.00  0.00    +0.270 C 
ATOM     14  O   UNL     1       0.232  -2.318  -1.401  0.00  0.00    -0.268 OA
BRANCH  13  15
ATOM     15  C   UNL     1       0.471  -2.335  -3.729  0.00  0.00    +0.039 A 
ATOM     16  C   UNL     1       0.420  -3.089  -4.902  0.00  0.00    +0.013 A 
ATOM     17  C   UNL     1       0.590  -2.472  -6.124  0.00  0.00    +0.001 A 
ATOM     18  C   UNL     1       0.812  -1.108  -6.188  0.00  0.00    +0.000 A 
ATOM     19  C   UNL     1       0.864  -0.354  -5.029  0.00  0.00    +0.001 A 
ATOM     20  C   UNL     1       0.689  -0.959  -3.801  0.00  0.00    +0.013 A 
ENDBRANCH  13  15
ENDBRANCH   2  13
BRANCH   1  21
ATOM     21  N   UNL     1       0.066  -4.170  -0.020  0.00  0.00    -0.215 NA
BRANCH  21  26
ATOM     22  C   UNL     1      -2.912  -6.037   4.432  0.00  0.00    +0.044 C 
ATOM     23  C   UNL     1      -2.121  -5.541   3.249  0.00  0.00    -0.050 A 
ATOM     24  C   UNL     1      -2.395  -6.027   1.984  0.00  0.00    +0.005 A 
ATOM     25  C   UNL     1      -1.672  -5.574   0.898  0.00  0.00    +0.028 A 
ATOM     26  C   UNL     1      -0.669  -4.630   1.078  0.00  0.00    +0.070 A 
ATOM     27  C   UNL     1      -0.396  -4.145   2.350  0.00  0.00    -0.025 A 
ATOM     28  C   UNL     1      -1.127  -4.597   3.431  0.00  0.00    +0.008 A 
ATOM     29  C   UNL     1       0.691  -3.121   2.550  0.00  0.00    +0.046 C 
ENDBRANCH  21  26
ENDBRANCH   1  21
BRANCH   7  30
ATOM     30  C   UNL     1       0.289 -10.670  -3.154  0.00  0.00    +0.129 C 
BRANCH  30  31
ATOM     31  S   UNL     1       1.918 -11.230  -2.585  0.00  0.00    -0.091 S 
BRANCH  31  32
ATOM     32  C   UNL     1       1.765 -12.984  -2.515  0.00  0.00    +0.159 A 
ATOM     33  N   UNL     1       0.731 -13.764  -2.805  0.00  0.00    -0.135 NA
ATOM     34  N   UNL     1       0.795 -15.019  -2.697  0.00  0.00    -0.146 NA
ATOM     35  C   UNL     1       1.887 -15.634  -2.292  0.00  0.00    +0.100 A 
ATOM     36  S   UNL     1       2.964 -14.226  -2.039  0.00  0.00    -0.044 S 
ATOM     37  C   UNL     1       2.155 -17.105  -2.101  0.00  0.00    +0.075 C 
ENDBRANCH  31  32
ENDBRANCH  30  31
ENDBRANCH   7  30
TORSDOF 7
