REMARK  Name = ZINC66060905
REMARK  14 active torsions:
REMARK  status: ('A' for Active; 'I' for Inactive)
REMARK    1  A    between atoms: C_1  and  C_2
REMARK    2  A    between atoms: C_2  and  C_3
REMARK    3  A    between atoms: C_3  and  C_4
REMARK    4  A    between atoms: C_4  and  C_5
REMARK    5  A    between atoms: C_5  and  C_6
REMARK    6  A    between atoms: C_6  and  O_7
REMARK    7  A    between atoms: O_7  and  C_8
REMARK    8  A    between atoms: C_12  and  N_14
REMARK    9  A    between atoms: N_14  and  C_15
REMARK   10  A    between atoms: C_15  and  C_16
REMARK   11  A    between atoms: N_18  and  C_19
REMARK   12  A    between atoms: C_24  and  O_25
REMARK   13  A    between atoms: O_25  and  C_26
REMARK   14  A    between atoms: C_26  and  C_27
REMARK                            x       y       z     vdW  Elec       q    Type
REMARK                         _______ _______ _______ _____ _____    ______ ____
ROOT
ATOM      1  N   UNL     1       3.721  -8.336   6.141  0.00  0.00    -0.335 N 
ATOM      2  H   UNL     1       4.105  -7.747   6.809  0.00  0.00    +0.147 HD
ENDROOT
BRANCH   1   7
ATOM      3  C   UNL     1       2.277  -5.896   3.798  0.00  0.00    +0.122 A 
ATOM      4  C   UNL     1       1.729  -6.744   2.845  0.00  0.00    +0.046 A 
ATOM      5  C   UNL     1       1.843  -8.114   2.989  0.00  0.00    +0.005 A 
ATOM      6  C   UNL     1       2.503  -8.644   4.080  0.00  0.00    +0.023 A 
ATOM      7  C   UNL     1       3.054  -7.800   5.037  0.00  0.00    +0.031 A 
ATOM      8  C   UNL     1       2.945  -6.424   4.892  0.00  0.00    +0.068 A 
BRANCH   3   9
ATOM      9  O   UNL     1       2.164  -4.550   3.655  0.00  0.00    -0.492 OA
BRANCH   9  10
ATOM     10  C   UNL     1       1.462  -4.076   2.504  0.00  0.00    +0.229 C 
BRANCH  10  11
ATOM     11  C   UNL     1       1.438  -2.546   2.516  0.00  0.00    +0.041 C 
BRANCH  11  12
ATOM     12  C   UNL     1       0.687  -2.039   1.283  0.00  0.00    +0.003 C 
BRANCH  12  13
ATOM     13  C   UNL     1       0.662  -0.509   1.294  0.00  0.00    -0.000 C 
BRANCH  13  15
ATOM     14  C   UNL     1      -0.113   1.528   0.073  0.00  0.00    +0.004 C 
ATOM     15  C   UNL     1      -0.089  -0.002   0.061  0.00  0.00    -0.003 C 
ENDBRANCH  13  15
ENDBRANCH  12  13
ENDBRANCH  11  12
ENDBRANCH  10  11
ENDBRANCH   9  10
ENDBRANCH   3   9
ENDBRANCH   1   7
BRANCH   1  16
ATOM     16  C   UNL     1       3.841  -9.789   6.290  0.00  0.00    +0.198 C 
BRANCH  16  17
ATOM     17  C   UNL     1       4.599 -10.103   7.554  0.00  0.00    +0.234 C 
ATOM     18  O   UNL     1       5.000  -9.202   8.261  0.00  0.00    -0.274 OA
ATOM     19  N   UNL     1       4.831 -11.384   7.900  0.00  0.00    -0.281 N 
ATOM     20  H   UNL     1       4.456 -12.105   7.370  0.00  0.00    +0.155 HD
BRANCH  19  21
ATOM     21  C   UNL     1       5.615 -11.676   9.024  0.00  0.00    +0.076 A 
ATOM     22  C   UNL     1       5.567 -10.851  10.138  0.00  0.00    +0.027 A 
ATOM     23  C   UNL     1       6.341 -11.141  11.246  0.00  0.00    +0.002 A 
ATOM     24  C   UNL     1       7.164 -12.252  11.247  0.00  0.00    +0.004 A 
ATOM     25  C   UNL     1       7.217 -13.079  10.141  0.00  0.00    +0.047 A 
ATOM     26  C   UNL     1       6.440 -12.798   9.028  0.00  0.00    +0.142 A 
BRANCH  26  27
ATOM     27  O   UNL     1       6.487 -13.614   7.941  0.00  0.00    -0.486 OA
BRANCH  27  28
ATOM     28  C   UNL     1       7.356 -14.746   8.017  0.00  0.00    +0.256 C 
BRANCH  28  29
ATOM     29  C   UNL     1       7.276 -15.527   6.730  0.00  0.00    +0.006 C 
ATOM     30  C   UNL     1       8.372 -15.954   6.154  0.00  0.00    +0.007 C 
ENDBRANCH  28  29
ENDBRANCH  27  28
ENDBRANCH  26  27
ENDBRANCH  19  21
ENDBRANCH  16  17
ENDBRANCH   1  16
TORSDOF 13
