REMARK  Name = ZINC09714332
REMARK  8 active torsions:
REMARK  status: ('A' for Active; 'I' for Inactive)
REMARK    1  A    between atoms: C_1  and  O_2
REMARK    2  A    between atoms: O_2  and  C_3
REMARK    3  A    between atoms: C_6  and  C_9
REMARK    4  A    between atoms: C_12  and  C_32
REMARK    5  A    between atoms: C_15  and  C_17
REMARK    6  A    between atoms: C_17  and  N_69
REMARK    7  A    between atoms: C_20  and  C_23
REMARK    8  A    between atoms: N_25  and  C_26
REMARK                            x       y       z     vdW  Elec       q    Type
REMARK                         _______ _______ _______ _____ _____    ______ ____
ROOT
ATOM      1  C   UNL     1       2.346   2.504  -7.567  0.00  0.00    +0.137 C 
ATOM      2  C   UNL     1       3.446   2.006  -8.526  0.00  0.00    +0.087 C 
ATOM      3  C   UNL     1       4.506   1.445  -7.606  0.00  0.00    +0.069 C 
ATOM      4  N   UNL     1       4.129   1.582  -6.381  0.00  0.00    -0.181 NA
ATOM      5  N   UNL     1       2.884   2.190  -6.234  0.00  0.00    -0.187 N 
ATOM      6  C   UNL     1       2.270   2.445  -5.061  0.00  0.00    +0.219 C 
ATOM      7  O   UNL     1       1.182   2.982  -5.050  0.00  0.00    -0.276 OA
ENDROOT
BRANCH   1  11
ATOM      8  C   UNL     1       1.772   6.716  -8.004  0.00  0.00    +0.120 A 
ATOM      9  C   UNL     1       0.850   5.830  -8.541  0.00  0.00    +0.046 A 
ATOM     10  C   UNL     1       1.038   4.469  -8.399  0.00  0.00    +0.009 A 
ATOM     11  C   UNL     1       2.144   3.990  -7.721  0.00  0.00    -0.024 A 
ATOM     12  C   UNL     1       3.062   4.871  -7.180  0.00  0.00    +0.009 A 
ATOM     13  C   UNL     1       2.881   6.233  -7.325  0.00  0.00    +0.046 A 
BRANCH   8  15
ATOM     14  C   UNL     1       2.580   8.909  -7.565  0.00  0.00    +0.277 C 
ATOM     15  O   UNL     1       1.590   8.056  -8.143  0.00  0.00    -0.495 OA
ENDBRANCH   8  15
ENDBRANCH   1  11
BRANCH   3  16
ATOM     16  C   UNL     1       5.776   0.836  -8.042  0.00  0.00    -0.002 A 
ATOM     17  C   UNL     1       6.075   0.736  -9.402  0.00  0.00    +0.010 A 
ATOM     18  C   UNL     1       7.268   0.170  -9.803  0.00  0.00    +0.001 A 
ATOM     19  C   UNL     1       8.161  -0.310  -8.861  0.00  0.00    +0.000 A 
ATOM     20  C   UNL     1       7.868  -0.220  -7.512  0.00  0.00    +0.001 A 
ATOM     21  C   UNL     1       6.682   0.350  -7.096  0.00  0.00    +0.010 A 
ENDBRANCH   3  16
BRANCH   6  22
ATOM     22  C   UNL     1       2.936   2.063  -3.764  0.00  0.00    +0.021 C 
BRANCH  22  28
ATOM     23  C   UNL     1       2.150   4.038  -2.605  0.00  0.00    -0.077 C 
ATOM     24  C   UNL     1       1.198   4.532  -1.513  0.00  0.00    -0.006 C 
ATOM     25  C   UNL     1       1.645   3.970  -0.161  0.00  0.00    +0.072 C 
ATOM     26  C   UNL     1       1.672   2.441  -0.237  0.00  0.00    -0.006 C 
ATOM     27  C   UNL     1       2.610   2.007  -1.365  0.00  0.00    -0.077 C 
ATOM     28  N   UNL     1       2.112   2.561  -2.643  0.00  0.00    +0.385 N 
ATOM     29  H   UNL     1       1.141   2.256  -2.781  0.00  0.00    -0.081 HD
BRANCH  25  30
ATOM     30  C   UNL     1       0.678   4.405   0.910  0.00  0.00    +0.220 C 
ATOM     31  O   UNL     1      -0.274   5.099   0.621  0.00  0.00    -0.275 OA
ATOM     32  N   UNL     1       0.871   4.023   2.188  0.00  0.00    -0.285 N 
ATOM     33  H   UNL     1       1.671   3.533   2.432  0.00  0.00    +0.155 HD
BRANCH  32  34
ATOM     34  C   UNL     1      -0.084   4.335   3.163  0.00  0.00    +0.033 A 
ATOM     35  C   UNL     1       0.314   4.589   4.469  0.00  0.00    +0.023 A 
ATOM     36  C   UNL     1      -0.630   4.900   5.428  0.00  0.00    +0.002 A 
ATOM     37  C   UNL     1      -1.971   4.949   5.091  0.00  0.00    +0.000 A 
ATOM     38  C   UNL     1      -2.370   4.691   3.792  0.00  0.00    +0.002 A 
ATOM     39  C   UNL     1      -1.430   4.384   2.827  0.00  0.00    +0.023 A 
ENDBRANCH  32  34
ENDBRANCH  25  30
ENDBRANCH  22  28
ENDBRANCH   6  22
TORSDOF 7
