REMARK  Name = ZINC14475872
REMARK  9 active torsions:
REMARK  status: ('A' for Active; 'I' for Inactive)
REMARK    1  A    between atoms: C_1  and  C_2
REMARK    2  A    between atoms: C_2  and  C_3
REMARK    3  A    between atoms: C_2  and  C_4
REMARK    4  A    between atoms: C_2  and  N_5
REMARK    5  A    between atoms: N_5  and  S_6
REMARK    6  A    between atoms: S_6  and  C_9
REMARK    7  A    between atoms: C_22  and  C_25
REMARK    8  A    between atoms: C_27  and  N_32
REMARK    9  A    between atoms: C_30  and  O_31
REMARK                            x       y       z     vdW  Elec       q    Type
REMARK                         _______ _______ _______ _____ _____    ______ ____
ROOT
ATOM      1  C   UNL     1       2.739  -1.748   0.088  0.00  0.00    +0.106 A 
ATOM      2  C   UNL     1       3.043  -1.037   1.234  0.00  0.00    +0.030 A 
ATOM      3  C   UNL     1       3.550  -1.696   2.335  0.00  0.00    +0.025 A 
ATOM      4  C   UNL     1       3.754  -3.072   2.294  0.00  0.00    +0.031 A 
ATOM      5  C   UNL     1       3.440  -3.785   1.151  0.00  0.00    -0.018 A 
ATOM      6  C   UNL     1       2.931  -3.114   0.048  0.00  0.00    +0.034 A 
ATOM      7  C   UNL     1       3.606  -5.276   1.064  0.00  0.00    +0.049 C 
ATOM      8  C   UNL     1       2.296  -5.862   0.561  0.00  0.00    -0.023 C 
ATOM      9  C   UNL     1       1.612  -6.377   1.549  0.00  0.00    -0.030 C 
ATOM     10  C   UNL     1       2.358  -6.229   2.859  0.00  0.00    +0.033 C 
ATOM     11  C   UNL     1       3.828  -5.936   2.422  0.00  0.00    +0.029 C 
ATOM     12  C   UNL     1       4.590  -5.128   3.429  0.00  0.00    +0.108 C 
ATOM     13  N   UNL     1       4.281  -3.711   3.411  0.00  0.00    -0.336 N 
ATOM     14  H   UNL     1       4.471  -3.183   4.202  0.00  0.00    +0.147 HD
ENDROOT
BRANCH  12  15
ATOM     15  C   UNL     1       4.259  -5.646   4.805  0.00  0.00    +0.017 A 
ATOM     16  C   UNL     1       3.258  -5.049   5.547  0.00  0.00    +0.041 A 
ATOM     17  C   UNL     1       2.954  -5.524   6.809  0.00  0.00    +0.127 A 
ATOM     18  C   UNL     1       3.650  -6.598   7.332  0.00  0.00    +0.036 A 
ATOM     19  C   UNL     1       4.651  -7.199   6.595  0.00  0.00    +0.048 A 
ATOM     20  C   UNL     1       4.955  -6.728   5.326  0.00  0.00    +0.122 A 
BRANCH  17  21
ATOM     21  N   UNL     1       1.882  -4.881   7.602  0.00  0.00    +0.056 N 
ATOM     22  O   UNL     1       1.273  -3.942   7.145  0.00  0.00    -0.126 OA
ATOM     23  O   UNL     1       1.615  -5.296   8.706  0.00  0.00    -0.126 OA
ENDBRANCH  17  21
BRANCH  20  24
ATOM     24  O   UNL     1       5.936  -7.321   4.596  0.00  0.00    -0.506 OA
ATOM     25  H   UNL     1       6.814  -6.941   4.736  0.00  0.00    +0.292 HD
ENDBRANCH  20  24
ENDBRANCH  12  15
BRANCH   1  26
ATOM     26  S   UNL     1       2.098  -0.909  -1.323  0.00  0.00    +0.059 S 
ATOM     27  O   UNL     1       2.710  -1.501  -2.461  0.00  0.00    -0.153 OA
ATOM     28  O   UNL     1       2.191   0.482  -1.045  0.00  0.00    -0.153 OA
BRANCH  26  29
ATOM     29  N   UNL     1       0.484  -1.267  -1.414  0.00  0.00    -0.185 NA
ATOM     30  H   UNL     1       0.150  -1.823  -2.136  0.00  0.00    +0.149 HD
BRANCH  29  32
ATOM     31  C   UNL     1      -0.422   0.786  -0.441  0.00  0.00    +0.029 C 
ATOM     32  C   UNL     1      -0.441  -0.744  -0.405  0.00  0.00    +0.032 C 
ATOM     33  C   UNL     1      -0.009  -1.227   0.981  0.00  0.00    +0.029 C 
ATOM     34  C   UNL     1      -1.856  -1.244  -0.702  0.00  0.00    +0.029 C 
ENDBRANCH  29  32
ENDBRANCH  26  29
ENDBRANCH   1  26
TORSDOF 6
