REMARK  Name = ZINC17014406
REMARK  9 active torsions:
REMARK  status: ('A' for Active; 'I' for Inactive)
REMARK    1  A    between atoms: C_1  and  C_2
REMARK    2  A    between atoms: C_2  and  N_3
REMARK    3  A    between atoms: N_23  and  C_26
REMARK    4  A    between atoms: C_26  and  C_27
REMARK    5  A    between atoms: C_27  and  C_28
REMARK    6  A    between atoms: C_31  and  O_36
REMARK    7  A    between atoms: C_32  and  O_34
REMARK    8  A    between atoms: O_34  and  C_35
REMARK    9  A    between atoms: O_36  and  C_37
REMARK                            x       y       z     vdW  Elec       q    Type
REMARK                         _______ _______ _______ _____ _____    ______ ____
ROOT
ATOM      1  N   UNL     1       3.343  10.545  -1.575  0.00  0.00    +0.382 N 
ATOM      2  C   UNL     1       2.734  11.113  -0.365  0.00  0.00    -0.060 C 
ATOM      3  C   UNL     1       1.488  11.917  -0.748  0.00  0.00    +0.087 C 
ATOM      4  N   UNL     1       0.547  11.039  -1.455  0.00  0.00    -0.329 N 
ATOM      5  C   UNL     1      -0.672  11.669  -1.690  0.00  0.00    +0.034 A 
ATOM      6  C   UNL     1      -1.127  12.584  -0.740  0.00  0.00    +0.023 A 
ATOM      7  C   UNL     1      -2.335  13.225  -0.909  0.00  0.00    +0.003 A 
ATOM      8  C   UNL     1      -3.105  12.962  -2.028  0.00  0.00    +0.020 A 
ATOM      9  C   UNL     1      -2.659  12.060  -2.974  0.00  0.00    +0.046 A 
ATOM     10  C   UNL     1      -1.442  11.414  -2.812  0.00  0.00    -0.007 A 
ATOM     11  C   UNL     1      -1.002  10.447  -3.882  0.00  0.00    +0.066 C 
ATOM     12  C   UNL     1       0.135   9.568  -3.353  0.00  0.00    +0.146 C 
ATOM     13  C   UNL     1       1.154  10.480  -2.663  0.00  0.00    +0.081 C 
ATOM     14  C   UNL     1       2.396   9.670  -2.282  0.00  0.00    -0.055 C 
ATOM     15  C   UNL     1       0.794   8.857  -4.501  0.00  0.00    +0.257 C 
ATOM     16  O   UNL     1       1.292   9.511  -5.391  0.00  0.00    -0.272 OA
ATOM     17  N   UNL     1       0.848   7.519  -4.568  0.00  0.00    -0.127 NA
ATOM     18  C   UNL     1       0.316   6.739  -3.615  0.00  0.00    +0.335 C 
ATOM     19  O   UNL     1       0.391   5.531  -3.728  0.00  0.00    -0.250 OA
ATOM     20  N   UNL     1      -0.296   7.258  -2.540  0.00  0.00    -0.223 N 
ATOM     21  C   UNL     1      -0.416   8.582  -2.363  0.00  0.00    +0.240 C 
ATOM     22  O   UNL     1      -0.982   8.994  -1.374  0.00  0.00    -0.274 OA
ATOM     23 CL   UNL     1      -3.627  11.734  -4.378  0.00  0.00    -0.083 Cl
ATOM     24  H   UNL     1       3.599  11.378  -2.246  0.00  0.00    -0.082 HD
ENDROOT
BRANCH   1  26
ATOM     25  C   UNL     1       4.255   8.599  -0.400  0.00  0.00    -0.017 C 
ATOM     26  C   UNL     1       4.583   9.826  -1.253  0.00  0.00    -0.082 C 
ENDBRANCH   1  26
BRANCH  20  27
ATOM     27  C   UNL     1      -0.855   6.352  -1.533  0.00  0.00    +0.122 C 
BRANCH  27  28
ATOM     28  C   UNL     1       0.207   6.050  -0.474  0.00  0.00    +0.055 C 
BRANCH  28  29
ATOM     29  C   UNL     1      -0.368   5.119   0.562  0.00  0.00    -0.042 A 
ATOM     30  C   UNL     1      -1.003   5.634   1.677  0.00  0.00    +0.007 A 
ATOM     31  C   UNL     1      -1.532   4.784   2.629  0.00  0.00    +0.049 A 
ATOM     32  C   UNL     1      -1.432   3.411   2.465  0.00  0.00    +0.161 A 
ATOM     33  C   UNL     1      -0.787   2.893   1.346  0.00  0.00    +0.162 A 
ATOM     34  C   UNL     1      -0.259   3.751   0.395  0.00  0.00    +0.053 A 
BRANCH  33  35
ATOM     35  O   UNL     1      -0.682   1.547   1.184  0.00  0.00    -0.491 OA
ATOM     36  C   UNL     1      -0.013   1.086   0.008  0.00  0.00    +0.277 C 
ENDBRANCH  33  35
BRANCH  32  37
ATOM     37  O   UNL     1      -1.957   2.573   3.399  0.00  0.00    -0.491 OA
ATOM     38  C   UNL     1      -2.603   3.176   4.521  0.00  0.00    +0.277 C 
ENDBRANCH  32  37
ENDBRANCH  28  29
ENDBRANCH  27  28
ENDBRANCH  20  27
TORSDOF 6
