REMARK  Name = ZINC05001900
REMARK  8 active torsions:
REMARK  status: ('A' for Active; 'I' for Inactive)
REMARK    1  A    between atoms: C_1  and  C_2
REMARK    2  A    between atoms: C_2  and  C_4
REMARK    3  A    between atoms: C_2  and  N_17
REMARK    4  A    between atoms: C_8  and  C_10
REMARK    5  A    between atoms: N_17  and  S_18
REMARK    6  A    between atoms: S_18  and  C_21
REMARK    7  A    between atoms: C_24  and  C_27
REMARK    8  A    between atoms: C_27  and  C_29
REMARK                            x       y       z     vdW  Elec       q    Type
REMARK                         _______ _______ _______ _____ _____    ______ ____
ROOT
ATOM      1  C   UNL     1       2.068  -1.326  -3.245  0.00  0.00    +0.034 C 
ATOM      2  C   UNL     1       2.349  -2.618  -2.475  0.00  0.00    +0.140 C 
ENDROOT
BRANCH   2   3
ATOM      3  C   UNL     1       2.560  -3.748  -3.449  0.00  0.00    +0.144 A 
ATOM      4  N   UNL     1       3.720  -4.061  -4.054  0.00  0.00    -0.261 N 
ATOM      5  H   UNL     1       4.571  -3.607  -3.947  0.00  0.00    +0.190 HD
ATOM      6  N   UNL     1       3.457  -5.173  -4.870  0.00  0.00    -0.152 NA
ATOM      7  C   UNL     1       2.184  -5.463  -4.716  0.00  0.00    +0.181 A 
ATOM      8  N   UNL     1       1.648  -4.595  -3.847  0.00  0.00    -0.210 NA
BRANCH   7   9
ATOM      9  C   UNL     1       1.461  -6.571  -5.389  0.00  0.00    +0.021 A 
ATOM     10  C   UNL     1       0.107  -6.778  -5.135  0.00  0.00    +0.013 A 
ATOM     11  C   UNL     1      -0.562  -7.807  -5.767  0.00  0.00    +0.021 A 
ATOM     12  C   UNL     1       0.113  -8.639  -6.643  0.00  0.00    +0.041 A 
ATOM     13  C   UNL     1       1.460  -8.441  -6.894  0.00  0.00    +0.021 A 
ATOM     14  C   UNL     1       2.136  -7.411  -6.271  0.00  0.00    +0.013 A 
ATOM     15 CL   UNL     1      -0.732  -9.935  -7.429  0.00  0.00    -0.084 Cl
ENDBRANCH   7   9
ENDBRANCH   2   3
BRANCH   2  16
ATOM     16  N   UNL     1       1.210  -2.926  -1.607  0.00  0.00    -0.180 NA
ATOM     17  H   UNL     1       0.449  -3.413  -1.961  0.00  0.00    +0.149 HD
BRANCH  16  18
ATOM     18  S   UNL     1       1.221  -2.445  -0.023  0.00  0.00    +0.059 S 
ATOM     19  O   UNL     1       2.475  -2.845   0.514  0.00  0.00    -0.153 OA
ATOM     20  O   UNL     1      -0.016  -2.864   0.538  0.00  0.00    -0.153 OA
BRANCH  18  21
ATOM     21  C   UNL     1       1.208  -0.683  -0.013  0.00  0.00    +0.105 A 
ATOM     22  C   UNL     1       0.002  -0.004   0.002  0.00  0.00    +0.029 A 
ATOM     23  C   UNL     1      -0.017   1.375   0.010  0.00  0.00    +0.013 A 
ATOM     24  C   UNL     1       1.187   2.087   0.002  0.00  0.00    +0.017 A 
ATOM     25  C   UNL     1       2.401   1.393  -0.013  0.00  0.00    +0.013 A 
ATOM     26  C   UNL     1       2.403   0.014  -0.020  0.00  0.00    +0.029 A 
BRANCH  24  27
ATOM     27  C   UNL     1       1.176   3.558   0.009  0.00  0.00    +0.160 C 
ATOM     28  O   UNL     1       0.121   4.157   0.022  0.00  0.00    -0.292 OA
ATOM     29  C   UNL     1       2.475   4.322   0.001  0.00  0.00    +0.091 C 
ENDBRANCH  24  27
ENDBRANCH  18  21
ENDBRANCH  16  18
ENDBRANCH   2  16
TORSDOF 6
