REMARK  Name = ZINC23135838
REMARK  3 active torsions:
REMARK  status: ('A' for Active; 'I' for Inactive)
REMARK    1  A    between atoms: C_1  and  N_2
REMARK    2  A    between atoms: C_13  and  N_17
REMARK    3  A    between atoms: C_18  and  C_20
REMARK                            x       y       z     vdW  Elec       q    Type
REMARK                         _______ _______ _______ _____ _____    ______ ____
ROOT
ATOM      1  C   UNL     1      -0.363   0.901   2.483  0.00  0.00    -0.096 C 
ATOM      2  N   UNL     1      -0.958   1.432   1.249  0.00  0.00    +0.380 N 
ATOM      3  C   UNL     1      -0.132   1.099   0.080  0.00  0.00    -0.060 C 
ATOM      4  C   UNL     1      -0.824   1.599  -1.190  0.00  0.00    +0.088 C 
ATOM      5  N   UNL     1      -1.030   3.051  -1.092  0.00  0.00    -0.313 N 
ATOM      6  C   UNL     1      -1.856   3.385   0.077  0.00  0.00    +0.088 C 
ATOM      7  C   UNL     1      -1.165   2.884   1.347  0.00  0.00    -0.060 C 
ATOM      8  C   UNL     1      -1.589   3.551  -2.252  0.00  0.00    +0.162 A 
ATOM      9  N   UNL     1      -1.927   2.909  -3.346  0.00  0.00    -0.225 NA
ATOM     10  C   UNL     1      -2.470   3.533  -4.416  0.00  0.00    +0.080 A 
ATOM     11  C   UNL     1      -2.875   2.963  -5.645  0.00  0.00    +0.031 A 
ATOM     12  C   UNL     1      -3.408   3.733  -6.630  0.00  0.00    +0.025 A 
ATOM     13  C   UNL     1      -3.576   5.107  -6.472  0.00  0.00    +0.035 A 
ATOM     14  C   UNL     1      -3.190   5.703  -5.279  0.00  0.00    +0.040 A 
ATOM     15  C   UNL     1      -2.651   4.928  -4.282  0.00  0.00    +0.043 A 
ATOM     16  S   UNL     1      -2.042   5.235  -2.642  0.00  0.00    -0.052 S 
ATOM     17  H   UNL     1      -1.941   0.957   1.118  0.00  0.00    -0.082 HD
ENDROOT
BRANCH  13  18
ATOM     18  N   UNL     1      -4.129   5.877  -7.504  0.00  0.00    -0.281 N 
ATOM     19  C   UNL     1      -3.725   7.150  -7.684  0.00  0.00    +0.250 C 
ATOM     20  O   UNL     1      -2.815   7.601  -7.014  0.00  0.00    -0.270 OA
ATOM     21  H   UNL     1      -4.892   5.443  -8.166  0.00  0.00    +0.155 HD
BRANCH  19  22
ATOM     22  C   UNL     1      -4.386   7.995  -8.689  0.00  0.00    +0.064 A 
ATOM     23  C   UNL     1      -5.465   7.493  -9.505  0.00  0.00    +0.042 A 
ATOM     24  C   UNL     1      -6.009   8.347 -10.395  0.00  0.00    +0.080 A 
ATOM     25  S   UNL     1      -5.064   9.838 -10.155  0.00  0.00    -0.064 S 
ATOM     26  C   UNL     1      -3.997   9.304  -8.900  0.00  0.00    +0.091 A 
ATOM     27 CL   UNL     1      -2.743  10.198  -8.100  0.00  0.00    -0.075 Cl
ATOM     28 CL   UNL     1      -7.309   8.061 -11.508  0.00  0.00    -0.076 Cl
ENDBRANCH  19  22
ENDBRANCH  13  18
TORSDOF 2
