REMARK  Name = ZINC03654714
REMARK  9 active torsions:
REMARK  status: ('A' for Active; 'I' for Inactive)
REMARK    1  A    between atoms: C_1  and  O_2
REMARK    2  A    between atoms: O_2  and  C_3
REMARK    3  A    between atoms: C_6  and  N_11
REMARK    4  A    between atoms: C_8  and  O_9
REMARK    5  A    between atoms: O_9  and  C_10
REMARK    6  A    between atoms: N_11  and  C_12
REMARK    7  A    between atoms: C_15  and  N_26
REMARK    8  A    between atoms: C_27  and  C_29
REMARK    9  A    between atoms: C_30  and  C_31
REMARK                            x       y       z     vdW  Elec       q    Type
REMARK                         _______ _______ _______ _____ _____    ______ ____
ROOT
ATOM      1  C   UNL     1      -9.509  -1.224  -0.122  0.00  0.00    +0.045 A 
ATOM      2  C   UNL     1      -9.166  -1.706   1.161  0.00  0.00    +0.021 A 
ATOM      3  C   UNL     1      -9.085  -0.851   2.268  0.00  0.00    +0.035 A 
ATOM      4  C   UNL     1      -8.742  -1.367   3.500  0.00  0.00    +0.034 A 
ATOM      5  C   UNL     1      -8.486  -2.734   3.650  0.00  0.00    +0.025 A 
ATOM      6  C   UNL     1      -8.563  -3.582   2.590  0.00  0.00    +0.028 A 
ATOM      7  C   UNL     1      -8.904  -3.088   1.318  0.00  0.00    +0.049 A 
ATOM      8  N   UNL     1      -8.984  -3.900   0.262  0.00  0.00    -0.358 N 
ATOM      9  C   UNL     1      -9.298  -3.468  -0.947  0.00  0.00    +0.021 A 
ATOM     10  C   UNL     1      -9.571  -2.130  -1.176  0.00  0.00    -0.006 A 
ATOM     11  C   UNL     1      -9.943  -1.595  -2.534  0.00  0.00    +0.039 C 
ATOM     12  C   UNL     1      -9.556  -2.589  -3.627  0.00  0.00    +0.005 C 
ATOM     13  C   UNL     1     -10.121  -3.963  -3.251  0.00  0.00    +0.006 C 
ATOM     14  C   UNL     1      -9.340  -4.495  -2.051  0.00  0.00    +0.053 C 
ATOM     15  H   UNL     1      -8.784  -4.976   0.379  0.00  0.00    +0.166 HD
ENDROOT
BRANCH   4  16
ATOM     16  N   UNL     1      -8.655  -0.518   4.608  0.00  0.00    -0.282 N 
ATOM     17  C   UNL     1      -7.723  -0.741   5.556  0.00  0.00    +0.241 C 
ATOM     18  O   UNL     1      -7.012  -1.727   5.490  0.00  0.00    -0.270 OA
ATOM     19  H   UNL     1      -9.347   0.332   4.705  0.00  0.00    +0.155 HD
BRANCH  17  20
ATOM     20  C   UNL     1      -7.573   0.170   6.628  0.00  0.00    +0.071 C 
ATOM     21  C   UNL     1      -6.635  -0.054   7.582  0.00  0.00    +0.051 C 
BRANCH  21  22
ATOM     22  C   UNL     1      -6.484   0.857   8.655  0.00  0.00    +0.128 A 
ATOM     23  C   UNL     1      -5.577   0.753   9.689  0.00  0.00    +0.049 A 
ATOM     24  C   UNL     1      -5.782   1.870  10.514  0.00  0.00    +0.042 A 
ATOM     25  C   UNL     1      -6.782   2.594   9.965  0.00  0.00    +0.195 A 
ATOM     26  O   UNL     1      -7.202   1.984   8.848  0.00  0.00    -0.464 OA
ENDBRANCH  21  22
ENDBRANCH  17  20
ENDBRANCH   4  16
BRANCH   1  27
ATOM     27  N   UNL     1      -9.779   0.121  -0.326  0.00  0.00    -0.314 N 
ATOM     28  H   UNL     1     -10.810   0.495  -0.240  0.00  0.00    +0.152 HD
BRANCH  27  32
ATOM     29  C   UNL     1      -6.677   2.746  -1.268  0.00  0.00    +0.162 A 
ATOM     30  C   UNL     1      -6.431   1.386  -1.176  0.00  0.00    +0.051 A 
ATOM     31  C   UNL     1      -7.457   0.516  -0.859  0.00  0.00    +0.027 A 
ATOM     32  C   UNL     1      -8.740   1.004  -0.642  0.00  0.00    +0.035 A 
ATOM     33  C   UNL     1      -8.989   2.366  -0.734  0.00  0.00    +0.072 A 
ATOM     34  C   UNL     1      -7.959   3.238  -1.046  0.00  0.00    +0.163 A 
BRANCH  29  36
ATOM     35  C   UNL     1      -4.373   3.028  -1.790  0.00  0.00    +0.277 C 
ATOM     36  O   UNL     1      -5.664   3.602  -1.575  0.00  0.00    -0.491 OA
ENDBRANCH  29  36
BRANCH  34  37
ATOM     37  O   UNL     1      -8.201   4.573  -1.136  0.00  0.00    -0.491 OA
ATOM     38  C   UNL     1      -9.542   5.007  -0.896  0.00  0.00    +0.277 C 
ENDBRANCH  34  37
ENDBRANCH  27  32
ENDBRANCH   1  27
TORSDOF 7
