REMARK  Name = ZINC17014413
REMARK  2 active torsions:
REMARK  status: ('A' for Active; 'I' for Inactive)
REMARK    1  A    between atoms: C_6  and  C_7
REMARK    2  A    between atoms: C_10  and  C_30
REMARK                            x       y       z     vdW  Elec       q    Type
REMARK                         _______ _______ _______ _____ _____    ______ ____
ROOT
ATOM      1  C   UNL     1      -1.293  -0.775   0.011  0.00  0.00    +0.147 C 
ATOM      2  C   UNL     1      -1.374  -1.667  -1.234  0.00  0.00    +0.087 C 
ATOM      3  C   UNL     1      -2.406  -2.745  -1.060  0.00  0.00    +0.055 C 
ATOM      4  N   UNL     1      -2.655  -3.301   0.095  0.00  0.00    -0.215 NA
ATOM      5  C   UNL     1      -2.007  -2.837   1.197  0.00  0.00    +0.251 A 
ATOM      6  N   UNL     1      -1.346  -1.638   1.190  0.00  0.00    -0.220 N 
ATOM      7  N   UNL     1      -0.801  -1.474   2.459  0.00  0.00    -0.131 NA
ATOM      8  C   UNL     1      -1.156  -2.528   3.164  0.00  0.00    +0.252 A 
ATOM      9  N   UNL     1      -1.893  -3.344   2.400  0.00  0.00    -0.175 NA
ATOM     10  N   UNL     1      -0.814  -2.761   4.503  0.00  0.00    -0.176 N 
ATOM     11  C   UNL     1      -0.065  -1.900   5.240  0.00  0.00    +0.233 C 
ATOM     12  O   UNL     1       0.229  -0.760   4.952  0.00  0.00    -0.274 OA
ATOM     13  C   UNL     1       0.324  -2.643   6.482  0.00  0.00    +0.092 C 
ATOM     14  C   UNL     1       0.434  -1.867   7.778  0.00  0.00    +0.040 C 
ATOM     15  C   UNL     1       0.486  -2.884   8.898  0.00  0.00    -0.030 C 
ATOM     16  C   UNL     1       0.111  -4.122   8.781  0.00  0.00    -0.030 C 
ATOM     17  C   UNL     1      -0.459  -4.727   7.515  0.00  0.00    +0.040 C 
ATOM     18  C   UNL     1      -0.906  -3.591   6.632  0.00  0.00    +0.092 C 
ATOM     19  C   UNL     1      -1.205  -3.865   5.190  0.00  0.00    +0.233 C 
ATOM     20  O   UNL     1      -1.696  -4.873   4.729  0.00  0.00    -0.274 OA
ENDROOT
BRANCH   1  26
ATOM     21  C   UNL     1      -0.017   1.378   0.010  0.00  0.00    +0.007 A 
ATOM     22  C   UNL     1       1.171   2.086   0.002  0.00  0.00    +0.020 A 
ATOM     23  C   UNL     1       2.378   1.410  -0.013  0.00  0.00    +0.041 A 
ATOM     24  C   UNL     1       2.396   0.027  -0.021  0.00  0.00    +0.020 A 
ATOM     25  C   UNL     1       1.208  -0.679  -0.013  0.00  0.00    +0.007 A 
ATOM     26  C   UNL     1       0.002  -0.004   0.002  0.00  0.00    -0.023 A 
ATOM     27 CL   UNL     1       3.870   2.298  -0.023  0.00  0.00    -0.084 Cl
ENDBRANCH   1  26
BRANCH   3  28
ATOM     28  C   UNL     1      -3.166  -3.192  -2.238  0.00  0.00    -0.003 A 
ATOM     29  C   UNL     1      -2.919  -2.621  -3.491  0.00  0.00    +0.011 A 
ATOM     30  C   UNL     1      -3.635  -3.045  -4.590  0.00  0.00    +0.020 A 
ATOM     31  C   UNL     1      -4.597  -4.033  -4.456  0.00  0.00    +0.041 A 
ATOM     32  C   UNL     1      -4.846  -4.603  -3.218  0.00  0.00    +0.020 A 
ATOM     33  C   UNL     1      -4.134  -4.193  -2.111  0.00  0.00    +0.011 A 
ATOM     34 CL   UNL     1      -5.494  -4.560  -5.846  0.00  0.00    -0.084 Cl
ENDBRANCH   3  28
TORSDOF 2
