REMARK  Name = ZINC39464934
REMARK  4 active torsions:
REMARK  status: ('A' for Active; 'I' for Inactive)
REMARK    1  A    between atoms: C_1  and  O_2
REMARK    2  A    between atoms: O_2  and  C_3
REMARK    3  A    between atoms: P_14  and  S_20
REMARK    4  A    between atoms: S_20  and  C_21
REMARK                            x       y       z     vdW  Elec       q    Type
REMARK                         _______ _______ _______ _____ _____    ______ ____
ROOT
ATOM      1  C   UNL     1       0.606  -0.607  -1.056  0.00  0.00    +0.133 A 
ATOM      2  C   UNL     1       1.173   0.157  -2.063  0.00  0.00    +0.050 A 
ATOM      3  C   UNL     1       1.789  -0.455  -3.142  0.00  0.00    -0.038 A 
ATOM      4  C   UNL     1       1.839  -1.831  -3.219  0.00  0.00    -0.022 A 
ATOM      5  C   UNL     1       1.271  -2.597  -2.210  0.00  0.00    +0.023 A 
ATOM      6  C   UNL     1       0.662  -1.992  -1.130  0.00  0.00    +0.055 A 
ATOM      7  I   UNL     1      -0.183  -3.160   0.389  0.00  0.00    -0.040 I 
ATOM      8  C   UNL     1       2.495  -2.544  -4.372  0.00  0.00    +0.129 C 
ATOM      9  C   UNL     1       3.316  -3.718  -3.831  0.00  0.00    +0.195 C 
ATOM     10  O   UNL     1       3.844  -4.465  -4.945  0.00  0.00    -0.307 OA
ATOM     11  P   UNL     1       4.617  -3.651  -6.122  0.00  0.00    +0.341 P 
ATOM     12  O   UNL     1       6.014  -3.374  -5.718  0.00  0.00    -0.259 OA
ATOM     13  N   UNL     1       3.784  -2.234  -6.304  0.00  0.00    -0.170 NA
ATOM     14  N   UNL     1       3.348  -1.637  -5.139  0.00  0.00    -0.225 NA
ATOM     15  C   UNL     1       2.630  -0.397  -5.473  0.00  0.00    +0.108 C 
ATOM     16  C   UNL     1       2.395   0.415  -4.213  0.00  0.00    +0.052 C 
ATOM     17  H   UNL     1       3.622  -1.847  -7.179  0.00  0.00    +0.152 HD
ENDROOT
BRANCH   1  19
ATOM     18  C   UNL     1      -0.017   1.425   0.010  0.00  0.00    +0.277 C 
ATOM     19  O   UNL     1       0.002  -0.004   0.002  0.00  0.00    -0.494 OA
ENDBRANCH   1  19
BRANCH  11  20
ATOM     20  S   UNL     1       4.584  -4.763  -7.926  0.00  0.00    -0.056 S 
ATOM     21  C   UNL     1       5.434  -6.309  -7.504  0.00  0.00    +0.096 C 
ENDBRANCH  11  20
TORSDOF 2
