REMARK  Name = ZINC35743663
REMARK  4 active torsions:
REMARK  status: ('A' for Active; 'I' for Inactive)
REMARK    1  A    between atoms: C_1  and  C_2
REMARK    2  A    between atoms: C_2  and  N_3
REMARK    3  A    between atoms: N_19  and  C_20
REMARK    4  A    between atoms: C_23  and  C_26
REMARK                            x       y       z     vdW  Elec       q    Type
REMARK                         _______ _______ _______ _____ _____    ______ ____
ROOT
ATOM      1  N   UNL     1       0.702  -0.486   1.193  0.00  0.00    -0.269 N 
ATOM      2  C   UNL     1       2.079  -0.725   1.229  0.00  0.00    +0.043 A 
ATOM      3  C   UNL     1       3.053  -0.578   0.245  0.00  0.00    +0.027 A 
ATOM      4  C   UNL     1       4.370  -0.882   0.519  0.00  0.00    +0.040 A 
ATOM      5  C   UNL     1       4.735  -1.336   1.775  0.00  0.00    +0.124 A 
ATOM      6  C   UNL     1       3.772  -1.485   2.760  0.00  0.00    +0.047 A 
ATOM      7  C   UNL     1       2.456  -1.181   2.490  0.00  0.00    +0.019 A 
ATOM      8  C   UNL     1       1.195  -1.223   3.298  0.00  0.00    +0.189 C 
ATOM      9  C   UNL     1       0.110  -0.752   2.375  0.00  0.00    +0.259 C 
ATOM     10  O   UNL     1      -1.068  -0.635   2.640  0.00  0.00    -0.272 OA
ATOM     11  N   UNL     1       0.927  -2.541   3.871  0.00  0.00    -0.258 N 
ATOM     12  C   UNL     1       0.976  -2.620   5.332  0.00  0.00    +0.122 C 
ATOM     13  C   UNL     1       0.537  -1.271   5.976  0.00  0.00    +0.091 C 
ATOM     14  S   UNL     1       1.322  -0.119   4.758  0.00  0.00    -0.120 S 
ATOM     15  C   UNL     1       0.651  -3.613   3.103  0.00  0.00    +0.308 C 
ATOM     16  O   UNL     1       0.619  -3.503   1.892  0.00  0.00    -0.252 OA
ATOM     17  N   UNL     1       0.410  -4.809   3.677  0.00  0.00    -0.269 N 
ATOM     18  F   UNL     1       6.026  -1.634   2.040  0.00  0.00    -0.205 F 
ATOM     19  H   UNL     1       0.501  -4.913   4.637  0.00  0.00    +0.156 HD
ENDROOT
BRANCH  17  20
ATOM     20  C   UNL     1       0.028  -5.899   2.888  0.00  0.00    +0.035 A 
ATOM     21  C   UNL     1      -0.878  -6.830   3.379  0.00  0.00    +0.023 A 
ATOM     22  C   UNL     1      -1.254  -7.905   2.598  0.00  0.00    +0.005 A 
ATOM     23  C   UNL     1      -0.728  -8.056   1.327  0.00  0.00    -0.050 A 
ATOM     24  C   UNL     1       0.174  -7.131   0.835  0.00  0.00    +0.005 A 
ATOM     25  C   UNL     1       0.549  -6.050   1.610  0.00  0.00    +0.023 A 
ATOM     26  C   UNL     1      -1.140  -9.230   0.477  0.00  0.00    +0.044 C 
ENDBRANCH  17  20
BRANCH   1  28
ATOM     27  C   UNL     1      -0.032   1.532   0.022  0.00  0.00    +0.025 C 
ATOM     28  C   UNL     1      -0.014   0.002   0.012  0.00  0.00    +0.110 C 
ENDBRANCH   1  28
TORSDOF 2
