REMARK  Name = ZINC59124142
REMARK  10 active torsions:
REMARK  status: ('A' for Active; 'I' for Inactive)
REMARK    1  A    between atoms: C_1  and  C_2
REMARK    2  A    between atoms: C_3  and  C_14
REMARK    3  A    between atoms: N_5  and  C_7
REMARK    4  A    between atoms: C_14  and  S_15
REMARK    5  A    between atoms: S_15  and  C_18
REMARK    6  A    between atoms: C_18  and  C_20
REMARK    7  A    between atoms: C_18  and  C_21
REMARK    8  A    between atoms: N_23  and  C_24
REMARK    9  A    between atoms: C_24  and  C_26
REMARK   10  A    between atoms: C_24  and  C_27
REMARK                            x       y       z     vdW  Elec       q    Type
REMARK                         _______ _______ _______ _____ _____    ______ ____
ROOT
ATOM      1  S   UNL     1       1.699  -0.123  -3.148  0.00  0.00    -0.016 S 
ATOM      2  O   UNL     1       2.299   0.926  -2.402  0.00  0.00    -0.173 OA
ATOM      3  O   UNL     1       2.328  -1.397  -3.178  0.00  0.00    -0.173 OA
ENDROOT
BRANCH   1   4
ATOM      4  C   UNL     1       1.470   0.445  -4.856  0.00  0.00    +0.213 C 
ATOM      5  C   UNL     1       0.676   1.752  -4.856  0.00  0.00    +0.042 C 
BRANCH   4   6
ATOM      6  C   UNL     1       2.817   0.674  -5.493  0.00  0.00    +0.237 C 
ATOM      7  O   UNL     1       3.798   0.833  -4.798  0.00  0.00    -0.274 OA
ATOM      8  N   UNL     1       2.930   0.703  -6.836  0.00  0.00    -0.307 N 
ATOM      9  H   UNL     1       2.146   0.577  -7.392  0.00  0.00    +0.149 HD
BRANCH   8  10
ATOM     10  C   UNL     1       4.239   0.927  -7.455  0.00  0.00    +0.100 C 
ATOM     11  C   UNL     1       4.511   2.430  -7.546  0.00  0.00    +0.033 C 
BRANCH  10  12
ATOM     12  C   UNL     1       4.248   0.330  -8.839  0.00  0.00    -0.027 A 
ATOM     13  C   UNL     1       3.137   0.452  -9.651  0.00  0.00    +0.005 A 
ATOM     14  C   UNL     1       3.145  -0.096 -10.921  0.00  0.00    +0.000 A 
ATOM     15  C   UNL     1       4.265  -0.765 -11.377  0.00  0.00    +0.000 A 
ATOM     16  C   UNL     1       5.377  -0.886 -10.565  0.00  0.00    +0.000 A 
ATOM     17  C   UNL     1       5.370  -0.335  -9.297  0.00  0.00    +0.005 A 
ENDBRANCH  10  12
ENDBRANCH   8  10
ENDBRANCH   4   6
ENDBRANCH   1   4
BRANCH   1  18
ATOM     18  C   UNL     1      -0.006  -0.339  -2.566  0.00  0.00    +0.206 C 
BRANCH  18  21
ATOM     19  C   UNL     1      -0.018   1.503   0.010  0.00  0.00    +0.068 C 
ATOM     20  C   UNL     1       0.002  -0.004   0.002  0.00  0.00    +0.067 A 
ATOM     21  C   UNL     1       0.008  -0.816  -1.137  0.00  0.00    +0.033 A 
ATOM     22  C   UNL     1       0.027  -2.108  -0.728  0.00  0.00    +0.138 A 
ATOM     23  N   UNL     1       0.034  -2.109   0.630  0.00  0.00    -0.221 N 
ATOM     24  N   UNL     1       0.023  -0.775   1.059  0.00  0.00    -0.170 NA
ATOM     25 CL   UNL     1       0.042  -3.508  -1.755  0.00  0.00    -0.062 Cl
BRANCH  23  26
ATOM     26  C   UNL     1       0.053  -3.242   1.455  0.00  0.00    +0.067 A 
ATOM     27  C   UNL     1      -0.618  -4.395   1.069  0.00  0.00    +0.028 A 
ATOM     28  C   UNL     1      -0.597  -5.510   1.884  0.00  0.00    +0.002 A 
ATOM     29  C   UNL     1       0.090  -5.478   3.083  0.00  0.00    +0.000 A 
ATOM     30  C   UNL     1       0.758  -4.332   3.470  0.00  0.00    +0.002 A 
ATOM     31  C   UNL     1       0.747  -3.216   2.657  0.00  0.00    +0.028 A 
ENDBRANCH  23  26
ENDBRANCH  18  21
ENDBRANCH   1  18
TORSDOF 7
