REMARK  Name = ZINC63204688
REMARK  10 active torsions:
REMARK  status: ('A' for Active; 'I' for Inactive)
REMARK    1  A    between atoms: C_1  and  C_2
REMARK    2  A    between atoms: C_2  and  C_3
REMARK    3  A    between atoms: C_2  and  C_4
REMARK    4  A    between atoms: C_4  and  C_6
REMARK    5  A    between atoms: C_4  and  N_26
REMARK    6  A    between atoms: N_8  and  C_9
REMARK    7  A    between atoms: C_9  and  C_10
REMARK    8  A    between atoms: C_10  and  C_12
REMARK    9  A    between atoms: C_10  and  C_17
REMARK   10  A    between atoms: C_27  and  C_29
REMARK                            x       y       z     vdW  Elec       q    Type
REMARK                         _______ _______ _______ _____ _____    ______ ____
ROOT
ATOM      1  C   UNL     1       2.071  -0.090   1.367  0.00  0.00    +0.234 C 
ATOM      2  O   UNL     1       3.007  -0.854   1.264  0.00  0.00    -0.274 OA
ATOM      3  N   UNL     1       2.292   1.221   1.589  0.00  0.00    -0.313 N 
ATOM      4  H   UNL     1       1.548   1.843   1.598  0.00  0.00    +0.149 HD
ENDROOT
BRANCH   1   5
ATOM      5  C   UNL     1       0.660  -0.607   1.245  0.00  0.00    +0.162 C 
BRANCH   5   6
ATOM      6  N   UNL     1       0.626  -2.025   1.611  0.00  0.00    -0.300 N 
ATOM      7  C   UNL     1      -0.516  -2.576   2.065  0.00  0.00    +0.247 C 
ATOM      8  O   UNL     1      -1.519  -1.897   2.172  0.00  0.00    -0.270 OA
ATOM      9  H   UNL     1       1.426  -2.567   1.526  0.00  0.00    +0.150 HD
BRANCH   7  10
ATOM     10  C   UNL     1      -0.551  -4.006   2.433  0.00  0.00    +0.072 A 
ATOM     11  C   UNL     1       0.601  -4.788   2.318  0.00  0.00    +0.016 A 
ATOM     12  C   UNL     1       0.562  -6.122   2.664  0.00  0.00    +0.001 A 
ATOM     13  C   UNL     1      -0.614  -6.689   3.125  0.00  0.00    +0.003 A 
ATOM     14  C   UNL     1      -1.759  -5.923   3.243  0.00  0.00    +0.039 A 
ATOM     15  C   UNL     1      -1.734  -4.582   2.905  0.00  0.00    +0.135 A 
ATOM     16  F   UNL     1      -2.852  -3.833   3.026  0.00  0.00    -0.205 F 
ENDBRANCH   7  10
ENDBRANCH   5   6
BRANCH   5  18
ATOM     17  C   UNL     1       1.007  -1.338  -1.119  0.00  0.00    +0.009 C 
ATOM     18  C   UNL     1       0.178  -0.440  -0.197  0.00  0.00    +0.012 C 
ATOM     19  C   UNL     1      -1.297  -0.835  -0.291  0.00  0.00    +0.009 C 
ENDBRANCH   5  18
ENDBRANCH   1   5
BRANCH   3  20
ATOM     20  C   UNL     1       3.655   1.706   1.816  0.00  0.00    +0.117 C 
BRANCH  20  21
ATOM     21  C   UNL     1       3.628   3.219   2.041  0.00  0.00    +0.071 C 
BRANCH  21  22
ATOM     22  C   UNL     1       5.039   3.736   2.153  0.00  0.00    -0.032 C 
ATOM     23  C   UNL     1       5.632   4.658   1.361  0.00  0.00    -0.000 A 
ATOM     24  C   UNL     1       5.160   5.425   0.202  0.00  0.00    +0.010 A 
ATOM     25  C   UNL     1       6.005   6.294  -0.398  0.00  0.00    +0.001 A 
ATOM     26  C   UNL     1       7.317   6.479   0.057  0.00  0.00    +0.002 A 
ATOM     27  C   UNL     1       7.823   5.811   1.115  0.00  0.00    +0.026 A 
ATOM     28  C   UNL     1       7.022   4.872   1.822  0.00  0.00    +0.043 A 
ATOM     29  N   UNL     1       7.279   4.112   2.859  0.00  0.00    -0.380 N 
ATOM     30  C   UNL     1       6.077   3.333   3.177  0.00  0.00    +0.145 C 
ATOM     31  H   UNL     1       8.121   4.074   3.339  0.00  0.00    +0.160 HD
ENDBRANCH  21  22
BRANCH  21  32
ATOM     32  C   UNL     1       2.879   3.524   3.312  0.00  0.00    -0.002 A 
ATOM     33  C   UNL     1       1.756   4.263   3.485  0.00  0.00    +0.012 A 
ATOM     34  C   UNL     1       1.239   4.409   4.758  0.00  0.00    +0.008 A 
ATOM     35  C   UNL     1       1.870   3.809   5.797  0.00  0.00    +0.045 A 
ATOM     36  S   UNL     1       3.236   3.000   4.981  0.00  0.00    -0.101 S 
ENDBRANCH  21  32
ENDBRANCH  20  21
ENDBRANCH   3  20
TORSDOF 8
