REMARK  Name = ZINC38557866
REMARK  11 active torsions:
REMARK  status: ('A' for Active; 'I' for Inactive)
REMARK    1  A    between atoms: C_1  and  O_2
REMARK    2  A    between atoms: O_2  and  C_3
REMARK    3  A    between atoms: C_7  and  C_9
REMARK    4  A    between atoms: C_11  and  C_23
REMARK    5  A    between atoms: N_25  and  C_26
REMARK    6  A    between atoms: C_26  and  C_27
REMARK    7  A    between atoms: C_27  and  C_28
REMARK    8  A    between atoms: C_31  and  O_36
REMARK    9  A    between atoms: C_32  and  O_34
REMARK   10  A    between atoms: O_34  and  C_35
REMARK   11  A    between atoms: O_36  and  C_37
REMARK                            x       y       z     vdW  Elec       q    Type
REMARK                         _______ _______ _______ _____ _____    ______ ____
ROOT
ATOM      1  C   UNL     1      -2.560  -4.135   0.016  0.00  0.00    +0.076 C 
ATOM      2  N   UNL     1      -1.464  -4.850  -0.086  0.00  0.00    -0.244 NA
ATOM      3  C   UNL     1      -1.440  -6.183  -0.236  0.00  0.00    +0.126 C 
ATOM      4  C   UNL     1      -2.590  -6.894  -0.587  0.00  0.00    +0.039 C 
ATOM      5  C   UNL     1      -3.778  -6.176  -0.568  0.00  0.00    -0.008 C 
ATOM      6  C   UNL     1      -5.018  -6.361  -1.119  0.00  0.00    +0.004 A 
ATOM      7  C   UNL     1      -5.635  -7.488  -1.709  0.00  0.00    +0.010 A 
ATOM      8  C   UNL     1      -6.889  -7.310  -2.214  0.00  0.00    +0.001 A 
ATOM      9  C   UNL     1      -7.569  -6.092  -2.173  0.00  0.00    +0.002 A 
ATOM     10  C   UNL     1      -7.057  -4.966  -1.605  0.00  0.00    +0.026 A 
ATOM     11  C   UNL     1      -5.757  -5.069  -1.033  0.00  0.00    +0.044 A 
ATOM     12  N   UNL     1      -5.056  -4.177  -0.377  0.00  0.00    -0.372 N 
ATOM     13  C   UNL     1      -3.870  -4.830   0.137  0.00  0.00    +0.160 C 
ATOM     14  H   UNL     1      -5.291  -3.244  -0.255  0.00  0.00    +0.161 HD
ENDROOT
BRANCH   1  19
ATOM     15  C   UNL     1      -1.371  -0.629  -0.600  0.00  0.00    +0.121 A 
ATOM     16  C   UNL     1      -2.374   0.104   0.023  0.00  0.00    +0.045 A 
ATOM     17  C   UNL     1      -3.431  -0.541   0.639  0.00  0.00    +0.004 A 
ATOM     18  C   UNL     1      -3.498  -1.918   0.641  0.00  0.00    +0.010 A 
ATOM     19  C   UNL     1      -2.494  -2.667   0.017  0.00  0.00    +0.002 A 
ATOM     20  C   UNL     1      -1.429  -2.011  -0.611  0.00  0.00    +0.055 A 
BRANCH  15  22
ATOM     21  C   UNL     1      -0.340   1.440  -1.154  0.00  0.00    +0.277 C 
ATOM     22  O   UNL     1      -0.336   0.012  -1.204  0.00  0.00    -0.495 OA
ENDBRANCH  15  22
ENDBRANCH   1  19
BRANCH   3  23
ATOM     23  C   UNL     1      -0.172  -6.915  -0.025  0.00  0.00    +0.262 C 
ATOM     24  O   UNL     1      -0.137  -8.123  -0.158  0.00  0.00    -0.269 OA
ATOM     25  N   UNL     1       0.946  -6.242   0.313  0.00  0.00    -0.310 N 
ATOM     26  H   UNL     1       0.919  -5.279   0.419  0.00  0.00    +0.149 HD
BRANCH  25  27
ATOM     27  C   UNL     1       2.202  -6.967   0.521  0.00  0.00    +0.109 C 
BRANCH  27  28
ATOM     28  C   UNL     1       3.307  -5.976   0.894  0.00  0.00    +0.054 C 
BRANCH  28  29
ATOM     29  C   UNL     1       4.599  -6.721   1.108  0.00  0.00    -0.042 A 
ATOM     30  C   UNL     1       4.918  -7.202   2.364  0.00  0.00    +0.007 A 
ATOM     31  C   UNL     1       6.102  -7.886   2.566  0.00  0.00    +0.049 A 
ATOM     32  C   UNL     1       6.972  -8.091   1.507  0.00  0.00    +0.161 A 
ATOM     33  C   UNL     1       6.651  -7.608   0.242  0.00  0.00    +0.162 A 
ATOM     34  C   UNL     1       5.460  -6.927   0.046  0.00  0.00    +0.053 A 
BRANCH  33  35
ATOM     35  O   UNL     1       7.502  -7.807  -0.800  0.00  0.00    -0.491 OA
ATOM     36  C   UNL     1       7.107  -7.282  -2.069  0.00  0.00    +0.277 C 
ENDBRANCH  33  35
BRANCH  32  37
ATOM     37  O   UNL     1       8.138  -8.764   1.704  0.00  0.00    -0.491 OA
ATOM     38  C   UNL     1       8.402  -9.231   3.028  0.00  0.00    +0.277 C 
ENDBRANCH  32  37
ENDBRANCH  28  29
ENDBRANCH  27  28
ENDBRANCH  25  27
ENDBRANCH   3  23
TORSDOF 8
