REMARK  Name = ZINC36580342
REMARK  19 active torsions:
REMARK  status: ('A' for Active; 'I' for Inactive)
REMARK    1  A    between atoms: C_1  and  C_2
REMARK    2  A    between atoms: C_2  and  C_3
REMARK    3  A    between atoms: C_3  and  C_4
REMARK    4  A    between atoms: C_5  and  C_6
REMARK    5  A    between atoms: C_6  and  C_8
REMARK    6  A    between atoms: C_6  and  N_19
REMARK    7  A    between atoms: N_10  and  C_11
REMARK    8  A    between atoms: C_11  and  C_12
REMARK    9  A    between atoms: C_11  and  C_13
REMARK   10  A    between atoms: C_11  and  C_14
REMARK   11  A    between atoms: C_14  and  C_15
REMARK   12  A    between atoms: C_15  and  C_16
REMARK   13  A    between atoms: C_15  and  C_17
REMARK   14  A    between atoms: C_15  and  C_18
REMARK   15  A    between atoms: N_19  and  C_28
REMARK   16  A    between atoms: C_20  and  C_22
REMARK   17  A    between atoms: C_28  and  C_29
REMARK   18  A    between atoms: C_28  and  C_30
REMARK   19  A    between atoms: C_28  and  C_31
REMARK                            x       y       z     vdW  Elec       q    Type
REMARK                         _______ _______ _______ _____ _____    ______ ____
ROOT
ATOM      1  C   UNL     1      -1.171  -5.332  -0.870  0.00  0.00    +0.185 C 
ENDROOT
BRANCH   1   2
ATOM      2  C   UNL     1      -2.232  -5.998  -1.707  0.00  0.00    +0.238 C 
ATOM      3  O   UNL     1      -2.830  -6.961  -1.275  0.00  0.00    -0.273 OA
ATOM      4  N   UNL     1      -2.518  -5.524  -2.936  0.00  0.00    -0.308 N 
ATOM      5  H   UNL     1      -2.040  -4.754  -3.281  0.00  0.00    +0.149 HD
BRANCH   4   6
ATOM      6  C   UNL     1      -3.550  -6.172  -3.749  0.00  0.00    +0.030 C 
ATOM      7  C   UNL     1      -3.107  -7.595  -4.096  0.00  0.00    +0.031 C 
ATOM      8  C   UNL     1      -4.862  -6.223  -2.963  0.00  0.00    +0.031 C 
BRANCH   6   9
ATOM      9  C   UNL     1      -3.759  -5.374  -5.038  0.00  0.00    +0.031 C 
BRANCH   9  10
ATOM     10  C   UNL     1      -3.867  -3.885  -4.704  0.00  0.00    -0.036 C 
ATOM     11  C   UNL     1      -2.464  -3.295  -4.545  0.00  0.00    +0.010 C 
ATOM     12  C   UNL     1      -4.599  -3.160  -5.836  0.00  0.00    +0.010 C 
ATOM     13  C   UNL     1      -4.645  -3.710  -3.399  0.00  0.00    +0.010 C 
ENDBRANCH   9  10
ENDBRANCH   6   9
ENDBRANCH   4   6
ENDBRANCH   1   2
BRANCH   1  14
ATOM     14  N   UNL     1      -1.067  -6.016   0.422  0.00  0.00    -0.281 N 
ATOM     15  C   UNL     1       0.057  -6.686   0.741  0.00  0.00    +0.220 C 
ATOM     16  O   UNL     1       0.920  -6.856  -0.095  0.00  0.00    -0.275 OA
BRANCH  15  17
ATOM     17  C   UNL     1       0.243  -7.226   2.136  0.00  0.00    +0.075 C 
ATOM     18  C   UNL     1       0.340  -6.061   3.124  0.00  0.00    +0.013 C 
ATOM     19  C   UNL     1       0.528  -6.609   4.540  0.00  0.00    +0.001 C 
ATOM     20  C   UNL     1       1.813  -7.437   4.600  0.00  0.00    +0.000 C 
ATOM     21  C   UNL     1       1.716  -8.601   3.612  0.00  0.00    +0.001 C 
ATOM     22  C   UNL     1       1.528  -8.054   2.196  0.00  0.00    +0.013 C 
ENDBRANCH  15  17
BRANCH  14  23
ATOM     23  C   UNL     1      -2.186  -5.970   1.366  0.00  0.00    +0.030 C 
ATOM     24  C   UNL     1      -3.505  -6.106   0.602  0.00  0.00    +0.031 C 
ATOM     25  C   UNL     1      -2.055  -7.120   2.367  0.00  0.00    +0.031 C 
ATOM     26  C   UNL     1      -2.167  -4.636   2.116  0.00  0.00    +0.031 C 
ENDBRANCH  14  23
ENDBRANCH   1  14
BRANCH   1  28
ATOM     27  C   UNL     1      -1.350  -3.338   0.527  0.00  0.00    -0.029 C 
ATOM     28  C   UNL     1      -1.540  -3.888  -0.646  0.00  0.00    +0.000 C 
BRANCH  27  29
ATOM     29  C   UNL     1      -1.635  -1.872   0.727  0.00  0.00    +0.027 C 
BRANCH  29  31
ATOM     30  C   UNL     1      -2.906  -0.208   2.091  0.00  0.00    +0.004 C 
ATOM     31  C   UNL     1      -2.616  -1.696   1.888  0.00  0.00    +0.001 C 
ENDBRANCH  29  31
ENDBRANCH  27  29
ENDBRANCH   1  28
TORSDOF 10
