REMARK  Name = ZINC36504238
REMARK  17 active torsions:
REMARK  status: ('A' for Active; 'I' for Inactive)
REMARK    1  A    between atoms: C_1  and  C_2
REMARK    2  A    between atoms: C_2  and  C_3
REMARK    3  A    between atoms: C_3  and  C_4
REMARK    4  A    between atoms: C_4  and  C_5
REMARK    5  A    between atoms: C_5  and  C_6
REMARK    6  A    between atoms: N_8  and  C_9
REMARK    7  A    between atoms: N_8  and  C_15
REMARK    8  A    between atoms: C_9  and  C_10
REMARK    9  A    between atoms: C_15  and  C_17
REMARK   10  A    between atoms: C_15  and  C_26
REMARK   11  A    between atoms: C_20  and  N_23
REMARK   12  A    between atoms: N_23  and  C_24
REMARK   13  A    between atoms: N_23  and  C_25
REMARK   14  A    between atoms: N_28  and  C_29
REMARK   15  A    between atoms: C_29  and  C_30
REMARK   16  A    between atoms: C_30  and  C_31
REMARK   17  A    between atoms: C_31  and  C_32
REMARK                            x       y       z     vdW  Elec       q    Type
REMARK                         _______ _______ _______ _____ _____    ______ ____
ROOT
ATOM      1  C   UNL     1       3.751  -5.650  -3.130  0.00  0.00    +0.193 C 
ENDROOT
BRANCH   1   2
ATOM      2  C   UNL     1       5.072  -5.099  -3.602  0.00  0.00    -0.018 A 
ATOM      3  C   UNL     1       5.132  -4.348  -4.761  0.00  0.00    +0.008 A 
ATOM      4  C   UNL     1       6.341  -3.842  -5.196  0.00  0.00    +0.023 A 
ATOM      5  C   UNL     1       7.498  -4.089  -4.467  0.00  0.00    +0.029 A 
ATOM      6  C   UNL     1       7.434  -4.844  -3.303  0.00  0.00    +0.023 A 
ATOM      7  C   UNL     1       6.221  -5.343  -2.871  0.00  0.00    +0.008 A 
BRANCH   5   8
ATOM      8  N   UNL     1       8.723  -3.579  -4.904  0.00  0.00    -0.336 N 
ATOM      9  C   UNL     1       8.774  -2.695  -6.071  0.00  0.00    +0.129 C 
ATOM     10  C   UNL     1       9.956  -3.928  -4.195  0.00  0.00    +0.129 C 
ENDBRANCH   5   8
ENDBRANCH   1   2
BRANCH   1  11
ATOM     11  C   UNL     1       3.348  -6.808  -4.006  0.00  0.00    +0.238 C 
ATOM     12  O   UNL     1       3.037  -6.615  -5.162  0.00  0.00    -0.273 OA
ATOM     13  N   UNL     1       3.333  -8.059  -3.505  0.00  0.00    -0.313 N 
ATOM     14  H   UNL     1       3.581  -8.214  -2.580  0.00  0.00    +0.149 HD
BRANCH  13  15
ATOM     15  C   UNL     1       2.941  -9.185  -4.356  0.00  0.00    +0.104 C 
BRANCH  15  16
ATOM     16  C   UNL     1       3.009 -10.483  -3.548  0.00  0.00    +0.018 C 
BRANCH  16  17
ATOM     17  C   UNL     1       2.600 -11.659  -4.438  0.00  0.00    -0.002 C 
ATOM     18  C   UNL     1       2.667 -12.957  -3.630  0.00  0.00    +0.004 C 
ENDBRANCH  16  17
ENDBRANCH  15  16
ENDBRANCH  13  15
ENDBRANCH   1  11
BRANCH   1  21
ATOM     19  C   UNL     1       2.784  -3.546  -2.370  0.00  0.00    +0.217 C 
ATOM     20  O   UNL     1       3.677  -3.464  -1.554  0.00  0.00    -0.276 OA
ATOM     21  N   UNL     1       2.730  -4.602  -3.207  0.00  0.00    -0.279 N 
BRANCH  19  22
ATOM     22  C   UNL     1       1.734  -2.468  -2.449  0.00  0.00    +0.096 C 
BRANCH  22  23
ATOM     23  C   UNL     1       2.025  -1.395  -1.398  0.00  0.00    +0.009 C 
BRANCH  23  24
ATOM     24  C   UNL     1       0.959  -0.300  -1.478  0.00  0.00    +0.000 C 
BRANCH  24  26
ATOM     25  C   UNL     1       0.184   1.867  -0.507  0.00  0.00    +0.004 C 
ATOM     26  C   UNL     1       1.250   0.773  -0.427  0.00  0.00    -0.003 C 
ENDBRANCH  24  26
ENDBRANCH  23  24
ENDBRANCH  22  23
ENDBRANCH  19  22
BRANCH  21  27
ATOM     27  C   UNL     1       1.650  -4.701  -4.192  0.00  0.00    +0.183 C 
BRANCH  27  28
ATOM     28  C   UNL     1       1.990  -3.859  -5.395  0.00  0.00    +0.122 A 
ATOM     29  C   UNL     1       2.177  -4.315  -6.647  0.00  0.00    +0.046 A 
ATOM     30  C   UNL     1       2.474  -3.192  -7.452  0.00  0.00    +0.041 A 
ATOM     31  C   UNL     1       2.450  -2.116  -6.644  0.00  0.00    +0.195 A 
ATOM     32  O   UNL     1       2.151  -2.526  -5.401  0.00  0.00    -0.466 OA
ENDBRANCH  27  28
ENDBRANCH  21  27
ENDBRANCH   1  21
TORSDOF 13
