REMARK  Name = ZINC38732900
REMARK  3 active torsions:
REMARK  status: ('A' for Active; 'I' for Inactive)
REMARK    1  A    between atoms: C_1  and  C_2
REMARK    2  A    between atoms: N_14  and  C_15
REMARK    3  A    between atoms: C_18  and  N_21
REMARK                            x       y       z     vdW  Elec       q    Type
REMARK                         _______ _______ _______ _____ _____    ______ ____
ROOT
ATOM      1  C   UNL     1      -1.313   1.155   0.341  0.00  0.00    +0.086 C 
ATOM      2  C   UNL     1      -0.620  -0.171   0.161  0.00  0.00    +0.114 A 
ATOM      3  N   UNL     1      -0.761  -0.792  -0.971  0.00  0.00    -0.232 NA
ATOM      4  C   UNL     1      -0.166  -1.988  -1.205  0.00  0.00    +0.092 A 
ATOM      5  C   UNL     1       0.625  -2.571  -0.190  0.00  0.00    +0.067 A 
ATOM      6  C   UNL     1       1.245  -3.800  -0.407  0.00  0.00    +0.030 A 
ATOM      7  C   UNL     1       1.081  -4.440  -1.617  0.00  0.00    +0.020 A 
ATOM      8  C   UNL     1       0.303  -3.870  -2.617  0.00  0.00    +0.032 A 
ATOM      9  C   UNL     1      -0.319  -2.656  -2.422  0.00  0.00    +0.045 A 
ATOM     10 BR   UNL     1      -1.373  -1.898  -3.797  0.00  0.00    -0.048 Br
ATOM     11 BR   UNL     1       1.921  -6.107  -1.917  0.00  0.00    -0.050 Br
ATOM     12  C   UNL     1       0.765  -1.843   1.080  0.00  0.00    +0.266 A 
ATOM     13  O   UNL     1       1.433  -2.290   1.994  0.00  0.00    -0.267 OA
ATOM     14  N   UNL     1       0.127  -0.655   1.191  0.00  0.00    -0.265 N 
ENDROOT
BRANCH  14  15
ATOM     15  C   UNL     1       0.231   0.081   2.377  0.00  0.00    +0.051 A 
ATOM     16  C   UNL     1      -0.649  -0.157   3.424  0.00  0.00    +0.028 A 
ATOM     17  C   UNL     1      -0.543   0.570   4.593  0.00  0.00    +0.035 A 
ATOM     18  C   UNL     1       0.439   1.536   4.722  0.00  0.00    +0.126 A 
ATOM     19  C   UNL     1       1.317   1.776   3.682  0.00  0.00    +0.035 A 
ATOM     20  C   UNL     1       1.220   1.047   2.512  0.00  0.00    +0.028 A 
BRANCH  18  21
ATOM     21  N   UNL     1       0.549   2.314   5.977  0.00  0.00    +0.056 N 
ATOM     22  O   UNL     1      -0.218   2.105   6.887  0.00  0.00    -0.126 OA
ATOM     23  O   UNL     1       1.407   3.158   6.091  0.00  0.00    -0.126 OA
ENDBRANCH  18  21
ENDBRANCH  14  15
TORSDOF 2
