REMARK  Name = ZINC12374689
REMARK  11 active torsions:
REMARK  status: ('A' for Active; 'I' for Inactive)
REMARK    1  A    between atoms: C_3  and  O_37
REMARK    2  A    between atoms: C_6  and  C_7
REMARK    3  A    between atoms: C_15  and  O_36
REMARK    4  A    between atoms: C_16  and  C_19
REMARK    5  A    between atoms: C_17  and  O_18
REMARK    6  A    between atoms: C_19  and  C_20
REMARK    7  A    between atoms: C_22  and  O_35
REMARK    8  A    between atoms: C_24  and  O_34
REMARK    9  A    between atoms: C_26  and  O_33
REMARK   10  A    between atoms: C_28  and  C_31
REMARK   11  A    between atoms: C_31  and  O_32
REMARK                            x       y       z     vdW  Elec       q    Type
REMARK                         _______ _______ _______ _____ _____    ______ ____
ROOT
ATOM      1  C   UNL     1       8.120   7.940  -1.168  0.00  0.00    +0.139 A 
ATOM      2  C   UNL     1       7.519   7.755  -2.374  0.00  0.00    +0.098 A 
ATOM      3  C   UNL     1       6.231   7.171  -2.429  0.00  0.00    +0.197 A 
ATOM      4  O   UNL     1       5.662   6.990  -3.494  0.00  0.00    -0.287 OA
ATOM      5  C   UNL     1       5.603   6.792  -1.152  0.00  0.00    +0.106 A 
ATOM      6  C   UNL     1       6.311   7.028   0.039  0.00  0.00    +0.146 A 
ATOM      7  O   UNL     1       7.537   7.590  -0.010  0.00  0.00    -0.454 OA
ATOM      8  C   UNL     1       5.739   6.678   1.252  0.00  0.00    +0.093 A 
ATOM      9  C   UNL     1       4.476   6.107   1.284  0.00  0.00    +0.127 A 
ATOM     10  C   UNL     1       3.776   5.868   0.107  0.00  0.00    +0.039 A 
ATOM     11  C   UNL     1       4.330   6.210  -1.113  0.00  0.00    +0.138 A 
ENDROOT
BRANCH   1  17
ATOM     12  C   UNL     1      10.098   8.918  -2.320  0.00  0.00    +0.015 A 
ATOM     13  C   UNL     1      11.350   9.492  -2.280  0.00  0.00    +0.046 A 
ATOM     14  C   UNL     1      11.986   9.692  -1.061  0.00  0.00    +0.117 A 
ATOM     15  C   UNL     1      11.361   9.321   0.123  0.00  0.00    +0.046 A 
ATOM     16  C   UNL     1      10.106   8.753   0.093  0.00  0.00    +0.015 A 
ATOM     17  C   UNL     1       9.463   8.549  -1.131  0.00  0.00    +0.018 A 
BRANCH  14  18
ATOM     18  O   UNL     1      13.222  10.252  -1.027  0.00  0.00    -0.507 OA
ATOM     19  H   UNL     1      13.945   9.612  -1.075  0.00  0.00    +0.292 HD
ENDBRANCH  14  18
ENDBRANCH   1  17
BRANCH  11  20
ATOM     20  O   UNL     1       3.646   5.982  -2.262  0.00  0.00    -0.506 OA
ATOM     21  H   UNL     1       3.083   6.719  -2.537  0.00  0.00    +0.292 HD
ENDBRANCH  11  20
BRANCH   9  22
ATOM     22  O   UNL     1       3.920   5.774   2.477  0.00  0.00    -0.506 OA
ATOM     23  H   UNL     1       4.124   4.874   2.768  0.00  0.00    +0.292 HD
ENDBRANCH   9  22
BRANCH  10  24
ATOM     24  C   UNL     1       2.406   5.241   0.161  0.00  0.00    +0.076 C 
BRANCH  24  25
ATOM     25  C   UNL     1       2.540   3.719   0.084  0.00  0.00    +0.154 C 
ATOM     26  C   UNL     1       1.147   3.087   0.012  0.00  0.00    +0.174 C 
ATOM     27  C   UNL     1       1.286   1.562  -0.002  0.00  0.00    +0.176 C 
ATOM     28  C   UNL     1       2.064   1.118   1.241  0.00  0.00    +0.176 C 
ATOM     29  C   UNL     1       3.422   1.825   1.263  0.00  0.00    +0.175 C 
ATOM     30  O   UNL     1       3.220   3.240   1.246  0.00  0.00    -0.365 OA
BRANCH  28  31
ATOM     31  O   UNL     1       1.327   1.464   2.415  0.00  0.00    -0.386 OA
ATOM     32  H   UNL     1       1.761   1.211   3.241  0.00  0.00    +0.210 HD
ENDBRANCH  28  31
BRANCH  27  33
ATOM     33  O   UNL     1      -0.011   0.963   0.007  0.00  0.00    -0.386 OA
ATOM     34  H   UNL     1       0.002  -0.004   0.002  0.00  0.00    +0.210 HD
ENDBRANCH  27  33
BRANCH  26  35
ATOM     35  O   UNL     1       0.486   3.517  -1.180  0.00  0.00    -0.387 OA
ATOM     36  H   UNL     1      -0.402   3.151  -1.292  0.00  0.00    +0.210 HD
ENDBRANCH  26  35
BRANCH  29  37
ATOM     37  C   UNL     1       4.181   1.434   2.532  0.00  0.00    +0.190 C 
BRANCH  37  38
ATOM     38  O   UNL     1       5.492   2.000   2.498  0.00  0.00    -0.392 OA
ATOM     39  H   UNL     1       6.031   1.792   3.273  0.00  0.00    +0.210 HD
ENDBRANCH  37  38
ENDBRANCH  29  37
ENDBRANCH  24  25
ENDBRANCH  10  24
TORSDOF 11
