REMARK  Name = ZINC15482756
REMARK  11 active torsions:
REMARK  status: ('A' for Active; 'I' for Inactive)
REMARK    1  A    between atoms: C_1  and  C_2
REMARK    2  A    between atoms: C_4  and  C_27
REMARK    3  A    between atoms: C_5  and  N_9
REMARK    4  A    between atoms: C_6  and  C_8
REMARK    5  A    between atoms: C_10  and  C_12
REMARK    6  A    between atoms: C_12  and  N_13
REMARK    7  A    between atoms: N_13  and  C_14
REMARK    8  A    between atoms: N_13  and  C_15
REMARK    9  A    between atoms: C_15  and  C_16
REMARK   10  A    between atoms: N_18  and  N_19
REMARK   11  A    between atoms: C_20  and  C_22
REMARK                            x       y       z     vdW  Elec       q    Type
REMARK                         _______ _______ _______ _____ _____    ______ ____
ROOT
ATOM      1  N   UNL     1      -0.439  -6.996   2.068  0.00  0.00    +0.389 N 
ATOM      2  C   UNL     1      -1.518  -6.472   2.916  0.00  0.00    -0.095 C 
ATOM      3  H   UNL     1       0.454  -6.770   2.482  0.00  0.00    -0.081 HD
ENDROOT
BRANCH   1   4
ATOM      4  C   UNL     1      -0.526  -6.390   0.733  0.00  0.00    +0.019 C 
BRANCH   4   6
ATOM      5  N   UNL     1      -0.299  -4.141  -0.272  0.00  0.00    -0.287 N 
ATOM      6  C   UNL     1      -0.270  -4.908   0.836  0.00  0.00    +0.201 C 
ATOM      7  O   UNL     1      -0.036  -4.407   1.915  0.00  0.00    -0.278 OA
ATOM      8  H   UNL     1      -0.420  -4.551  -1.143  0.00  0.00    +0.155 HD
BRANCH   5  13
ATOM      9  C   UNL     1       0.286   1.486   0.158  0.00  0.00    +0.044 C 
ATOM     10  C   UNL     1       0.130  -0.009   0.043  0.00  0.00    -0.050 A 
ATOM     11  C   UNL     1       1.121  -0.844   0.526  0.00  0.00    +0.008 A 
ATOM     12  C   UNL     1       0.981  -2.215   0.423  0.00  0.00    -0.029 A 
ATOM     13  C   UNL     1      -0.155  -2.753  -0.166  0.00  0.00    +0.039 A 
ATOM     14  C   UNL     1      -1.148  -1.911  -0.649  0.00  0.00    -0.029 A 
ATOM     15  C   UNL     1      -1.005  -0.542  -0.539  0.00  0.00    +0.008 A 
ATOM     16  C   UNL     1      -2.383  -2.491  -1.289  0.00  0.00    +0.045 C 
ATOM     17  C   UNL     1       2.062  -3.124   0.949  0.00  0.00    +0.045 C 
ENDBRANCH   5  13
ENDBRANCH   4   6
ENDBRANCH   1   4
BRANCH   1  18
ATOM     18  C   UNL     1      -0.570  -8.454   1.953  0.00  0.00    +0.020 C 
BRANCH  18  19
ATOM     19  C   UNL     1      -0.357  -9.085   3.305  0.00  0.00    +0.213 C 
ATOM     20  O   UNL     1      -0.120  -8.389   4.269  0.00  0.00    -0.276 OA
ATOM     21  N   UNL     1      -0.431 -10.424   3.443  0.00  0.00    -0.236 N 
ATOM     22  H   UNL     1      -0.621 -10.981   2.672  0.00  0.00    +0.173 HD
BRANCH  21  23
ATOM     23  N   UNL     1      -0.233 -11.011   4.700  0.00  0.00    -0.230 N 
ATOM     24  C   UNL     1      -0.307 -12.350   4.838  0.00  0.00    +0.267 C 
ATOM     25  O   UNL     1      -0.545 -13.049   3.870  0.00  0.00    -0.268 OA
ATOM     26  H   UNL     1      -0.044 -10.454   5.471  0.00  0.00    +0.173 HD
BRANCH  24  27
ATOM     27  C   UNL     1      -0.101 -12.964   6.152  0.00  0.00    +0.075 A 
ATOM     28  C   UNL     1      -0.127 -14.304   6.505  0.00  0.00    +0.021 A 
ATOM     29  C   UNL     1       0.105 -14.578   7.832  0.00  0.00    +0.008 A 
ATOM     30  C   UNL     1       0.339 -13.550   8.685  0.00  0.00    +0.046 A 
ATOM     31  S   UNL     1       0.259 -12.182   7.714  0.00  0.00    -0.092 S 
ENDBRANCH  24  27
ENDBRANCH  21  23
ENDBRANCH  18  19
ENDBRANCH   1  18
TORSDOF 7
