REMARK  Name = ZINC25782305
REMARK  8 active torsions:
REMARK  status: ('A' for Active; 'I' for Inactive)
REMARK    1  A    between atoms: C_1  and  C_2
REMARK    2  A    between atoms: C_2  and  C_36
REMARK    3  A    between atoms: C_6  and  C_24
REMARK    4  A    between atoms: C_8  and  C_22
REMARK    5  A    between atoms: C_9  and  N_21
REMARK    6  A    between atoms: N_10  and  C_11
REMARK    7  A    between atoms: C_15  and  C_17
REMARK    8  A    between atoms: C_28  and  N_30
REMARK                            x       y       z     vdW  Elec       q    Type
REMARK                         _______ _______ _______ _____ _____    ______ ____
ROOT
ATOM      1  C   UNL     1       0.199   1.230   1.794  0.00  0.00    +0.011 C 
ATOM      2  C   UNL     1       0.160  -0.219   1.305  0.00  0.00    -0.023 C 
ATOM      3  C   UNL     1      -1.267  -0.583   0.889  0.00  0.00    +0.058 C 
ATOM      4  C   UNL     1      -1.296  -1.996   0.360  0.00  0.00    +0.025 C 
ATOM      5  C   UNL     1      -0.225  -2.525  -0.268  0.00  0.00    +0.025 C 
ATOM      6  C   UNL     1      -0.262  -3.930  -0.813  0.00  0.00    +0.097 C 
ATOM      7  C   UNL     1      -1.376  -4.722  -0.193  0.00  0.00    +0.077 C 
ATOM      8  C   UNL     1      -2.405  -4.106   0.444  0.00  0.00    +0.107 C 
ATOM      9  N   UNL     1      -2.438  -2.733   0.535  0.00  0.00    -0.260 N 
ATOM     10  C   UNL     1       0.957  -1.782  -0.436  0.00  0.00    +0.162 C 
ATOM     11  O   UNL     1       1.899  -2.284  -1.016  0.00  0.00    -0.292 OA
ATOM     12  C   UNL     1       1.080  -0.378   0.091  0.00  0.00    +0.086 C 
ATOM     13  C   UNL     1       0.622  -1.152   2.426  0.00  0.00    +0.011 C 
ENDROOT
BRANCH   9  14
ATOM     14  C   UNL     1      -3.647  -2.084   0.810  0.00  0.00    +0.040 A 
ATOM     15  C   UNL     1      -4.053  -1.895   2.125  0.00  0.00    +0.024 A 
ATOM     16  C   UNL     1      -5.244  -1.251   2.393  0.00  0.00    +0.002 A 
ATOM     17  C   UNL     1      -6.038  -0.802   1.353  0.00  0.00    +0.012 A 
ATOM     18  C   UNL     1      -5.640  -0.994   0.043  0.00  0.00    +0.057 A 
ATOM     19  C   UNL     1      -4.447  -1.633  -0.232  0.00  0.00    +0.036 A 
BRANCH  18  20
ATOM     20  C   UNL     1      -6.509  -0.504  -1.087  0.00  0.00    +0.417 C 
ATOM     21  F   UNL     1      -7.405  -1.512  -1.457  0.00  0.00    -0.166 F 
ATOM     22  F   UNL     1      -7.223   0.625  -0.670  0.00  0.00    -0.166 F 
ATOM     23  F   UNL     1      -5.705  -0.169  -2.182  0.00  0.00    -0.166 F 
ENDBRANCH  18  20
ENDBRANCH   9  14
BRANCH   6  24
ATOM     24  C   UNL     1      -0.467  -3.876  -2.305  0.00  0.00    -0.033 A 
ATOM     25  C   UNL     1      -1.600  -3.280  -2.826  0.00  0.00    +0.005 A 
ATOM     26  C   UNL     1      -1.787  -3.231  -4.195  0.00  0.00    +0.003 A 
ATOM     27  C   UNL     1      -0.841  -3.777  -5.042  0.00  0.00    +0.033 A 
ATOM     28  C   UNL     1       0.292  -4.373  -4.521  0.00  0.00    +0.126 A 
ATOM     29  C   UNL     1       0.482  -4.418  -3.152  0.00  0.00    +0.037 A 
BRANCH  28  30
ATOM     30  N   UNL     1       1.305  -4.957  -5.428  0.00  0.00    +0.056 N 
ATOM     31  O   UNL     1       1.140  -4.913  -6.634  0.00  0.00    -0.126 OA
ATOM     32  O   UNL     1       2.303  -5.482  -4.969  0.00  0.00    -0.126 OA
ENDBRANCH  28  30
ENDBRANCH   6  24
BRANCH   8  33
ATOM     33  N   UNL     1      -3.415  -4.855   0.998  0.00  0.00    -0.345 N 
ATOM     34  H   UNL     1      -4.249  -4.356   1.514  0.00  0.00    +0.144 HD
ATOM     35  H   UNL     1      -3.390  -5.952   0.925  0.00  0.00    +0.144 HD
ENDBRANCH   8  33
BRANCH   7  36
ATOM     36  C   UNL     1      -1.353  -6.152  -0.274  0.00  0.00    +0.099 C 
ATOM     37  N   UNL     1      -1.334  -7.286  -0.338  0.00  0.00    -0.191 NA
ENDBRANCH   7  36
TORSDOF 6
