REMARK  Name = ZINC39325257
REMARK  10 active torsions:
REMARK  status: ('A' for Active; 'I' for Inactive)
REMARK    1  A    between atoms: C_1  and  C_2
REMARK    2  A    between atoms: C_6  and  C_8
REMARK    3  A    between atoms: C_8  and  C_9
REMARK    4  A    between atoms: C_9  and  N_10
REMARK    5  A    between atoms: N_10  and  C_11
REMARK    6  A    between atoms: N_10  and  S_28
REMARK    7  A    between atoms: C_11  and  C_12
REMARK    8  A    between atoms: S_28  and  C_31
REMARK    9  A    between atoms: C_34  and  O_37
REMARK   10  A    between atoms: O_37  and  C_38
REMARK                            x       y       z     vdW  Elec       q    Type
REMARK                         _______ _______ _______ _____ _____    ______ ____
ROOT
ATOM      1  N   UNL     1       1.503  -3.826   4.063  0.00  0.00    -0.175 NA
ENDROOT
BRANCH   1   2
ATOM      2  S   UNL     1       1.745  -2.903   5.417  0.00  0.00    +0.061 S 
ATOM      3  O   UNL     1       2.378  -3.742   6.373  0.00  0.00    -0.153 OA
ATOM      4  O   UNL     1       2.320  -1.680   4.976  0.00  0.00    -0.153 OA
BRANCH   2   5
ATOM      5  C   UNL     1       0.156  -2.506   6.067  0.00  0.00    +0.106 A 
ATOM      6  C   UNL     1      -0.496  -1.362   5.647  0.00  0.00    +0.032 A 
ATOM      7  C   UNL     1      -1.742  -1.049   6.156  0.00  0.00    +0.047 A 
ATOM      8  C   UNL     1      -2.338  -1.884   7.090  0.00  0.00    +0.120 A 
ATOM      9  C   UNL     1      -1.681  -3.031   7.510  0.00  0.00    +0.047 A 
ATOM     10  C   UNL     1      -0.438  -3.343   6.994  0.00  0.00    +0.032 A 
BRANCH   8  11
ATOM     11  O   UNL     1      -3.563  -1.578   7.593  0.00  0.00    -0.495 OA
ATOM     12  C   UNL     1      -4.115  -2.483   8.551  0.00  0.00    +0.277 C 
ENDBRANCH   8  11
ENDBRANCH   2   5
ENDBRANCH   1   2
BRANCH   1  13
ATOM     13  C   UNL     1       1.475  -3.195   2.741  0.00  0.00    +0.114 C 
BRANCH  13  14
ATOM     14  C   UNL     1       0.030  -2.865   2.364  0.00  0.00    +0.052 C 
BRANCH  14  20
ATOM     15  C   UNL     1       0.180   1.252  -0.477  0.00  0.00    +0.044 C 
ATOM     16  C   UNL     1       0.072  -0.246  -0.355  0.00  0.00    -0.050 A 
ATOM     17  C   UNL     1      -0.053  -1.025  -1.490  0.00  0.00    +0.003 A 
ATOM     18  C   UNL     1      -0.151  -2.399  -1.378  0.00  0.00    +0.001 A 
ATOM     19  C   UNL     1      -0.125  -2.994  -0.130  0.00  0.00    +0.004 A 
ATOM     20  C   UNL     1       0.001  -2.216   1.004  0.00  0.00    -0.046 A 
ATOM     21  C   UNL     1       0.104  -0.841   0.892  0.00  0.00    +0.007 A 
ENDBRANCH  14  20
ENDBRANCH  13  14
ENDBRANCH   1  13
BRANCH   1  22
ATOM     22  C   UNL     1       1.317  -5.274   4.188  0.00  0.00    +0.126 C 
BRANCH  22  23
ATOM     23  C   UNL     1       2.670  -5.975   4.056  0.00  0.00    +0.114 C 
ATOM     24  C   UNL     1       3.271  -5.578   2.722  0.00  0.00    -0.003 C 
ATOM     25  C   UNL     1       3.574  -6.577   1.850  0.00  0.00    -0.003 A 
ATOM     26  C   UNL     1       4.155  -6.279   0.541  0.00  0.00    +0.059 A 
ATOM     27  C   UNL     1       4.448  -7.301  -0.309  0.00  0.00    +0.163 A 
ATOM     28  C   UNL     1       4.202  -8.641   0.052  0.00  0.00    +0.164 A 
ATOM     29  C   UNL     1       3.652  -8.974   1.274  0.00  0.00    +0.073 A 
ATOM     30  C   UNL     1       3.320  -7.986   2.208  0.00  0.00    +0.044 A 
ATOM     31  N   UNL     1       2.790  -8.331   3.384  0.00  0.00    -0.284 N 
ATOM     32  C   UNL     1       2.455  -7.450   4.309  0.00  0.00    +0.225 C 
ATOM     33  O   UNL     1       1.974  -7.825   5.363  0.00  0.00    -0.275 OA
ATOM     34  O   UNL     1       4.511  -9.649  -0.807  0.00  0.00    -0.485 OA
ATOM     35  C   UNL     1       4.707  -9.292  -2.178  0.00  0.00    +0.270 C 
ATOM     36  C   UNL     1       5.626  -8.064  -2.230  0.00  0.00    +0.270 C 
ATOM     37  O   UNL     1       4.985  -6.997  -1.524  0.00  0.00    -0.485 OA
ATOM     38  H   UNL     1       2.643  -9.272   3.567  0.00  0.00    +0.155 HD
ENDBRANCH  22  23
ENDBRANCH   1  22
TORSDOF 8
