REMARK  Name = ZINC31045921
REMARK  6 active torsions:
REMARK  status: ('A' for Active; 'I' for Inactive)
REMARK    1  A    between atoms: C_6  and  C_7
REMARK    2  A    between atoms: C_9  and  C_12
REMARK    3  A    between atoms: C_12  and  N_13
REMARK    4  A    between atoms: C_17  and  C_20
REMARK    5  A    between atoms: N_22  and  C_23
REMARK    6  A    between atoms: C_26  and  C_29
REMARK                            x       y       z     vdW  Elec       q    Type
REMARK                         _______ _______ _______ _____ _____    ______ ____
ROOT
ATOM      1  N   UNL     1       7.779  -1.004   1.302  0.00  0.00    +0.386 N 
ATOM      2  C   UNL     1       7.119  -2.028   2.122  0.00  0.00    -0.078 C 
ATOM      3  C   UNL     1       7.558  -1.878   3.580  0.00  0.00    -0.018 C 
ATOM      4  C   UNL     1       9.079  -2.030   3.668  0.00  0.00    +0.009 C 
ATOM      5  C   UNL     1       9.742  -0.983   2.769  0.00  0.00    +0.059 C 
ATOM      6  C   UNL     1       9.239  -1.159   1.334  0.00  0.00    -0.065 C 
ATOM      7  H   UNL     1       7.537  -0.022   1.734  0.00  0.00    -0.081 HD
ENDROOT
BRANCH   5   8
ATOM      8  C   UNL     1      11.237  -1.163   2.804  0.00  0.00    +0.218 C 
ATOM      9  O   UNL     1      11.843  -1.408   1.782  0.00  0.00    -0.275 OA
ATOM     10  N   UNL     1      11.902  -1.051   3.971  0.00  0.00    -0.285 N 
ATOM     11  H   UNL     1      11.365  -0.754   4.884  0.00  0.00    +0.155 HD
BRANCH  10  12
ATOM     12  C   UNL     1      13.276  -1.314   4.021  0.00  0.00    +0.033 A 
ATOM     13  C   UNL     1      13.831  -1.903   5.150  0.00  0.00    +0.023 A 
ATOM     14  C   UNL     1      15.186  -2.165   5.195  0.00  0.00    +0.006 A 
ATOM     15  C   UNL     1      15.992  -1.832   4.121  0.00  0.00    -0.041 A 
ATOM     16  C   UNL     1      15.443  -1.240   2.998  0.00  0.00    +0.006 A 
ATOM     17  C   UNL     1      14.088  -0.981   2.945  0.00  0.00    +0.023 A 
BRANCH  15  18
ATOM     18  C   UNL     1      17.471  -2.115   4.176  0.00  0.00    -0.003 C 
ATOM     19  C   UNL     1      17.851  -3.061   3.035  0.00  0.00    +0.015 C 
ATOM     20  C   UNL     1      19.353  -3.349   3.090  0.00  0.00    -0.010 C 
ATOM     21  C   UNL     1      19.699  -4.001   4.430  0.00  0.00    +0.007 C 
ATOM     22  C   UNL     1      19.319  -3.054   5.571  0.00  0.00    -0.010 C 
ATOM     23  C   UNL     1      17.817  -2.767   5.516  0.00  0.00    +0.015 C 
ATOM     24  C   UNL     1      20.094  -1.744   5.426  0.00  0.00    +0.007 C 
ATOM     25  C   UNL     1      19.748  -1.092   4.086  0.00  0.00    -0.010 C 
ATOM     26  C   UNL     1      20.129  -2.038   2.945  0.00  0.00    +0.007 C 
ATOM     27  C   UNL     1      18.247  -0.804   4.031  0.00  0.00    +0.015 C 
ENDBRANCH  15  18
ENDBRANCH  10  12
ENDBRANCH   5   8
BRANCH   1  28
ATOM     28  C   UNL     1       7.277  -1.029  -0.078  0.00  0.00    +0.022 C 
BRANCH  28  31
ATOM     29  C   UNL     1       3.702  -0.661  -0.042  0.00  0.00    +0.202 A 
ATOM     30  N   UNL     1       4.935  -0.108  -0.059  0.00  0.00    -0.193 NA
ATOM     31  C   UNL     1       5.772  -1.115  -0.063  0.00  0.00    +0.211 A 
ATOM     32  O   UNL     1       5.042  -2.235  -0.058  0.00  0.00    -0.340 OA
ATOM     33  N   UNL     1       3.861  -1.959  -0.046  0.00  0.00    -0.056 NA
BRANCH  29  39
ATOM     34  C   UNL     1       1.208  -0.638  -0.018  0.00  0.00    +0.013 A 
ATOM     35  C   UNL     1       0.009   0.044  -0.006  0.00  0.00    +0.021 A 
ATOM     36  C   UNL     1      -0.002   1.429  -0.005  0.00  0.00    +0.041 A 
ATOM     37  C   UNL     1       1.189   2.135  -0.015  0.00  0.00    +0.021 A 
ATOM     38  C   UNL     1       2.393   1.461  -0.027  0.00  0.00    +0.013 A 
ATOM     39  C   UNL     1       2.409   0.068  -0.029  0.00  0.00    +0.023 A 
ATOM     40 CL   UNL     1      -1.514   2.282   0.003  0.00  0.00    -0.084 Cl
ENDBRANCH  29  39
ENDBRANCH  28  31
ENDBRANCH   1  28
TORSDOF 6
