REMARK  Name = ZINC67599716
REMARK  9 active torsions:
REMARK  status: ('A' for Active; 'I' for Inactive)
REMARK    1  A    between atoms: C_1  and  C_2
REMARK    2  A    between atoms: C_3  and  C_13
REMARK    3  A    between atoms: C_5  and  C_7
REMARK    4  A    between atoms: C_13  and  N_14
REMARK    5  A    between atoms: C_15  and  C_17
REMARK    6  A    between atoms: N_19  and  C_20
REMARK    7  A    between atoms: C_23  and  C_26
REMARK    8  A    between atoms: C_26  and  C_27
REMARK    9  A    between atoms: C_26  and  C_28
REMARK                            x       y       z     vdW  Elec       q    Type
REMARK                         _______ _______ _______ _____ _____    ______ ____
ROOT
ATOM      1  N   UNL     1       1.366   0.037  -3.056  0.00  0.00    -0.303 N 
ATOM      2  C   UNL     1       1.600   0.504  -4.298  0.00  0.00    +0.300 C 
ATOM      3  O   UNL     1       0.670   0.760  -5.035  0.00  0.00    -0.265 OA
ATOM      4  H   UNL     1       2.110  -0.167  -2.467  0.00  0.00    +0.150 HD
ENDROOT
BRANCH   2   5
ATOM      5  C   UNL     1       3.003   0.707  -4.769  0.00  0.00    +0.303 C 
ATOM      6  O   UNL     1       3.933   0.451  -4.032  0.00  0.00    -0.265 OA
ATOM      7  N   UNL     1       3.236   1.174  -6.011  0.00  0.00    -0.278 N 
ATOM      8  H   UNL     1       2.497   1.315  -6.623  0.00  0.00    +0.155 HD
BRANCH   7   9
ATOM      9  C   UNL     1       4.543   1.455  -6.418  0.00  0.00    +0.034 A 
ATOM     10  C   UNL     1       4.793   2.526  -7.267  0.00  0.00    +0.023 A 
ATOM     11  C   UNL     1       6.086   2.800  -7.667  0.00  0.00    +0.006 A 
ATOM     12  C   UNL     1       7.131   2.011  -7.223  0.00  0.00    -0.045 A 
ATOM     13  C   UNL     1       6.886   0.944  -6.378  0.00  0.00    +0.006 A 
ATOM     14  C   UNL     1       5.596   0.667  -5.970  0.00  0.00    +0.023 A 
BRANCH  12  15
ATOM     15  C   UNL     1       8.541   2.314  -7.662  0.00  0.00    +0.013 C 
ATOM     16  C   UNL     1       9.405   2.607  -6.434  0.00  0.00    +0.012 C 
ATOM     17  C   UNL     1       9.112   1.108  -8.411  0.00  0.00    +0.012 C 
ENDBRANCH  12  15
ENDBRANCH   7   9
ENDBRANCH   2   5
BRANCH   1  18
ATOM     18  C   UNL     1      -0.010  -0.161  -2.594  0.00  0.00    +0.149 C 
BRANCH  18  21
ATOM     19  C   UNL     1      -0.036   1.498   0.001  0.00  0.00    +0.066 C 
ATOM     20  C   UNL     1      -0.006  -0.009  -0.003  0.00  0.00    +0.051 A 
ATOM     21  C   UNL     1       0.005  -0.687  -1.182  0.00  0.00    +0.030 A 
ATOM     22  S   UNL     1       0.040  -2.375  -0.592  0.00  0.00    -0.070 S 
ATOM     23  C   UNL     1       0.037  -1.994   1.155  0.00  0.00    +0.109 A 
ATOM     24  N   UNL     1       0.016  -0.669   1.131  0.00  0.00    -0.244 NA
BRANCH  23  25
ATOM     25  C   UNL     1       0.058  -2.911   2.315  0.00  0.00    +0.007 A 
ATOM     26  C   UNL     1       0.090  -4.292   2.117  0.00  0.00    +0.010 A 
ATOM     27  C   UNL     1       0.110  -5.142   3.203  0.00  0.00    +0.001 A 
ATOM     28  C   UNL     1       0.097  -4.628   4.488  0.00  0.00    +0.000 A 
ATOM     29  C   UNL     1       0.064  -3.260   4.692  0.00  0.00    +0.001 A 
ATOM     30  C   UNL     1       0.051  -2.399   3.614  0.00  0.00    +0.010 A 
ENDBRANCH  23  25
ENDBRANCH  18  21
ENDBRANCH   1  18
TORSDOF 6
