REMARK  Name = ZINC12665128
REMARK  9 active torsions:
REMARK  status: ('A' for Active; 'I' for Inactive)
REMARK    1  A    between atoms: C_1  and  C_2
REMARK    2  A    between atoms: C_2  and  C_3
REMARK    3  A    between atoms: C_3  and  N_4
REMARK    4  A    between atoms: C_8  and  S_33
REMARK    5  A    between atoms: N_13  and  C_14
REMARK    6  A    between atoms: C_14  and  C_16
REMARK    7  A    between atoms: N_21  and  S_23
REMARK    8  A    between atoms: S_23  and  C_26
REMARK    9  A    between atoms: S_33  and  C_34
REMARK                            x       y       z     vdW  Elec       q    Type
REMARK                         _______ _______ _______ _____ _____    ______ ____
ROOT
ATOM      1  C   UNL     1       2.351   3.652  -3.279  0.00  0.00    +0.243 C 
ATOM      2  O   UNL     1       2.816   3.120  -4.268  0.00  0.00    -0.273 OA
ENDROOT
BRANCH   1  12
ATOM      3  N   UNL     1      -0.067   1.120  -2.437  0.00  0.00    -0.321 N 
ATOM      4  C   UNL     1      -0.423  -0.092  -3.004  0.00  0.00    +0.058 A 
ATOM      5  C   UNL     1      -1.405  -0.998  -2.575  0.00  0.00    +0.028 A 
ATOM      6  C   UNL     1      -1.633  -2.167  -3.260  0.00  0.00    +0.017 A 
ATOM      7  C   UNL     1      -0.900  -2.489  -4.398  0.00  0.00    +0.009 A 
ATOM      8  C   UNL     1       0.078  -1.607  -4.843  0.00  0.00    +0.032 A 
ATOM      9  C   UNL     1       0.302  -0.439  -4.154  0.00  0.00    +0.040 A 
ATOM     10  S   UNL     1       1.415   0.928  -4.363  0.00  0.00    -0.052 S 
ATOM     11  C   UNL     1       0.913   1.874  -2.999  0.00  0.00    +0.166 A 
ATOM     12  N   UNL     1       1.379   3.055  -2.598  0.00  0.00    -0.156 NA
BRANCH   7  13
ATOM     13  S   UNL     1      -1.208  -3.993  -5.263  0.00  0.00    -0.129 S 
ATOM     14  C   UNL     1      -2.541  -4.779  -4.316  0.00  0.00    +0.090 C 
ENDBRANCH   7  13
BRANCH   3  15
ATOM     15  C   UNL     1      -0.753   1.593  -1.232  0.00  0.00    +0.124 C 
BRANCH  15  17
ATOM     16  C   UNL     1      -0.729   1.579   1.267  0.00  0.00    +0.005 C 
ATOM     17  C   UNL     1      -0.013   1.086   0.008  0.00  0.00    +0.018 C 
ENDBRANCH  15  17
ENDBRANCH   3  15
ENDBRANCH   1  12
BRANCH   1  18
ATOM     18  C   UNL     1       2.878   4.989  -2.825  0.00  0.00    +0.093 C 
ATOM     19  C   UNL     1       3.445   4.861  -1.409  0.00  0.00    +0.015 C 
ATOM     20  C   UNL     1       3.950   6.225  -0.934  0.00  0.00    +0.018 C 
ATOM     21  C   UNL     1       5.072   6.701  -1.863  0.00  0.00    +0.109 C 
ATOM     22  N   UNL     1       4.577   6.689  -3.247  0.00  0.00    -0.176 NA
ATOM     23  C   UNL     1       3.987   5.452  -3.775  0.00  0.00    +0.122 C 
BRANCH  22  24
ATOM     24  S   UNL     1       4.683   8.044  -4.193  0.00  0.00    +0.061 S 
ATOM     25  O   UNL     1       3.679   7.922  -5.190  0.00  0.00    -0.153 OA
ATOM     26  O   UNL     1       4.747   9.153  -3.307  0.00  0.00    -0.153 OA
BRANCH  24  27
ATOM     27  C   UNL     1       6.233   7.976  -5.028  0.00  0.00    +0.106 A 
ATOM     28  C   UNL     1       7.353   8.546  -4.453  0.00  0.00    +0.031 A 
ATOM     29  C   UNL     1       8.571   8.489  -5.104  0.00  0.00    +0.040 A 
ATOM     30  C   UNL     1       8.666   7.870  -6.339  0.00  0.00    +0.124 A 
ATOM     31  C   UNL     1       7.542   7.304  -6.917  0.00  0.00    +0.040 A 
ATOM     32  C   UNL     1       6.327   7.358  -6.261  0.00  0.00    +0.031 A 
ATOM     33  F   UNL     1       9.854   7.819  -6.980  0.00  0.00    -0.205 F 
ENDBRANCH  24  27
ENDBRANCH  22  24
ENDBRANCH   1  18
TORSDOF 7
