REMARK  Name = ZINC20355322
REMARK  11 active torsions:
REMARK  status: ('A' for Active; 'I' for Inactive)
REMARK    1  A    between atoms: C_1  and  C_2
REMARK    2  A    between atoms: C_6  and  C_8
REMARK    3  A    between atoms: C_8  and  N_9
REMARK    4  A    between atoms: C_18  and  C_19
REMARK    5  A    between atoms: C_22  and  C_25
REMARK    6  A    between atoms: N_27  and  C_28
REMARK    7  A    between atoms: C_28  and  C_29
REMARK    8  A    between atoms: C_29  and  C_30
REMARK    9  A    between atoms: C_30  and  N_31
REMARK   10  A    between atoms: C_33  and  C_40
REMARK   11  A    between atoms: C_36  and  C_39
REMARK                            x       y       z     vdW  Elec       q    Type
REMARK                         _______ _______ _______ _____ _____    ______ ____
ROOT
ATOM      1  C   UNL     1      -8.450  -1.547   6.184  0.00  0.00    -0.021 A 
ATOM      2  C   UNL     1      -7.994  -0.600   7.109  0.00  0.00    +0.009 A 
ATOM      3  C   UNL     1      -6.701  -0.165   7.058  0.00  0.00    +0.013 A 
ATOM      4  C   UNL     1      -5.832  -0.664   6.084  0.00  0.00    +0.037 A 
ATOM      5  C   UNL     1      -6.287  -1.605   5.156  0.00  0.00    +0.013 A 
ATOM      6  C   UNL     1      -7.578  -2.047   5.208  0.00  0.00    +0.009 A 
ENDROOT
BRANCH   1  16
ATOM      7  N   UNL     1     -10.385  -2.591   2.692  0.00  0.00    -0.257 N 
ATOM      8  C   UNL     1     -11.308  -3.627   2.883  0.00  0.00    +0.079 A 
ATOM      9  C   UNL     1     -11.552  -4.535   1.863  0.00  0.00    +0.027 A 
ATOM     10  C   UNL     1     -12.461  -5.558   2.054  0.00  0.00    +0.002 A 
ATOM     11  C   UNL     1     -13.129  -5.680   3.259  0.00  0.00    +0.004 A 
ATOM     12  C   UNL     1     -12.892  -4.779   4.280  0.00  0.00    +0.048 A 
ATOM     13  C   UNL     1     -11.982  -3.751   4.097  0.00  0.00    +0.150 A 
ATOM     14  O   UNL     1     -11.746  -2.860   5.099  0.00  0.00    -0.449 OA
ATOM     15  C   UNL     1     -10.517  -2.260   5.090  0.00  0.00    +0.191 C 
ATOM     16  C   UNL     1      -9.842  -2.017   6.236  0.00  0.00    +0.059 C 
ATOM     17  C   UNL     1      -9.961  -1.884   3.771  0.00  0.00    +0.287 C 
ATOM     18  O   UNL     1      -9.155  -0.980   3.659  0.00  0.00    -0.266 OA
BRANCH   7  19
ATOM     19  C   UNL     1      -9.888  -2.272   1.351  0.00  0.00    +0.149 C 
BRANCH  19  25
ATOM     20  C   UNL     1     -13.885  -1.140  -1.440  0.00  0.00    +0.044 C 
ATOM     21  C   UNL     1     -12.698  -0.702  -0.621  0.00  0.00    -0.050 A 
ATOM     22  C   UNL     1     -12.434   0.645  -0.454  0.00  0.00    +0.003 A 
ATOM     23  C   UNL     1     -11.346   1.048   0.298  0.00  0.00    +0.001 A 
ATOM     24  C   UNL     1     -10.522   0.103   0.881  0.00  0.00    +0.005 A 
ATOM     25  C   UNL     1     -10.787  -1.243   0.715  0.00  0.00    -0.029 A 
ATOM     26  C   UNL     1     -11.872  -1.645  -0.041  0.00  0.00    +0.008 A 
ENDBRANCH  19  25
ENDBRANCH   7  19
ENDBRANCH   1  16
BRANCH   4  27
ATOM     27  C   UNL     1      -4.434  -0.191   6.030  0.00  0.00    +0.244 C 
ATOM     28  O   UNL     1      -4.039   0.631   6.833  0.00  0.00    -0.270 OA
ATOM     29  N   UNL     1      -3.595  -0.672   5.090  0.00  0.00    -0.311 N 
ATOM     30  H   UNL     1      -3.953  -1.417   4.364  0.00  0.00    +0.149 HD
BRANCH  29  31
ATOM     31  C   UNL     1      -2.208  -0.204   5.037  0.00  0.00    +0.102 C 
BRANCH  31  32
ATOM     32  C   UNL     1      -1.478  -0.901   3.888  0.00  0.00    +0.000 C 
BRANCH  32  33
ATOM     33  C   UNL     1      -0.029  -0.412   3.832  0.00  0.00    -0.077 C 
BRANCH  33  34
ATOM     34  N   UNL     1       0.672  -1.082   2.729  0.00  0.00    +0.380 N 
ATOM     35  C   UNL     1       0.113  -0.683   1.431  0.00  0.00    -0.076 C 
ATOM     36  C   UNL     1       0.766  -1.506   0.318  0.00  0.00    -0.031 C 
ATOM     37  C   UNL     1       2.279  -1.271   0.337  0.00  0.00    +0.003 C 
ATOM     38  C   UNL     1       2.829  -1.648   1.715  0.00  0.00    -0.031 C 
ATOM     39  C   UNL     1       2.116  -0.821   2.788  0.00  0.00    -0.076 C 
ATOM     40  C   UNL     1       4.330  -1.360   1.763  0.00  0.00    +0.005 C 
ATOM     41  C   UNL     1       0.477  -2.991   0.544  0.00  0.00    +0.005 C 
ATOM     42  H   UNL     1       0.522  -2.166   2.840  0.00  0.00    -0.082 HD
ENDBRANCH  33  34
ENDBRANCH  32  33
ENDBRANCH  31  32
ENDBRANCH  29  31
ENDBRANCH   4  27
TORSDOF 8
