REMARK  Name = ZINC01132883
REMARK  4 active torsions:
REMARK  status: ('A' for Active; 'I' for Inactive)
REMARK    1  A    between atoms: C_4  and  N_8
REMARK    2  A    between atoms: C_9  and  C_11
REMARK    3  A    between atoms: C_11  and  C_12
REMARK    4  A    between atoms: C_12  and  N_13
REMARK                            x       y       z     vdW  Elec       q    Type
REMARK                         _______ _______ _______ _____ _____    ______ ____
ROOT
ATOM      1  C   UNL     1       4.963  -2.722   0.155  0.00  0.00    +0.115 C 
ENDROOT
BRANCH   1   3
ATOM      2  N   UNL     1       3.623  -0.652  -0.036  0.00  0.00    -0.284 N 
ATOM      3  C   UNL     1       3.646  -1.996   0.058  0.00  0.00    +0.219 C 
ATOM      4  O   UNL     1       2.607  -2.622   0.065  0.00  0.00    -0.275 OA
ATOM      5  H   UNL     1       4.453  -0.157  -0.123  0.00  0.00    +0.155 HD
BRANCH   2   9
ATOM      6  C   UNL     1      -0.015   1.381   0.042  0.00  0.00    +0.021 A 
ATOM      7  C   UNL     1       1.083   1.956  -0.572  0.00  0.00    +0.023 A 
ATOM      8  C   UNL     1       2.290   1.284  -0.600  0.00  0.00    +0.062 A 
ATOM      9  C   UNL     1       2.401   0.031  -0.009  0.00  0.00    +0.053 A 
ATOM     10  C   UNL     1       1.297  -0.543   0.606  0.00  0.00    +0.044 A 
ATOM     11  C   UNL     1       0.092   0.134   0.630  0.00  0.00    +0.043 A 
ATOM     12 CL   UNL     1      -1.289  -0.583   1.401  0.00  0.00    -0.083 Cl
ATOM     13 CL   UNL     1       3.668   2.006  -1.371  0.00  0.00    -0.082 Cl
ENDBRANCH   2   9
ENDBRANCH   1   3
BRANCH   1  14
ATOM     14  C   UNL     1       4.709  -4.228   0.251  0.00  0.00    +0.125 C 
BRANCH  14  15
ATOM     15  N   UNL     1       5.990  -4.934   0.344  0.00  0.00    -0.241 N 
ATOM     16  C   UNL     1       6.677  -5.362  -0.738  0.00  0.00    +0.226 C 
ATOM     17  O   UNL     1       6.446  -5.097  -1.898  0.00  0.00    -0.275 OA
ATOM     18  C   UNL     1       7.784  -6.233  -0.216  0.00  0.00    +0.091 C 
ATOM     19  C   UNL     1       9.009  -6.348  -1.062  0.00  0.00    +0.041 C 
ATOM     20  C   UNL     1      10.003  -5.254  -0.833  0.00  0.00    -0.011 C 
ATOM     21  C   UNL     1       9.926  -4.421   0.153  0.00  0.00    +0.015 C 
ATOM     22  C   UNL     1       8.830  -4.394   1.161  0.00  0.00    +0.060 C 
ATOM     23  C   UNL     1       8.021  -5.676   1.197  0.00  0.00    +0.093 C 
ATOM     24  C   UNL     1       6.593  -5.209   1.517  0.00  0.00    +0.226 C 
ATOM     25  O   UNL     1       6.100  -5.110   2.620  0.00  0.00    -0.275 OA
ATOM     26 CL   UNL     1      11.195  -3.246   0.314  0.00  0.00    -0.089 Cl
ENDBRANCH  14  15
ENDBRANCH   1  14
TORSDOF 4
