REMARK  Name = ZINC04845064
REMARK  17 active torsions:
REMARK  status: ('A' for Active; 'I' for Inactive)
REMARK    1  A    between atoms: C_1  and  C_2
REMARK    2  A    between atoms: C_2  and  C_3
REMARK    3  A    between atoms: C_7  and  O_9
REMARK    4  A    between atoms: O_9  and  C_10
REMARK    5  A    between atoms: C_10  and  C_11
REMARK    6  A    between atoms: C_11  and  O_12
REMARK    7  A    between atoms: O_12  and  C_13
REMARK    8  A    between atoms: C_13  and  C_14
REMARK    9  A    between atoms: C_14  and  C_15
REMARK   10  A    between atoms: C_15  and  C_16
REMARK   11  A    between atoms: C_15  and  C_21
REMARK   12  A    between atoms: C_16  and  O_18
REMARK   13  A    between atoms: O_18  and  C_19
REMARK   14  A    between atoms: C_19  and  C_20
REMARK   15  A    between atoms: C_21  and  O_23
REMARK   16  A    between atoms: O_23  and  C_24
REMARK   17  A    between atoms: C_24  and  C_25
REMARK                            x       y       z     vdW  Elec       q    Type
REMARK                         _______ _______ _______ _____ _____    ______ ____
ROOT
ATOM      1  C   UNL     1       1.415   3.446   0.007  0.00  0.00    +0.161 C 
ENDROOT
BRANCH   1   2
ATOM      2  O   UNL     1       1.322   2.020   0.000  0.00  0.00    -0.376 OA
BRANCH   2   3
ATOM      3  C   UNL     1      -0.019   1.526   0.010  0.00  0.00    +0.200 C 
BRANCH   3   4
ATOM      4  C   UNL     1       0.002  -0.004   0.002  0.00  0.00    +0.257 C 
BRANCH   4   5
ATOM      5  O   UNL     1       0.590  -0.479   1.215  0.00  0.00    -0.490 OA
BRANCH   5  10
ATOM      6  C   UNL     1       1.340  -3.726   2.675  0.00  0.00    -0.044 A 
ATOM      7  C   UNL     1       0.878  -4.568   1.680  0.00  0.00    +0.004 A 
ATOM      8  C   UNL     1       0.320  -4.042   0.530  0.00  0.00    +0.004 A 
ATOM      9  C   UNL     1       0.217  -2.673   0.374  0.00  0.00    +0.045 A 
ATOM     10  C   UNL     1       0.685  -1.826   1.368  0.00  0.00    +0.121 A 
ATOM     11  C   UNL     1       1.244  -2.357   2.522  0.00  0.00    +0.049 A 
BRANCH   6  13
ATOM     12  C   UNL     1       0.852  -4.519   4.973  0.00  0.00    +0.009 C 
ATOM     13  C   UNL     1       1.948  -4.303   3.928  0.00  0.00    +0.032 C 
ENDBRANCH   6  13
ENDBRANCH   5  10
ENDBRANCH   4   5
ENDBRANCH   3   4
ENDBRANCH   2   3
ENDBRANCH   1   2
BRANCH   1  14
ATOM     14  C   UNL     1       2.888   3.861  -0.005  0.00  0.00    +0.054 C 
BRANCH  14  15
ATOM     15  C   UNL     1       2.988   5.388   0.003  0.00  0.00    +0.208 C 
BRANCH  15  16
ATOM     16  C   UNL     1       2.434   5.921   1.298  0.00  0.00    +0.321 C 
ATOM     17  O   UNL     1       2.004   5.159   2.131  0.00  0.00    -0.250 OA
BRANCH  16  18
ATOM     18  O   UNL     1       2.419   7.244   1.528  0.00  0.00    -0.464 OA
BRANCH  18  19
ATOM     19  C   UNL     1       1.871   7.686   2.798  0.00  0.00    +0.229 C 
ATOM     20  C   UNL     1       1.938   9.213   2.878  0.00  0.00    +0.048 C 
ENDBRANCH  18  19
ENDBRANCH  16  18
ENDBRANCH  15  16
BRANCH  15  21
ATOM     21  C   UNL     1       4.432   5.797  -0.133  0.00  0.00    +0.321 C 
ATOM     22  O   UNL     1       5.293   4.954  -0.226  0.00  0.00    -0.250 OA
BRANCH  21  23
ATOM     23  O   UNL     1       4.762   7.098  -0.150  0.00  0.00    -0.464 OA
BRANCH  23  24
ATOM     24  C   UNL     1       6.172   7.419  -0.284  0.00  0.00    +0.229 C 
ATOM     25  C   UNL     1       6.352   8.938  -0.284  0.00  0.00    +0.048 C 
ENDBRANCH  23  24
ENDBRANCH  21  23
ENDBRANCH  15  21
ENDBRANCH  14  15
ENDBRANCH   1  14
TORSDOF 14
