REMARK  Name = ZINC66215189
REMARK  9 active torsions:
REMARK  status: ('A' for Active; 'I' for Inactive)
REMARK    1  A    between atoms: C_1  and  C_2
REMARK    2  A    between atoms: C_5  and  N_9
REMARK    3  A    between atoms: N_9  and  C_10
REMARK    4  A    between atoms: C_10  and  C_11
REMARK    5  A    between atoms: N_13  and  C_14
REMARK    6  A    between atoms: C_18  and  C_20
REMARK    7  A    between atoms: N_22  and  C_23
REMARK    8  A    between atoms: C_23  and  C_25
REMARK    9  A    between atoms: C_23  and  C_26
REMARK                            x       y       z     vdW  Elec       q    Type
REMARK                         _______ _______ _______ _____ _____    ______ ____
ROOT
ATOM      1  C   UNL     1       0.217  -8.629   1.659  0.00  0.00    +0.034 A 
ATOM      2  C   UNL     1       0.317  -9.026   0.331  0.00  0.00    +0.023 A 
ATOM      3  C   UNL     1       0.422 -10.367   0.011  0.00  0.00    +0.003 A 
ATOM      4  C   UNL     1       0.429 -11.320   1.010  0.00  0.00    +0.013 A 
ATOM      5  C   UNL     1       0.329 -10.931   2.346  0.00  0.00    +0.038 A 
ATOM      6  C   UNL     1       0.229  -9.578   2.669  0.00  0.00    +0.036 A 
ENDROOT
BRANCH   1   9
ATOM      7  C   UNL     1       0.695  -6.791   3.092  0.00  0.00    +0.234 C 
ATOM      8  O   UNL     1       1.242  -7.550   3.864  0.00  0.00    -0.274 OA
ATOM      9  N   UNL     1       0.110  -7.270   1.976  0.00  0.00    -0.284 N 
ATOM     10  H   UNL     1      -0.385  -6.673   1.394  0.00  0.00    +0.155 HD
BRANCH   7  11
ATOM     11  C   UNL     1       0.669  -5.312   3.381  0.00  0.00    +0.198 C 
BRANCH  11  12
ATOM     12  N   UNL     1       1.367  -5.049   4.642  0.00  0.00    -0.335 N 
ATOM     13  H   UNL     1       1.754  -5.782   5.145  0.00  0.00    +0.147 HD
BRANCH  12  18
ATOM     14  C   UNL     1       1.804   0.261   6.588  0.00  0.00    +0.045 C 
ATOM     15  C   UNL     1       1.687  -1.150   6.071  0.00  0.00    -0.032 A 
ATOM     16  C   UNL     1       2.239  -2.195   6.788  0.00  0.00    +0.006 A 
ATOM     17  C   UNL     1       2.135  -3.489   6.317  0.00  0.00    +0.023 A 
ATOM     18  C   UNL     1       1.474  -3.741   5.121  0.00  0.00    +0.029 A 
ATOM     19  C   UNL     1       0.920  -2.689   4.402  0.00  0.00    +0.043 A 
ATOM     20  C   UNL     1       1.024  -1.397   4.882  0.00  0.00    +0.046 A 
ATOM     21 CL   UNL     1       0.326  -0.082   3.988  0.00  0.00    -0.083 Cl
ENDBRANCH  12  18
ENDBRANCH  11  12
ENDBRANCH   7  11
ENDBRANCH   1   9
BRANCH   5  22
ATOM     22  C   UNL     1       0.336 -11.951   3.418  0.00  0.00    +0.245 C 
ATOM     23  O   UNL     1       0.249 -11.610   4.581  0.00  0.00    -0.270 OA
ATOM     24  N   UNL     1       0.439 -13.257   3.104  0.00  0.00    -0.305 N 
ATOM     25  H   UNL     1       0.508 -13.529   2.176  0.00  0.00    +0.150 HD
BRANCH  24  26
ATOM     26  C   UNL     1       0.445 -14.267   4.166  0.00  0.00    +0.100 C 
ATOM     27  C   UNL     1       1.869 -14.434   4.701  0.00  0.00    +0.033 C 
BRANCH  26  28
ATOM     28  C   UNL     1      -0.041 -15.582   3.612  0.00  0.00    -0.027 A 
ATOM     29  C   UNL     1       0.354 -15.989   2.351  0.00  0.00    +0.005 A 
ATOM     30  C   UNL     1      -0.092 -17.195   1.843  0.00  0.00    +0.000 A 
ATOM     31  C   UNL     1      -0.932 -17.993   2.595  0.00  0.00    +0.000 A 
ATOM     32  C   UNL     1      -1.327 -17.586   3.856  0.00  0.00    +0.000 A 
ATOM     33  C   UNL     1      -0.877 -16.383   4.366  0.00  0.00    +0.005 A 
ENDBRANCH  26  28
ENDBRANCH  24  26
ENDBRANCH   5  22
TORSDOF 7
