REMARK  Name = ZINC27792225
REMARK  3 active torsions:
REMARK  status: ('A' for Active; 'I' for Inactive)
REMARK    1  A    between atoms: C_6  and  N_7
REMARK    2  A    between atoms: C_11  and  C_14
REMARK    3  A    between atoms: C_14  and  C_15
REMARK                            x       y       z     vdW  Elec       q    Type
REMARK                         _______ _______ _______ _____ _____    ______ ____
ROOT
ATOM      1  N   UNL     1       2.418   3.212  -0.004  0.00  0.00    -0.226 NA
ATOM      2  C   UNL     1       1.749   2.078  -0.004  0.00  0.00    +0.161 C 
ATOM      3  N   UNL     1       2.238   0.811  -0.015  0.00  0.00    -0.264 N 
ATOM      4  C   UNL     1       1.507  -0.237  -0.014  0.00  0.00    +0.232 C 
ATOM      5  C   UNL     1       0.002  -0.004   0.002  0.00  0.00    +0.149 C 
ATOM      6  S   UNL     1      -0.023   1.834   0.012  0.00  0.00    -0.077 S 
ATOM      7  O   UNL     1       2.035  -1.474  -0.025  0.00  0.00    -0.274 OA
ATOM      8  H   UNL     1       3.325   0.641  -0.026  0.00  0.00    +0.157 HD
ENDROOT
BRANCH   1  14
ATOM      9  C   UNL     1       4.487   2.339   0.830  0.00  0.00    +0.031 A 
ATOM     10  C   UNL     1       5.867   2.327   0.809  0.00  0.00    +0.042 A 
ATOM     11  C   UNL     1       6.557   3.173  -0.042  0.00  0.00    +0.142 A 
ATOM     12  C   UNL     1       5.867   4.034  -0.882  0.00  0.00    +0.078 A 
ATOM     13  C   UNL     1       4.487   4.051  -0.874  0.00  0.00    +0.050 A 
ATOM     14  C   UNL     1       3.786   3.200  -0.017  0.00  0.00    +0.068 A 
ATOM     15 CL   UNL     1       6.740   5.092  -1.946  0.00  0.00    -0.081 Cl
ATOM     16  F   UNL     1       7.908   3.161  -0.053  0.00  0.00    -0.204 F 
ENDBRANCH   1  14
BRANCH   5  17
ATOM     17  C   UNL     1      -0.663  -0.564  -1.257  0.00  0.00    +0.119 C 
BRANCH  17  18
ATOM     18  C   UNL     1      -2.135  -0.239  -1.234  0.00  0.00    +0.212 C 
ATOM     19  O   UNL     1      -2.605   0.380  -0.303  0.00  0.00    -0.276 OA
ATOM     20  N   UNL     1      -2.928  -0.635  -2.249  0.00  0.00    -0.329 N 
ATOM     21  H   UNL     1      -4.002  -0.398  -2.233  0.00  0.00    +0.145 HD
ATOM     22  H   UNL     1      -2.502  -1.196  -3.094  0.00  0.00    +0.145 HD
ENDBRANCH  17  18
ENDBRANCH   5  17
TORSDOF 3
