REMARK  Name = ZINC39479722
REMARK  4 active torsions:
REMARK  status: ('A' for Active; 'I' for Inactive)
REMARK    1  A    between atoms: C_1  and  N_2
REMARK    2  A    between atoms: C_6  and  O_10
REMARK    3  A    between atoms: C_12  and  C_21
REMARK    4  A    between atoms: C_26  and  O_27
REMARK                            x       y       z     vdW  Elec       q    Type
REMARK                         _______ _______ _______ _____ _____    ______ ____
ROOT
ATOM      1  C   UNL     1       0.309   1.491   0.088  0.00  0.00    +0.137 C 
ATOM      2  N   UNL     1       0.364   0.027   0.072  0.00  0.00    -0.284 N 
ATOM      3  C   UNL     1      -0.866  -0.585  -0.019  0.00  0.00    +0.074 A 
ATOM      4  C   UNL     1      -1.910   0.136   0.525  0.00  0.00    -0.014 A 
ATOM      5  C   UNL     1      -3.195   0.040   0.126  0.00  0.00    +0.051 A 
ATOM      6  C   UNL     1      -3.512  -1.080  -0.657  0.00  0.00    +0.120 A 
ATOM      7  C   UNL     1      -2.518  -1.997  -0.976  0.00  0.00    +0.085 A 
ATOM      8  C   UNL     1      -1.185  -1.765  -0.666  0.00  0.00    +0.148 A 
ATOM      9  F   UNL     1      -0.229  -2.664  -0.987  0.00  0.00    -0.203 F 
ATOM     10  C   UNL     1      -1.554   0.607   1.963  0.00  0.00    +0.093 C 
ATOM     11  C   UNL     1      -0.168   0.005   2.140  0.00  0.00    +0.057 C 
ATOM     12  N   UNL     1       0.980   0.604   2.069  0.00  0.00    -0.245 NA
ATOM     13  C   UNL     1       2.006  -0.098   1.521  0.00  0.00    +0.141 A 
ATOM     14  C   UNL     1       1.624  -0.488   0.143  0.00  0.00    +0.156 A 
ATOM     15  N   UNL     1       2.454  -1.143  -0.576  0.00  0.00    -0.218 NA
ATOM     16  C   UNL     1       3.646  -1.483  -0.095  0.00  0.00    +0.225 A 
ATOM     17  N   UNL     1       4.030  -1.168   1.127  0.00  0.00    -0.222 NA
ATOM     18  C   UNL     1       3.233  -0.479   1.965  0.00  0.00    +0.160 A 
ATOM     19 CL   UNL     1       3.757  -0.078   3.571  0.00  0.00    -0.060 Cl
ENDROOT
BRANCH  11  20
ATOM     20  C   UNL     1      -0.125  -1.436   2.428  0.00  0.00    +0.038 A 
ATOM     21  C   UNL     1       0.377  -2.329   1.475  0.00  0.00    +0.013 A 
ATOM     22  C   UNL     1       0.415  -3.678   1.752  0.00  0.00    +0.001 A 
ATOM     23  C   UNL     1      -0.042  -4.155   2.970  0.00  0.00    +0.004 A 
ATOM     24  C   UNL     1      -0.540  -3.285   3.919  0.00  0.00    +0.046 A 
ATOM     25  C   UNL     1      -0.581  -1.924   3.662  0.00  0.00    +0.126 A 
BRANCH  25  26
ATOM     26  O   UNL     1      -1.065  -1.067   4.596  0.00  0.00    -0.506 OA
ATOM     27  H   UNL     1      -2.028  -0.977   4.586  0.00  0.00    +0.292 HD
ENDBRANCH  25  26
ENDBRANCH  11  20
BRANCH   6  28
ATOM     28  O   UNL     1      -4.783  -1.267  -1.102  0.00  0.00    -0.507 OA
ATOM     29  H   UNL     1      -4.963  -0.863  -1.962  0.00  0.00    +0.292 HD
ENDBRANCH   6  28
TORSDOF 3
