REMARK  Name = ZINC43741008
REMARK  7 active torsions:
REMARK  status: ('A' for Active; 'I' for Inactive)
REMARK    1  A    between atoms: C_1  and  C_2
REMARK    2  A    between atoms: C_16  and  C_35
REMARK    3  A    between atoms: C_21  and  C_22
REMARK    4  A    between atoms: C_21  and  O_34
REMARK    5  A    between atoms: C_22  and  N_23
REMARK    6  A    between atoms: C_24  and  C_25
REMARK    7  A    between atoms: C_30  and  O_31
REMARK                            x       y       z     vdW  Elec       q    Type
REMARK                         _______ _______ _______ _____ _____    ______ ____
ROOT
ATOM      1  C   UNL     1      -0.022   1.546  -0.039  0.00  0.00    +0.016 C 
ATOM      2  C   UNL     1       0.002   0.009  -0.043  0.00  0.00    -0.008 C 
ATOM      3  C   UNL     1       0.767  -0.434  -1.287  0.00  0.00    +0.016 C 
ATOM      4  C   UNL     1       2.232  -0.001  -1.222  0.00  0.00    +0.066 C 
ATOM      5  C   UNL     1       2.900  -0.630   0.001  0.00  0.00    +0.174 C 
ATOM      6  C   UNL     1       2.234  -0.100   1.274  0.00  0.00    +0.096 C 
ATOM      7  C   UNL     1       0.749  -0.416   1.186  0.00  0.00    -0.062 C 
ATOM      8  C   UNL     1       0.208  -1.041   2.191  0.00  0.00    -0.027 C 
ATOM      9  C   UNL     1      -1.247  -1.401   2.218  0.00  0.00    +0.031 C 
ATOM     10  C   UNL     1      -1.738  -1.652   0.794  0.00  0.00    +0.000 C 
ATOM     11  C   UNL     1      -1.446  -0.435  -0.086  0.00  0.00    +0.003 C 
ATOM     12  C   UNL     1      -1.926  -0.660  -1.515  0.00  0.00    +0.005 C 
ATOM     13  C   UNL     1      -1.490  -1.986  -2.137  0.00  0.00    +0.010 C 
ATOM     14  C   UNL     1      -1.750  -3.138  -1.195  0.00  0.00    +0.001 C 
ATOM     15  C   UNL     1      -1.064  -2.842   0.162  0.00  0.00    +0.001 C 
ATOM     16  C   UNL     1      -1.187  -4.185   0.888  0.00  0.00    +0.007 C 
ATOM     17  C   UNL     1      -0.902  -5.218  -0.236  0.00  0.00    +0.037 C 
ATOM     18  C   UNL     1      -1.120  -4.481  -1.581  0.00  0.00    +0.089 C 
ATOM     19  C   UNL     1      -3.256  -3.352  -1.036  0.00  0.00    +0.014 C 
ATOM     20  O   UNL     1       4.298  -0.306   0.014  0.00  0.00    -0.346 OA
ATOM     21  C   UNL     1       4.952  -1.495   0.517  0.00  0.00    +0.191 C 
ATOM     22  C   UNL     1       4.078  -2.620  -0.091  0.00  0.00    +0.191 C 
ATOM     23  O   UNL     1       2.752  -2.055  -0.054  0.00  0.00    -0.346 OA
ENDROOT
BRANCH  18  24
ATOM     24  O   UNL     1       0.126  -4.272  -2.244  0.00  0.00    -0.386 OA
ATOM     25  H   UNL     1       0.570  -5.088  -2.513  0.00  0.00    +0.210 HD
ENDBRANCH  18  24
BRANCH  18  26
ATOM     26  C   UNL     1      -2.078  -5.271  -2.474  0.00  0.00    +0.147 C 
BRANCH  26  27
ATOM     27  N   UNL     1      -1.517  -6.598  -2.738  0.00  0.00    -0.387 N 
ATOM     28  C   UNL     1      -2.117  -7.655  -2.293  0.00  0.00    +0.090 C 
ATOM     29  H   UNL     1      -0.695  -6.685  -3.247  0.00  0.00    +0.159 HD
BRANCH  28  30
ATOM     30  C   UNL     1      -1.615  -8.994  -2.652  0.00  0.00    +0.035 A 
ATOM     31  C   UNL     1      -2.326 -10.135  -2.271  0.00  0.00    +0.033 A 
ATOM     32  C   UNL     1      -1.851 -11.385  -2.610  0.00  0.00    +0.043 A 
ATOM     33  C   UNL     1      -0.672 -11.514  -3.326  0.00  0.00    +0.043 A 
ATOM     34  C   UNL     1       0.040 -10.393  -3.709  0.00  0.00    +0.084 A 
ATOM     35  C   UNL     1      -0.427  -9.128  -3.381  0.00  0.00    +0.144 A 
ATOM     36 CL   UNL     1       1.516 -10.567  -4.606  0.00  0.00    -0.080 Cl
ATOM     37 CL   UNL     1      -2.734 -12.803  -2.135  0.00  0.00    -0.083 Cl
BRANCH  35  38
ATOM     38  O   UNL     1       0.268  -8.026  -3.761  0.00  0.00    -0.505 OA
ATOM     39  H   UNL     1       0.929  -7.736  -3.117  0.00  0.00    +0.292 HD
ENDBRANCH  35  38
ENDBRANCH  28  30
ENDBRANCH  26  27
ENDBRANCH  18  26
TORSDOF 5
