REMARK  Name = ZINC08898275
REMARK  6 active torsions:
REMARK  status: ('A' for Active; 'I' for Inactive)
REMARK    1  A    between atoms: C_1  and  N_2
REMARK    2  A    between atoms: C_5  and  S_16
REMARK    3  A    between atoms: C_7  and  C_9
REMARK    4  A    between atoms: S_16  and  C_17
REMARK    5  A    between atoms: C_17  and  C_18
REMARK    6  A    between atoms: N_27  and  C_30
REMARK                            x       y       z     vdW  Elec       q    Type
REMARK                         _______ _______ _______ _____ _____    ______ ____
ROOT
ATOM      1  C   UNL     1      -2.325  -0.015   4.125  0.00  0.00    +0.155 C 
ATOM      2  N   UNL     1      -1.824   1.020   3.217  0.00  0.00    -0.281 N 
ATOM      3  C   UNL     1      -2.013   2.350   3.527  0.00  0.00    +0.154 A 
ATOM      4  C   UNL     1      -1.522   3.328   2.639  0.00  0.00    +0.114 A 
ATOM      5  C   UNL     1      -1.713   4.684   2.950  0.00  0.00    +0.116 A 
ATOM      6  N   UNL     1      -2.353   4.985   4.079  0.00  0.00    -0.220 NA
ATOM      7  C   UNL     1      -2.799   4.033   4.887  0.00  0.00    +0.163 A 
ATOM      8  N   UNL     1      -2.638   2.740   4.626  0.00  0.00    -0.209 NA
ATOM      9  C   UNL     1      -0.826   2.887   1.427  0.00  0.00    +0.268 A 
ATOM     10  O   UNL     1      -0.380   3.694   0.633  0.00  0.00    -0.267 OA
ATOM     11  N   UNL     1      -0.698   1.558   1.213  0.00  0.00    -0.263 N 
ATOM     12  C   UNL     1      -1.184   0.664   2.089  0.00  0.00    +0.333 A 
ATOM     13  O   UNL     1      -1.038  -0.519   1.852  0.00  0.00    -0.246 OA
ATOM     14  C   UNL     1      -0.013   1.086   0.008  0.00  0.00    +0.157 C 
ENDROOT
BRANCH   7  15
ATOM     15  C   UNL     1      -3.505   4.426   6.129  0.00  0.00    +0.019 A 
ATOM     16  C   UNL     1      -3.992   3.449   6.997  0.00  0.00    +0.013 A 
ATOM     17  C   UNL     1      -4.644   3.820   8.154  0.00  0.00    +0.021 A 
ATOM     18  C   UNL     1      -4.826   5.161   8.449  0.00  0.00    +0.041 A 
ATOM     19  C   UNL     1      -4.349   6.135   7.589  0.00  0.00    +0.021 A 
ATOM     20  C   UNL     1      -3.691   5.775   6.431  0.00  0.00    +0.013 A 
ATOM     21 CL   UNL     1      -5.654   5.621   9.904  0.00  0.00    -0.084 Cl
ENDBRANCH   7  15
BRANCH   5  22
ATOM     22  S   UNL     1      -1.122   5.951   1.878  0.00  0.00    -0.100 S 
BRANCH  22  23
ATOM     23  C   UNL     1      -1.657   7.416   2.798  0.00  0.00    +0.111 C 
BRANCH  23  24
ATOM     24  C   UNL     1      -1.248   8.657   2.048  0.00  0.00    -0.037 A 
ATOM     25  C   UNL     1      -0.020   9.241   2.297  0.00  0.00    +0.006 A 
ATOM     26  C   UNL     1       0.358  10.377   1.605  0.00  0.00    +0.020 A 
ATOM     27  C   UNL     1      -0.497  10.935   0.672  0.00  0.00    +0.041 A 
ATOM     28  C   UNL     1      -1.728  10.353   0.428  0.00  0.00    +0.020 A 
ATOM     29  C   UNL     1      -2.103   9.214   1.116  0.00  0.00    +0.006 A 
ATOM     30 CL   UNL     1      -0.025  12.365  -0.192  0.00  0.00    -0.084 Cl
ENDBRANCH  23  24
ENDBRANCH  22  23
ENDBRANCH   5  22
TORSDOF 4
