REMARK  Name = ZINC62613480
REMARK  9 active torsions:
REMARK  status: ('A' for Active; 'I' for Inactive)
REMARK    1  A    between atoms: C_1  and  C_2
REMARK    2  A    between atoms: C_7  and  N_8
REMARK    3  A    between atoms: C_9  and  C_11
REMARK    4  A    between atoms: C_11  and  N_12
REMARK    5  A    between atoms: N_15  and  C_16
REMARK    6  A    between atoms: C_16  and  C_17
REMARK    7  A    between atoms: C_17  and  C_18
REMARK    8  A    between atoms: C_21  and  S_23
REMARK    9  A    between atoms: S_23  and  N_26
REMARK                            x       y       z     vdW  Elec       q    Type
REMARK                         _______ _______ _______ _____ _____    ______ ____
ROOT
ATOM      1  N   UNL     1      -0.241  -0.904   5.989  0.00  0.00    -0.291 N 
ATOM      2  C   UNL     1      -0.346  -0.461   7.257  0.00  0.00    +0.300 C 
ATOM      3  O   UNL     1      -0.379   0.734   7.483  0.00  0.00    -0.253 OA
ATOM      4  N   UNL     1      -0.414  -1.341   8.275  0.00  0.00    -0.299 N 
ATOM      5  H   UNL     1      -0.215  -1.857   5.808  0.00  0.00    +0.151 HD
ATOM      6  H   UNL     1      -0.387  -2.294   8.095  0.00  0.00    +0.150 HD
ENDROOT
BRANCH   1   7
ATOM      7  C   UNL     1      -0.168   0.053   4.882  0.00  0.00    +0.202 C 
BRANCH   7   9
ATOM      8  N   UNL     1       0.025  -0.014   2.417  0.00  0.00    -0.284 N 
ATOM      9  C   UNL     1      -0.056  -0.694   3.578  0.00  0.00    +0.234 C 
ATOM     10  O   UNL     1      -0.040  -1.906   3.574  0.00  0.00    -0.274 OA
ATOM     11  H   UNL     1       0.078   0.954   2.425  0.00  0.00    +0.155 HD
BRANCH   8  18
ATOM     12  C   UNL     1      -1.264   1.184   0.181  0.00  0.00    +0.045 C 
ATOM     13  C   UNL     1      -0.584  -0.158   0.084  0.00  0.00    -0.029 A 
ATOM     14  C   UNL     1      -0.569  -0.840  -1.117  0.00  0.00    +0.006 A 
ATOM     15  C   UNL     1       0.055  -2.070  -1.207  0.00  0.00    +0.015 A 
ATOM     16  C   UNL     1       0.667  -2.622  -0.095  0.00  0.00    +0.020 A 
ATOM     17  C   UNL     1       0.655  -1.944   1.109  0.00  0.00    +0.038 A 
ATOM     18  C   UNL     1       0.034  -0.706   1.201  0.00  0.00    +0.037 A 
ATOM     19 BR   UNL     1       1.518  -4.306  -0.223  0.00  0.00    -0.050 Br
ENDBRANCH   8  18
ENDBRANCH   7   9
ENDBRANCH   1   7
BRANCH   4  20
ATOM     20  C   UNL     1      -0.527  -0.860   9.654  0.00  0.00    +0.111 C 
BRANCH  20  21
ATOM     21  C   UNL     1      -0.586  -2.054  10.608  0.00  0.00    +0.061 C 
BRANCH  21  22
ATOM     22  C   UNL     1      -0.703  -1.559  12.027  0.00  0.00    -0.007 A 
ATOM     23  C   UNL     1      -1.819  -1.297  12.750  0.00  0.00    +0.013 A 
ATOM     24  C   UNL     1      -1.685  -0.846  14.050  0.00  0.00    +0.036 A 
ATOM     25  C   UNL     1      -0.441  -0.679  14.563  0.00  0.00    +0.142 A 
ATOM     26  S   UNL     1       0.592  -1.172  13.193  0.00  0.00    -0.073 S 
BRANCH  25  27
ATOM     27  S   UNL     1       0.032  -0.124  16.167  0.00  0.00    +0.062 S 
ATOM     28  O   UNL     1       1.345   0.404  16.043  0.00  0.00    -0.153 OA
ATOM     29  O   UNL     1      -1.053   0.643  16.668  0.00  0.00    -0.153 OA
BRANCH  27  30
ATOM     30  N   UNL     1       0.151  -1.464  17.132  0.00  0.00    -0.203 NA
ATOM     31  H   UNL     1      -0.032  -2.344  16.766  0.00  0.00    +0.144 HD
ATOM     32  H   UNL     1       0.403  -1.370  18.064  0.00  0.00    +0.144 HD
ENDBRANCH  27  30
ENDBRANCH  25  27
ENDBRANCH  21  22
ENDBRANCH  20  21
ENDBRANCH   4  20
TORSDOF 8
