REMARK  Name = ZINC11933955
REMARK  6 active torsions:
REMARK  status: ('A' for Active; 'I' for Inactive)
REMARK    1  A    between atoms: C_4  and  C_7
REMARK    2  A    between atoms: C_10  and  C_13
REMARK    3  A    between atoms: C_14  and  C_19
REMARK    4  A    between atoms: C_19  and  N_50
REMARK    5  A    between atoms: C_20  and  C_21
REMARK    6  A    between atoms: C_20  and  N_50
REMARK                            x       y       z     vdW  Elec       q    Type
REMARK                         _______ _______ _______ _____ _____    ______ ____
ROOT
ATOM      1  C   UNL     1      -3.241   1.383  -0.251  0.00  0.00    +0.094 A 
ATOM      2  C   UNL     1      -2.186   0.947  -1.076  0.00  0.00    -0.019 A 
ATOM      3  C   UNL     1      -2.640  -0.087  -1.817  0.00  0.00    +0.107 A 
ATOM      4  N   UNL     1      -3.931  -0.302  -1.487  0.00  0.00    -0.284 N 
ATOM      5  H   UNL     1      -4.527  -1.005  -1.875  0.00  0.00    +0.188 HD
ATOM      6  N   UNL     1      -4.292   0.632  -0.507  0.00  0.00    -0.174 NA
ENDROOT
BRANCH   1  10
ATOM      7  C   UNL     1      -3.067   4.571   2.563  0.00  0.00    -0.018 A 
ATOM      8  C   UNL     1      -4.242   4.333   1.850  0.00  0.00    +0.009 A 
ATOM      9  C   UNL     1      -4.298   3.301   0.940  0.00  0.00    +0.010 A 
ATOM     10  C   UNL     1      -3.180   2.494   0.730  0.00  0.00    +0.002 A 
ATOM     11  C   UNL     1      -2.007   2.729   1.446  0.00  0.00    +0.010 A 
ATOM     12  C   UNL     1      -1.949   3.764   2.353  0.00  0.00    +0.009 A 
BRANCH   7  16
ATOM     13  C   UNL     1      -2.892   7.757   5.372  0.00  0.00    +0.000 A 
ATOM     14  C   UNL     1      -1.782   6.957   5.167  0.00  0.00    +0.001 A 
ATOM     15  C   UNL     1      -1.833   5.922   4.256  0.00  0.00    +0.008 A 
ATOM     16  C   UNL     1      -3.006   5.682   3.543  0.00  0.00    -0.018 A 
ATOM     17  C   UNL     1      -4.120   6.494   3.750  0.00  0.00    +0.008 A 
ATOM     18  C   UNL     1      -4.059   7.524   4.667  0.00  0.00    +0.001 A 
ENDBRANCH   7  16
ENDBRANCH   1  10
BRANCH   2  19
ATOM     19  C   UNL     1      -0.795   1.527  -1.120  0.00  0.00    -0.043 C 
BRANCH  19  20
ATOM     20  N   UNL     1      -0.015   0.998   0.015  0.00  0.00    +0.386 N 
ATOM     21  H   UNL     1       0.032  -0.025  -0.054  0.00  0.00    -0.085 HD
ATOM     22  H   UNL     1      -0.475   1.261   0.894  0.00  0.00    -0.085 HD
BRANCH  20  23
ATOM     23  C   UNL     1       1.353   1.550  -0.003  0.00  0.00    -0.024 C 
BRANCH  23  24
ATOM     24  C   UNL     1       2.125   0.993   1.166  0.00  0.00    +0.049 A 
ATOM     25  C   UNL     1       2.207   1.564   2.443  0.00  0.00    -0.006 A 
ATOM     26  C   UNL     1       2.987   0.765   3.205  0.00  0.00    +0.039 A 
ATOM     27  N   UNL     1       3.393  -0.270   2.435  0.00  0.00    -0.281 N 
ATOM     28  H   UNL     1       3.985  -1.022   2.725  0.00  0.00    +0.189 HD
ATOM     29  N   UNL     1       2.838  -0.103   1.161  0.00  0.00    -0.180 NA
ATOM     30  C   UNL     1       3.108   1.329   4.604  0.00  0.00    +0.055 C 
ATOM     31  C   UNL     1       1.949   2.343   4.728  0.00  0.00    +0.011 C 
ATOM     32  C   UNL     1       1.714   2.743   3.255  0.00  0.00    +0.039 C 
ENDBRANCH  23  24
ENDBRANCH  20  23
ENDBRANCH  19  20
ENDBRANCH   2  19
TORSDOF 6
