REMARK  Name = ZINC39450065
REMARK  2 active torsions:
REMARK  status: ('A' for Active; 'I' for Inactive)
REMARK    1  A    between atoms: C_1  and  S_2
REMARK    2  A    between atoms: S_2  and  C_3
REMARK                            x       y       z     vdW  Elec       q    Type
REMARK                         _______ _______ _______ _____ _____    ______ ____
ROOT
ATOM      1  C   UNL     1       0.902  -0.439   1.516  0.00  0.00    +0.136 C 
ATOM      2  C   UNL     1       0.161  -1.558   2.255  0.00  0.00    +0.114 C 
ATOM      3  C   UNL     1      -1.139  -1.022   2.796  0.00  0.00    +0.185 C 
ATOM      4  O   UNL     1      -2.091  -1.767   2.920  0.00  0.00    -0.290 OA
ATOM      5  C   UNL     1      -1.262   0.338   3.161  0.00  0.00    +0.120 A 
ATOM      6  C   UNL     1      -0.199   1.200   2.966  0.00  0.00    +0.082 A 
ATOM      7  C   UNL     1      -0.324   2.612   3.352  0.00  0.00    +0.099 A 
ATOM      8  C   UNL     1      -1.547   3.045   3.907  0.00  0.00    +0.068 A 
ATOM      9  C   UNL     1      -1.690   4.382   4.281  0.00  0.00    +0.032 A 
ATOM     10  C   UNL     1      -0.612   5.230   4.087  0.00  0.00    +0.037 A 
ATOM     11  C   UNL     1       0.561   4.732   3.536  0.00  0.00    +0.126 A 
ATOM     12  N   UNL     1       0.677   3.468   3.189  0.00  0.00    -0.252 NA
ATOM     13 BR   UNL     1      -0.737   7.054   4.571  0.00  0.00    -0.049 Br
ATOM     14  C   UNL     1      -2.635   2.072   4.075  0.00  0.00    +0.270 A 
ATOM     15  O   UNL     1      -3.700   2.426   4.550  0.00  0.00    -0.266 OA
ATOM     16  N   UNL     1      -2.457   0.791   3.705  0.00  0.00    -0.243 N 
ATOM     17  I   UNL     1      -3.999  -0.536   3.953  0.00  0.00    +0.068 I 
ATOM     18  N   UNL     1       0.975   0.731   2.404  0.00  0.00    -0.328 N 
ATOM     19  H   UNL     1       1.823   1.162   2.591  0.00  0.00    +0.147 HD
ENDROOT
BRANCH   1  21
ATOM     20  C   UNL     1      -0.022   1.810   0.012  0.00  0.00    +0.086 C 
ATOM     21  S   UNL     1       0.002  -0.004   0.002  0.00  0.00    -0.142 S 
ENDBRANCH   1  21
TORSDOF 1
