REMARK  Name = ZINC39352244
REMARK  2 active torsions:
REMARK  status: ('A' for Active; 'I' for Inactive)
REMARK    1  A    between atoms: C_4  and  C_7
REMARK    2  A    between atoms: N_15  and  C_18
REMARK                            x       y       z     vdW  Elec       q    Type
REMARK                         _______ _______ _______ _____ _____    ______ ____
ROOT
ATOM      1  C   UNL     1       3.378  -0.778  -0.209  0.00  0.00    +0.052 C 
ATOM      2  C   UNL     1       3.737  -1.675  -1.382  0.00  0.00    +0.107 C 
ATOM      3  C   UNL     1       5.159  -2.207  -1.372  0.00  0.00    +0.151 C 
ATOM      4  C   UNL     1       5.902  -1.221  -2.253  0.00  0.00    +0.240 C 
ATOM      5  O   UNL     1       7.102  -1.051  -2.284  0.00  0.00    -0.274 OA
ATOM      6  N   UNL     1       4.988  -0.569  -2.995  0.00  0.00    -0.209 N 
ATOM      7  C   UNL     1       3.691  -0.844  -2.659  0.00  0.00    +0.231 C 
ATOM      8  O   UNL     1       2.691  -0.502  -3.251  0.00  0.00    -0.274 OA
ATOM      9  S   UNL     1       5.967  -2.373   0.215  0.00  0.00    -0.098 S 
ATOM     10  C   UNL     1       4.931  -1.776   1.369  0.00  0.00    +0.082 C 
ATOM     11  N   UNL     1       5.278  -1.439   2.573  0.00  0.00    -0.168 NA
ATOM     12  C   UNL     1       4.468  -0.850   3.471  0.00  0.00    +0.296 C 
ATOM     13  O   UNL     1       4.672  -0.628   4.651  0.00  0.00    -0.261 OA
ATOM     14  S   UNL     1       3.013  -0.473   2.495  0.00  0.00    -0.055 S 
ATOM     15  C   UNL     1       3.450  -1.592   1.084  0.00  0.00    +0.117 C 
ENDROOT
BRANCH   6  16
ATOM     16  C   UNL     1       5.333   0.314  -4.029  0.00  0.00    +0.044 A 
ATOM     17  C   UNL     1       4.348   1.058  -4.664  0.00  0.00    +0.025 A 
ATOM     18  C   UNL     1       4.690   1.926  -5.683  0.00  0.00    +0.022 A 
ATOM     19  C   UNL     1       6.012   2.054  -6.069  0.00  0.00    +0.041 A 
ATOM     20  C   UNL     1       6.995   1.313  -5.438  0.00  0.00    +0.022 A 
ATOM     21  C   UNL     1       6.659   0.448  -4.415  0.00  0.00    +0.025 A 
ATOM     22 CL   UNL     1       6.439   3.147  -7.350  0.00  0.00    -0.084 Cl
ENDBRANCH   6  16
BRANCH   1  26
ATOM     23  C   UNL     1      -0.583   0.733  -0.730  0.00  0.00    +0.000 A 
ATOM     24  C   UNL     1       0.483   1.607  -0.635  0.00  0.00    +0.000 A 
ATOM     25  C   UNL     1       1.765   1.118  -0.467  0.00  0.00    +0.004 A 
ATOM     26  C   UNL     1       1.980  -0.245  -0.392  0.00  0.00    -0.042 A 
ATOM     27  C   UNL     1       0.914  -1.120  -0.486  0.00  0.00    +0.004 A 
ATOM     28  C   UNL     1      -0.368  -0.631  -0.656  0.00  0.00    +0.000 A 
ENDBRANCH   1  26
TORSDOF 2
