REMARK  Name = ZINC58976868
REMARK  4 active torsions:
REMARK  status: ('A' for Active; 'I' for Inactive)
REMARK    1  A    between atoms: C_1  and  C_2
REMARK    2  A    between atoms: C_8  and  C_10
REMARK    3  A    between atoms: C_15  and  O_16
REMARK    4  A    between atoms: O_16  and  C_17
REMARK                            x       y       z     vdW  Elec       q    Type
REMARK                         _______ _______ _______ _____ _____    ______ ____
ROOT
ATOM      1  C   UNL     1       0.127  -5.147   3.112  0.00  0.00    +0.099 A 
ATOM      2  C   UNL     1       0.161  -4.658   4.423  0.00  0.00    +0.020 A 
ATOM      3  C   UNL     1       0.219  -5.568   5.463  0.00  0.00    +0.021 A 
ATOM      4  C   UNL     1       0.242  -6.923   5.181  0.00  0.00    +0.114 A 
ATOM      5  N   UNL     1       0.210  -7.362   3.938  0.00  0.00    -0.220 NA
ATOM      6  C   UNL     1       0.148  -6.535   2.908  0.00  0.00    +0.233 A 
ENDROOT
BRANCH   1  14
ATOM      7  C   UNL     1      -0.130   1.497  -0.008  0.00  0.00    +0.066 C 
ATOM      8  C   UNL     1      -0.100  -0.010  -0.013  0.00  0.00    +0.047 A 
ATOM      9  C   UNL     1      -0.130  -0.715  -1.171  0.00  0.00    +0.071 A 
ATOM     10  S   UNL     1      -0.071  -2.386  -0.544  0.00  0.00    -0.060 S 
ATOM     11  C   UNL     1      -0.016  -2.017   1.097  0.00  0.00    +0.165 A 
ATOM     12  N   UNL     1      -0.037  -0.702   1.109  0.00  0.00    -0.230 NA
ATOM     13  N   UNL     1       0.044  -2.890   2.176  0.00  0.00    -0.261 N 
ATOM     14  C   UNL     1       0.064  -4.221   1.966  0.00  0.00    +0.255 C 
ATOM     15  O   UNL     1       0.029  -4.658   0.832  0.00  0.00    -0.270 OA
ATOM     16  H   UNL     1       0.071  -2.541   3.081  0.00  0.00    +0.157 HD
ENDBRANCH   1  14
BRANCH   6  17
ATOM     17  O   UNL     1       0.110  -7.031   1.648  0.00  0.00    -0.437 OA
BRANCH  17  18
ATOM     18  C   UNL     1       0.233  -8.375   1.487  0.00  0.00    +0.131 A 
ATOM     19  C   UNL     1      -0.845  -9.208   1.750  0.00  0.00    +0.046 A 
ATOM     20  C   UNL     1      -0.718 -10.573   1.586  0.00  0.00    +0.005 A 
ATOM     21  C   UNL     1       0.482 -11.111   1.161  0.00  0.00    +0.015 A 
ATOM     22  C   UNL     1       1.559 -10.284   0.899  0.00  0.00    +0.021 A 
ATOM     23  C   UNL     1       1.435  -8.916   1.055  0.00  0.00    +0.061 A 
ATOM     24 BR   UNL     1       3.200 -11.023   0.318  0.00  0.00    -0.050 Br
ENDBRANCH  17  18
ENDBRANCH   6  17
TORSDOF 3
