REMARK  Name = ZINC04598391
REMARK  4 active torsions:
REMARK  status: ('A' for Active; 'I' for Inactive)
REMARK    1  A    between atoms: C_1  and  C_2
REMARK    2  A    between atoms: C_5  and  N_8
REMARK    3  A    between atoms: C_9  and  C_11
REMARK    4  A    between atoms: C_14  and  N_17
REMARK                            x       y       z     vdW  Elec       q    Type
REMARK                         _______ _______ _______ _____ _____    ______ ____
ROOT
ATOM      1  C   UNL     1       0.307  -6.315   1.122  0.00  0.00    +0.037 A 
ATOM      2  C   UNL     1       0.316  -7.004  -0.097  0.00  0.00    +0.015 A 
ATOM      3  C   UNL     1       0.437  -8.362  -0.112  0.00  0.00    +0.028 A 
ATOM      4  C   UNL     1       0.552  -9.068   1.092  0.00  0.00    +0.067 A 
ATOM      5  C   UNL     1       0.544  -8.379   2.311  0.00  0.00    +0.028 A 
ATOM      6  C   UNL     1       0.428  -7.020   2.325  0.00  0.00    +0.015 A 
ENDROOT
BRANCH   4   7
ATOM      7  N   UNL     1       0.672 -10.426   1.077  0.00  0.00    -0.226 NA
ATOM      8  C   UNL     1       1.569 -11.016   1.840  0.00  0.00    +0.155 C 
ATOM      9  N   UNL     1       2.454 -10.422   2.710  0.00  0.00    -0.318 N 
ATOM     10  C   UNL     1       3.410 -11.260   3.414  0.00  0.00    +0.108 C 
ATOM     11  C   UNL     1       3.731 -10.681   4.805  0.00  0.00    +0.189 C 
ATOM     12  S   UNL     1       2.606 -11.617   5.918  0.00  0.00    -0.028 S 
ATOM     13  O   UNL     1       1.623 -10.729   6.433  0.00  0.00    -0.174 OA
ATOM     14  O   UNL     1       3.387 -12.392   6.817  0.00  0.00    -0.174 OA
ATOM     15  C   UNL     1       1.817 -12.736   4.689  0.00  0.00    +0.182 C 
ATOM     16  C   UNL     1       2.856 -12.708   3.562  0.00  0.00    +0.097 C 
ATOM     17  S   UNL     1       1.900 -12.768   1.983  0.00  0.00    -0.084 S 
ATOM     18  H   UNL     1       2.441  -9.462   2.850  0.00  0.00    +0.148 HD
ENDBRANCH   4   7
BRANCH   1  20
ATOM     19  N   UNL     1       0.059  -4.169  -0.021  0.00  0.00    -0.282 N 
ATOM     20  C   UNL     1       0.176  -4.848   1.138  0.00  0.00    +0.248 C 
ATOM     21  O   UNL     1       0.174  -4.249   2.196  0.00  0.00    -0.270 OA
ATOM     22  H   UNL     1      -0.016  -4.651  -0.860  0.00  0.00    +0.155 HD
BRANCH  19  27
ATOM     23  C   UNL     1       0.006   1.503   0.009  0.00  0.00    +0.044 C 
ATOM     24  C   UNL     1       0.020  -0.004   0.001  0.00  0.00    -0.050 A 
ATOM     25  C   UNL     1      -0.723  -0.696  -0.937  0.00  0.00    +0.005 A 
ATOM     26  C   UNL     1      -0.712  -2.077  -0.948  0.00  0.00    +0.023 A 
ATOM     27  C   UNL     1       0.047  -2.771  -0.014  0.00  0.00    +0.034 A 
ATOM     28  C   UNL     1       0.792  -2.072   0.927  0.00  0.00    +0.023 A 
ATOM     29  C   UNL     1       0.781  -0.692   0.929  0.00  0.00    +0.005 A 
ENDBRANCH  19  27
ENDBRANCH   1  20
TORSDOF 3
