REMARK  Name = ZINC10954796
REMARK  7 active torsions:
REMARK  status: ('A' for Active; 'I' for Inactive)
REMARK    1  A    between atoms: C_1  and  C_2
REMARK    2  A    between atoms: C_3  and  C_20
REMARK    3  A    between atoms: C_8  and  C_10
REMARK    4  A    between atoms: C_14  and  S_16
REMARK    5  A    between atoms: S_16  and  C_19
REMARK    6  A    between atoms: C_23  and  O_26
REMARK    7  A    between atoms: O_26  and  C_27
REMARK                            x       y       z     vdW  Elec       q    Type
REMARK                         _______ _______ _______ _____ _____    ______ ____
ROOT
ATOM      1  C   UNL     1      -0.027   1.502  -0.082  0.00  0.00    +0.054 C 
ATOM      2  C   UNL     1      -0.002  -0.005  -0.040  0.00  0.00    +0.016 A 
ATOM      3  C   UNL     1      -1.034  -0.891   0.093  0.00  0.00    +0.083 A 
ATOM      4  N   UNL     1      -0.777  -2.190   0.105  0.00  0.00    -0.224 NA
ATOM      5  C   UNL     1       0.457  -2.646  -0.010  0.00  0.00    +0.165 A 
ATOM      6  S   UNL     1       1.385  -1.126  -0.158  0.00  0.00    -0.057 S 
ATOM      7  N   UNL     1       0.911  -3.958  -0.019  0.00  0.00    -0.261 N 
ATOM      8  C   UNL     1       2.228  -4.214  -0.148  0.00  0.00    +0.250 C 
ATOM      9  O   UNL     1       3.018  -3.296  -0.257  0.00  0.00    -0.270 OA
ATOM     10  H   UNL     1       0.281  -4.691   0.068  0.00  0.00    +0.157 HD
ENDROOT
BRANCH   8  11
ATOM     11  C   UNL     1       2.712  -5.611  -0.158  0.00  0.00    +0.039 A 
ATOM     12  C   UNL     1       1.807  -6.667  -0.039  0.00  0.00    +0.013 A 
ATOM     13  C   UNL     1       2.265  -7.968  -0.049  0.00  0.00    +0.003 A 
ATOM     14  C   UNL     1       3.619  -8.227  -0.176  0.00  0.00    +0.027 A 
ATOM     15  C   UNL     1       4.521  -7.185  -0.294  0.00  0.00    +0.089 A 
ATOM     16  C   UNL     1       4.075  -5.879  -0.291  0.00  0.00    +0.040 A 
BRANCH  15  17
ATOM     17  S   UNL     1       6.242  -7.526  -0.455  0.00  0.00    -0.006 S 
ATOM     18  O   UNL     1       6.890  -6.369   0.055  0.00  0.00    -0.170 OA
ATOM     19  O   UNL     1       6.421  -8.790   0.169  0.00  0.00    -0.170 OA
ATOM     20  C   UNL     1       6.525  -7.665  -2.241  0.00  0.00    +0.200 C 
ENDBRANCH  15  17
ENDBRANCH   8  11
BRANCH   3  21
ATOM     21  C   UNL     1      -2.428  -0.403   0.224  0.00  0.00    +0.001 A 
ATOM     22  C   UNL     1      -3.285  -0.978   1.161  0.00  0.00    +0.013 A 
ATOM     23  C   UNL     1      -4.581  -0.521   1.281  0.00  0.00    +0.046 A 
ATOM     24  C   UNL     1      -5.032   0.511   0.469  0.00  0.00    +0.127 A 
ATOM     25  C   UNL     1      -4.182   1.085  -0.465  0.00  0.00    +0.046 A 
ATOM     26  C   UNL     1      -2.883   0.637  -0.586  0.00  0.00    +0.013 A 
BRANCH  24  27
ATOM     27  O   UNL     1      -6.310   0.959   0.590  0.00  0.00    -0.434 OA
BRANCH  27  28
ATOM     28  C   UNL     1      -6.708   2.023  -0.277  0.00  0.00    +0.541 C 
ATOM     29  F   UNL     1      -5.896   3.139  -0.049  0.00  0.00    -0.166 F 
ATOM     30  F   UNL     1      -6.577   1.614  -1.608  0.00  0.00    -0.166 F 
ENDBRANCH  27  28
ENDBRANCH  24  27
ENDBRANCH   3  21
TORSDOF 5
