REMARK  Name = ZINC63375257
REMARK  2 active torsions:
REMARK  status: ('A' for Active; 'I' for Inactive)
REMARK    1  A    between atoms: C_1  and  N_2
REMARK    2  A    between atoms: C_15  and  C_17
REMARK                            x       y       z     vdW  Elec       q    Type
REMARK                         _______ _______ _______ _____ _____    ______ ____
ROOT
ATOM      1  C   UNL     1       0.076   1.527   0.065  0.00  0.00    +0.105 C 
ATOM      2  N   UNL     1       0.034   0.060   0.014  0.00  0.00    -0.296 NA
ATOM      3  C   UNL     1      -1.339  -0.420  -0.167  0.00  0.00    +0.089 C 
ATOM      4  C   UNL     1      -1.339  -1.928  -0.481  0.00  0.00    +0.049 C 
ATOM      5  C   UNL     1      -0.476  -2.576   0.573  0.00  0.00    -0.035 C 
ATOM      6  C   UNL     1      -0.670  -3.619   1.368  0.00  0.00    -0.001 A 
ATOM      7  C   UNL     1      -1.745  -4.622   1.428  0.00  0.00    +0.010 A 
ATOM      8  C   UNL     1      -1.638  -5.559   2.407  0.00  0.00    +0.001 A 
ATOM      9  C   UNL     1      -0.581  -5.598   3.322  0.00  0.00    +0.002 A 
ATOM     10  C   UNL     1       0.455  -4.722   3.334  0.00  0.00    +0.026 A 
ATOM     11  C   UNL     1       0.460  -3.697   2.345  0.00  0.00    +0.043 A 
ATOM     12  N   UNL     1       1.330  -2.758   2.110  0.00  0.00    -0.376 N 
ATOM     13  C   UNL     1       0.903  -2.023   0.921  0.00  0.00    +0.128 C 
ATOM     14  C   UNL     1       0.708  -0.528   1.183  0.00  0.00    +0.124 C 
ATOM     15  H   UNL     1       2.126  -2.577   2.635  0.00  0.00    +0.160 HD
ENDROOT
BRANCH  14  16
ATOM     16  C   UNL     1      -0.143  -0.334   2.411  0.00  0.00    +0.101 A 
ATOM     17  C   UNL     1      -1.377  -0.907   2.495  0.00  0.00    +0.263 A 
ATOM     18  N   UNL     1      -2.135  -0.717   3.623  0.00  0.00    -0.274 N 
ATOM     19  C   UNL     1      -1.668   0.029   4.640  0.00  0.00    +0.341 A 
ATOM     20  N   UNL     1      -0.452   0.604   4.576  0.00  0.00    -0.199 N 
ATOM     21  C   UNL     1       0.327   0.436   3.489  0.00  0.00    +0.274 A 
ATOM     22  O   UNL     1       1.429   0.954   3.439  0.00  0.00    -0.266 OA
ATOM     23  I   UNL     1       0.222   1.734   6.147  0.00  0.00    +0.071 I 
ATOM     24  O   UNL     1      -2.353   0.188   5.631  0.00  0.00    -0.246 OA
ATOM     25  O   UNL     1      -1.851  -1.656   1.476  0.00  0.00    -0.267 OA
ATOM     26  H   UNL     1      -3.014  -1.123   3.687  0.00  0.00    +0.173 HD
ENDBRANCH  14  16
TORSDOF 1
