REMARK  Name = ZINC12473083
REMARK  14 active torsions:
REMARK  status: ('A' for Active; 'I' for Inactive)
REMARK    1  A    between atoms: C_1  and  C_2
REMARK    2  A    between atoms: C_5  and  N_9
REMARK    3  A    between atoms: C_7  and  C_8
REMARK    4  A    between atoms: N_9  and  C_10
REMARK    5  A    between atoms: C_10  and  C_12
REMARK    6  A    between atoms: C_10  and  C_19
REMARK    7  A    between atoms: N_21  and  C_22
REMARK    8  A    between atoms: C_22  and  C_23
REMARK    9  A    between atoms: C_23  and  C_24
REMARK   10  A    between atoms: C_24  and  C_25
REMARK   11  A    between atoms: C_24  and  C_26
REMARK   12  A    between atoms: C_27  and  C_29
REMARK   13  A    between atoms: C_30  and  N_37
REMARK   14  A    between atoms: C_31  and  C_34
REMARK                            x       y       z     vdW  Elec       q    Type
REMARK                         _______ _______ _______ _____ _____    ______ ____
ROOT
ATOM      1  N   UNL     1       2.780   0.955  -0.224  0.00  0.00    -0.251 N 
ATOM      2  C   UNL     1       3.075  -0.112   0.545  0.00  0.00    +0.262 C 
ATOM      3  O   UNL     1       3.998  -0.055   1.337  0.00  0.00    -0.269 OA
ENDROOT
BRANCH   1   8
ATOM      4  C   UNL     1      -1.599   0.731  -3.823  0.00  0.00    +0.044 C 
ATOM      5  C   UNL     1      -0.436   0.790  -2.866  0.00  0.00    -0.047 A 
ATOM      6  C   UNL     1      -0.568   1.451  -1.659  0.00  0.00    +0.005 A 
ATOM      7  C   UNL     1       0.496   1.508  -0.780  0.00  0.00    +0.024 A 
ATOM      8  C   UNL     1       1.700   0.900  -1.111  0.00  0.00    +0.038 A 
ATOM      9  C   UNL     1       1.830   0.237  -2.324  0.00  0.00    +0.027 A 
ATOM     10  C   UNL     1       0.764   0.189  -3.201  0.00  0.00    -0.046 A 
ATOM     11  C   UNL     1       0.905  -0.526  -4.520  0.00  0.00    +0.044 C 
ENDBRANCH   1   8
BRANCH   2  12
ATOM     12  C   UNL     1       2.286  -1.340   0.428  0.00  0.00    +0.116 A 
ATOM     13  C   UNL     1       2.475  -2.576   1.049  0.00  0.00    +0.076 A 
ATOM     14  C   UNL     1       1.504  -3.510   0.687  0.00  0.00    +0.155 A 
ATOM     15  N   UNL     1       0.564  -3.163  -0.164  0.00  0.00    -0.203 NA
ATOM     16  S   UNL     1       0.833  -1.658  -0.551  0.00  0.00    +0.019 S 
BRANCH  14  17
ATOM     17  C   UNL     1       1.536  -4.873   1.247  0.00  0.00    +0.262 C 
ATOM     18  O   UNL     1       2.408  -5.187   2.033  0.00  0.00    -0.269 OA
ATOM     19  N   UNL     1       0.597  -5.771   0.887  0.00  0.00    -0.324 N 
ATOM     20  H   UNL     1      -0.099  -5.520   0.260  0.00  0.00    +0.145 HD
ATOM     21  H   UNL     1       0.618  -6.668   1.256  0.00  0.00    +0.145 HD
ENDBRANCH  14  17
BRANCH  13  22
ATOM     22  N   UNL     1       3.512  -2.845   1.932  0.00  0.00    -0.355 N 
ATOM     23  H   UNL     1       4.157  -2.153   2.148  0.00  0.00    +0.142 HD
ATOM     24  H   UNL     1       3.592  -3.725   2.333  0.00  0.00    +0.142 HD
ENDBRANCH  13  22
ENDBRANCH   2  12
BRANCH   1  25
ATOM     25  C   UNL     1       3.590   2.172  -0.130  0.00  0.00    +0.197 C 
BRANCH  25  26
ATOM     26  C   UNL     1       3.873   2.695  -1.514  0.00  0.00    -0.018 A 
ATOM     27  C   UNL     1       2.844   3.201  -2.286  0.00  0.00    +0.009 A 
ATOM     28  C   UNL     1       3.104   3.685  -3.554  0.00  0.00    +0.038 A 
ATOM     29  C   UNL     1       4.394   3.653  -4.056  0.00  0.00    +0.123 A 
ATOM     30  C   UNL     1       5.423   3.140  -3.284  0.00  0.00    +0.038 A 
ATOM     31  C   UNL     1       5.162   2.662  -2.014  0.00  0.00    +0.009 A 
ATOM     32  F   UNL     1       4.649   4.121  -5.297  0.00  0.00    -0.205 F 
ENDBRANCH  25  26
BRANCH  25  33
ATOM     33  C   UNL     1       2.839   3.215   0.657  0.00  0.00    +0.238 C 
ATOM     34  O   UNL     1       1.736   2.967   1.096  0.00  0.00    -0.273 OA
ATOM     35  N   UNL     1       3.393   4.425   0.873  0.00  0.00    -0.313 N 
ATOM     36  H   UNL     1       4.275   4.624   0.522  0.00  0.00    +0.149 HD
BRANCH  35  37
ATOM     37  C   UNL     1       2.663   5.439   1.637  0.00  0.00    +0.104 C 
BRANCH  37  38
ATOM     38  C   UNL     1       3.509   6.710   1.736  0.00  0.00    +0.022 C 
BRANCH  38  39
ATOM     39  C   UNL     1       2.746   7.770   2.534  0.00  0.00    -0.016 C 
ATOM     40  C   UNL     1       3.640   8.995   2.739  0.00  0.00    +0.007 C 
ATOM     41  C   UNL     1       1.488   8.179   1.766  0.00  0.00    +0.007 C 
ENDBRANCH  38  39
ENDBRANCH  37  38
ENDBRANCH  35  37
ENDBRANCH  25  33
ENDBRANCH   1  25
TORSDOF 10
