REMARK  Name = ZINC11275536
REMARK  7 active torsions:
REMARK  status: ('A' for Active; 'I' for Inactive)
REMARK    1  A    between atoms: C_1  and  C_2
REMARK    2  A    between atoms: C_2  and  C_25
REMARK    3  A    between atoms: N_5  and  C_9
REMARK    4  A    between atoms: C_9  and  C_10
REMARK    5  A    between atoms: N_12  and  C_13
REMARK    6  A    between atoms: C_15  and  C_22
REMARK    7  A    between atoms: C_17  and  C_19
REMARK                            x       y       z     vdW  Elec       q    Type
REMARK                         _______ _______ _______ _____ _____    ______ ____
ROOT
ATOM      1  C   UNL     1      -6.092   1.829   0.142  0.00  0.00    +0.235 C 
ATOM      2  O   UNL     1      -6.114   3.041   0.149  0.00  0.00    -0.274 OA
ATOM      3  N   UNL     1      -4.917   1.177   0.031  0.00  0.00    -0.284 N 
ATOM      4  H   UNL     1      -4.904   0.211  -0.052  0.00  0.00    +0.155 HD
ENDROOT
BRANCH   3   5
ATOM      5  C   UNL     1      -3.715   1.896   0.036  0.00  0.00    +0.035 A 
ATOM      6  C   UNL     1      -2.640   1.450  -0.718  0.00  0.00    +0.036 A 
ATOM      7  C   UNL     1      -1.440   2.164  -0.715  0.00  0.00    +0.039 A 
ATOM      8  C   UNL     1      -1.325   3.327   0.043  0.00  0.00    +0.026 A 
ATOM      9  C   UNL     1      -2.406   3.769   0.803  0.00  0.00    +0.039 A 
ATOM     10  C   UNL     1      -3.603   3.051   0.795  0.00  0.00    +0.036 A 
BRANCH   9  11
ATOM     11  C   UNL     1      -2.287   5.001   1.613  0.00  0.00    +0.242 C 
ATOM     12  O   UNL     1      -3.232   5.388   2.272  0.00  0.00    -0.270 OA
ATOM     13  N   UNL     1      -1.129   5.690   1.624  0.00  0.00    -0.325 N 
ATOM     14  H   UNL     1      -1.050   6.496   2.158  0.00  0.00    +0.145 HD
ATOM     15  H   UNL     1      -0.375   5.381   1.098  0.00  0.00    +0.145 HD
ENDBRANCH   9  11
BRANCH   7  16
ATOM     16  C   UNL     1      -0.294   1.688  -1.520  0.00  0.00    +0.242 C 
ATOM     17  O   UNL     1      -0.396   0.675  -2.184  0.00  0.00    -0.270 OA
ATOM     18  N   UNL     1       0.864   2.378  -1.517  0.00  0.00    -0.325 N 
ATOM     19  H   UNL     1       0.946   3.186  -0.987  0.00  0.00    +0.145 HD
ATOM     20  H   UNL     1       1.616   2.066  -2.044  0.00  0.00    +0.145 HD
ENDBRANCH   7  16
ENDBRANCH   3   5
BRANCH   1  21
ATOM     21  C   UNL     1      -7.377   1.050   0.256  0.00  0.00    +0.214 C 
BRANCH  21  26
ATOM     22  C   UNL     1     -10.057   4.813  -0.597  0.00  0.00    +0.047 C 
ATOM     23  C   UNL     1     -10.250   3.376  -0.106  0.00  0.00    +0.135 C 
ATOM     24  C   UNL     1      -9.188   2.466  -0.691  0.00  0.00    +0.251 C 
ATOM     25  O   UNL     1      -8.993   2.226  -1.863  0.00  0.00    -0.272 OA
ATOM     26  N   UNL     1      -8.504   1.980   0.364  0.00  0.00    -0.215 N 
ATOM     27  C   UNL     1      -8.984   2.448   1.522  0.00  0.00    +0.310 C 
ATOM     28  O   UNL     1      -8.533   2.149   2.610  0.00  0.00    -0.252 OA
ATOM     29  N   UNL     1     -10.019   3.289   1.346  0.00  0.00    -0.281 N 
ATOM     30  H   UNL     1     -10.519   3.746   2.041  0.00  0.00    +0.152 HD
BRANCH  23  31
ATOM     31  C   UNL     1     -11.627   2.876  -0.455  0.00  0.00    -0.015 A 
ATOM     32  C   UNL     1     -11.833   2.186  -1.635  0.00  0.00    +0.009 A 
ATOM     33  C   UNL     1     -13.095   1.721  -1.954  0.00  0.00    +0.039 A 
ATOM     34  C   UNL     1     -14.156   1.957  -1.096  0.00  0.00    +0.123 A 
ATOM     35  C   UNL     1     -13.950   2.653   0.083  0.00  0.00    +0.039 A 
ATOM     36  C   UNL     1     -12.686   3.111   0.402  0.00  0.00    +0.009 A 
ATOM     37  F   UNL     1     -15.392   1.509  -1.409  0.00  0.00    -0.205 F 
ENDBRANCH  23  31
ENDBRANCH  21  26
ENDBRANCH   1  21
TORSDOF 6
