REMARK  Name = ZINC58961086
REMARK  9 active torsions:
REMARK  status: ('A' for Active; 'I' for Inactive)
REMARK    1  A    between atoms: C_1  and  C_2
REMARK    2  A    between atoms: C_5  and  C_8
REMARK    3  A    between atoms: C_10  and  C_28
REMARK    4  A    between atoms: C_12  and  S_14
REMARK    5  A    between atoms: S_14  and  C_15
REMARK    6  A    between atoms: C_15  and  C_17
REMARK    7  A    between atoms: C_15  and  C_18
REMARK    8  A    between atoms: N_20  and  N_21
REMARK    9  A    between atoms: N_24  and  C_27
REMARK                            x       y       z     vdW  Elec       q    Type
REMARK                         _______ _______ _______ _____ _____    ______ ____
ROOT
ATOM      1  C   UNL     1       0.060  -4.255  -0.021  0.00  0.00    +0.076 A 
ATOM      2  C   UNL     1       0.070  -4.971   1.179  0.00  0.00    +0.060 A 
ATOM      3  C   UNL     1       0.088  -6.354   1.122  0.00  0.00    +0.148 A 
ATOM      4  N   UNL     1       0.096  -6.953  -0.058  0.00  0.00    -0.218 NA
ATOM      5  C   UNL     1       0.086  -6.249  -1.181  0.00  0.00    +0.190 A 
ATOM      6  N   UNL     1       0.063  -4.925  -1.172  0.00  0.00    -0.222 NA
ENDROOT
BRANCH   1  11
ATOM      7  C   UNL     1      -0.018   1.503   0.010  0.00  0.00    +0.044 C 
ATOM      8  C   UNL     1       0.002  -0.004   0.002  0.00  0.00    -0.050 A 
ATOM      9  C   UNL     1       0.006  -0.686  -1.201  0.00  0.00    +0.004 A 
ATOM     10  C   UNL     1       0.024  -2.066  -1.215  0.00  0.00    +0.010 A 
ATOM     11  C   UNL     1       0.040  -2.772  -0.013  0.00  0.00    +0.001 A 
ATOM     12  C   UNL     1       0.037  -2.079   1.196  0.00  0.00    +0.010 A 
ATOM     13  C   UNL     1       0.023  -0.699   1.198  0.00  0.00    +0.004 A 
ENDBRANCH   1  11
BRANCH   3  14
ATOM     14  C   UNL     1       0.100  -7.168   2.390  0.00  0.00    +0.434 C 
ATOM     15  F   UNL     1      -1.215  -7.437   2.783  0.00  0.00    -0.164 F 
ATOM     16  F   UNL     1       0.775  -8.372   2.164  0.00  0.00    -0.164 F 
ATOM     17  F   UNL     1       0.751  -6.450   3.399  0.00  0.00    -0.164 F 
ENDBRANCH   3  14
BRANCH   5  18
ATOM     18  S   UNL     1       0.097  -7.096  -2.726  0.00  0.00    -0.074 S 
BRANCH  18  19
ATOM     19  C   UNL     1       0.121  -8.850  -2.264  0.00  0.00    +0.138 C 
ATOM     20  C   UNL     1      -1.182  -9.206  -1.545  0.00  0.00    +0.029 C 
BRANCH  19  21
ATOM     21  C   UNL     1       0.256  -9.694  -3.505  0.00  0.00    +0.240 C 
ATOM     22  O   UNL     1      -0.030  -9.230  -4.589  0.00  0.00    -0.273 OA
ATOM     23  N   UNL     1       0.695 -10.965  -3.411  0.00  0.00    -0.247 N 
ATOM     24  H   UNL     1       0.923 -11.337  -2.545  0.00  0.00    +0.169 HD
BRANCH  23  25
ATOM     25  N   UNL     1       0.817 -11.731  -4.536  0.00  0.00    -0.231 NA
ATOM     26  C   UNL     1      -0.097 -12.880  -4.493  0.00  0.00    +0.087 C 
ATOM     27  C   UNL     1       0.027 -13.677  -5.794  0.00  0.00    -0.062 C 
ATOM     28  N   UNL     1       1.413 -14.137  -5.955  0.00  0.00    +0.380 N 
ATOM     29  C   UNL     1       2.311 -12.977  -6.021  0.00  0.00    -0.062 C 
ATOM     30  C   UNL     1       2.205 -12.175  -4.723  0.00  0.00    +0.087 C 
ATOM     31  C   UNL     1       1.528 -14.916  -7.195  0.00  0.00    -0.096 C 
ATOM     32  H   UNL     1       1.669 -14.716  -5.169  0.00  0.00    -0.082 HD
ENDBRANCH  23  25
ENDBRANCH  19  21
ENDBRANCH  18  19
ENDBRANCH   5  18
TORSDOF 6
