REMARK  Name = ZINC01010336
REMARK  10 active torsions:
REMARK  status: ('A' for Active; 'I' for Inactive)
REMARK    1  A    between atoms: C_1  and  N_2
REMARK    2  A    between atoms: N_2  and  C_3
REMARK    3  A    between atoms: N_2  and  N_4
REMARK    4  A    between atoms: C_7  and  C_14
REMARK    5  A    between atoms: C_9  and  C_12
REMARK    6  A    between atoms: C_10  and  N_11
REMARK    7  A    between atoms: C_17  and  O_22
REMARK    8  A    between atoms: C_18  and  O_20
REMARK    9  A    between atoms: O_20  and  C_21
REMARK   10  A    between atoms: C_26  and  C_29
REMARK                            x       y       z     vdW  Elec       q    Type
REMARK                         _______ _______ _______ _____ _____    ______ ____
ROOT
ATOM      1  N   UNL     1      -0.017   0.078   0.294  0.00  0.00    -0.223 N 
ATOM      2  C   UNL     1      -0.573  -0.193   1.515  0.00  0.00    +0.037 C 
ATOM      3  C   UNL     1      -0.484  -1.428   2.052  0.00  0.00    +0.026 C 
ATOM      4  C   UNL     1       0.233  -2.539   1.327  0.00  0.00    +0.098 C 
ATOM      5  C   UNL     1       0.402  -2.214  -0.128  0.00  0.00    +0.078 C 
ATOM      6  C   UNL     1       0.272  -0.939  -0.584  0.00  0.00    +0.117 C 
ATOM      7  C   UNL     1      -1.054  -1.716   3.305  0.00  0.00    +0.162 C 
ATOM      8  O   UNL     1      -0.973  -2.844   3.752  0.00  0.00    -0.292 OA
ATOM      9  C   UNL     1      -1.762  -0.655   4.102  0.00  0.00    +0.088 C 
ATOM     10  C   UNL     1      -1.167   0.712   3.751  0.00  0.00    +0.032 C 
ATOM     11  C   UNL     1      -1.290   0.920   2.240  0.00  0.00    +0.061 C 
ENDROOT
BRANCH   4  12
ATOM     12  C   UNL     1       1.591  -2.739   1.949  0.00  0.00    -0.031 A 
ATOM     13  C   UNL     1       2.504  -1.701   1.960  0.00  0.00    +0.008 A 
ATOM     14  C   UNL     1       3.749  -1.878   2.534  0.00  0.00    +0.049 A 
ATOM     15  C   UNL     1       4.088  -3.100   3.091  0.00  0.00    +0.158 A 
ATOM     16  C   UNL     1       3.171  -4.147   3.074  0.00  0.00    +0.162 A 
ATOM     17  C   UNL     1       1.923  -3.961   2.502  0.00  0.00    +0.054 A 
BRANCH  16  18
ATOM     18  O   UNL     1       3.499  -5.349   3.619  0.00  0.00    -0.491 OA
ATOM     19  C   UNL     1       2.508  -6.378   3.566  0.00  0.00    +0.277 C 
ENDBRANCH  16  18
BRANCH  15  20
ATOM     20  O   UNL     1       5.314  -3.278   3.651  0.00  0.00    -0.503 OA
ATOM     21  H   UNL     1       5.582  -4.249   4.092  0.00  0.00    +0.292 HD
ENDBRANCH  15  20
ENDBRANCH   4  12
BRANCH  10  22
ATOM     22  C   UNL     1      -1.924   1.795   4.474  0.00  0.00    -0.044 A 
ATOM     23  C   UNL     1      -3.282   1.947   4.265  0.00  0.00    +0.004 A 
ATOM     24  C   UNL     1      -3.978   2.938   4.932  0.00  0.00    +0.000 A 
ATOM     25  C   UNL     1      -3.314   3.783   5.801  0.00  0.00    +0.000 A 
ATOM     26  C   UNL     1      -1.955   3.635   6.006  0.00  0.00    +0.000 A 
ATOM     27  C   UNL     1      -1.260   2.641   5.343  0.00  0.00    +0.004 A 
ENDBRANCH  10  22
BRANCH   1  29
ATOM     28  C   UNL     1      -0.994   2.132  -0.244  0.00  0.00    +0.128 C 
ATOM     29  N   UNL     1       0.249   1.372  -0.057  0.00  0.00    -0.227 NA
ATOM     30  C   UNL     1       1.117   2.019   0.936  0.00  0.00    +0.128 C 
ENDBRANCH   1  29
BRANCH   6  31
ATOM     31  N   UNL     1       0.434  -0.666  -1.921  0.00  0.00    -0.344 N 
ATOM     32  H   UNL     1       0.665  -1.479  -2.624  0.00  0.00    +0.144 HD
ATOM     33  H   UNL     1       0.333   0.366  -2.287  0.00  0.00    +0.144 HD
ENDBRANCH   6  31
BRANCH   5  34
ATOM     34  C   UNL     1       0.701  -3.265  -1.054  0.00  0.00    +0.099 C 
ATOM     35  N   UNL     1       0.938  -4.098  -1.789  0.00  0.00    -0.191 NA
ENDBRANCH   5  34
TORSDOF 7
