REMARK  Name = ZINC35890969
REMARK  10 active torsions:
REMARK  status: ('A' for Active; 'I' for Inactive)
REMARK    1  A    between atoms: C_1  and  C_2
REMARK    2  A    between atoms: C_2  and  C_3
REMARK    3  A    between atoms: C_4  and  C_37
REMARK    4  A    between atoms: C_6  and  C_27
REMARK    5  A    between atoms: C_8  and  N_9
REMARK    6  A    between atoms: N_17  and  C_18
REMARK    7  A    between atoms: C_21  and  O_24
REMARK    8  A    between atoms: O_24  and  C_25
REMARK    9  A    between atoms: C_25  and  C_26
REMARK   10  A    between atoms: C_30  and  C_33
REMARK                            x       y       z     vdW  Elec       q    Type
REMARK                         _______ _______ _______ _____ _____    ______ ____
ROOT
ATOM      1  C   UNL     1      -4.252   0.508  -1.236  0.00  0.00    +0.011 A 
ATOM      2  C   UNL     1      -4.835   0.302   0.001  0.00  0.00    +0.021 A 
ATOM      3  N   UNL     1      -4.401  -0.688   0.765  0.00  0.00    -0.343 N 
ATOM      4  C   UNL     1      -3.417  -1.480   0.360  0.00  0.00    +0.140 A 
ATOM      5  N   UNL     1      -2.832  -1.316  -0.818  0.00  0.00    -0.214 NA
ATOM      6  C   UNL     1      -3.222  -0.346  -1.637  0.00  0.00    +0.128 A 
ATOM      7  C   UNL     1      -5.953   1.195   0.474  0.00  0.00    +0.064 C 
ATOM      8  H   UNL     1      -4.807  -0.836   1.633  0.00  0.00    +0.167 HD
ENDROOT
BRANCH   6   9
ATOM      9  N   UNL     1      -2.612  -0.180  -2.870  0.00  0.00    -0.312 N 
ATOM     10  C   UNL     1      -1.445   0.701  -3.015  0.00  0.00    +0.125 C 
ATOM     11  C   UNL     1      -0.298  -0.104  -3.638  0.00  0.00    +0.128 C 
ATOM     12  N   UNL     1      -0.806  -0.806  -4.824  0.00  0.00    -0.282 N 
ATOM     13  C   UNL     1      -1.973  -1.688  -4.679  0.00  0.00    +0.128 C 
ATOM     14  C   UNL     1      -3.118  -0.887  -4.056  0.00  0.00    +0.125 C 
ATOM     15  C   UNL     1      -0.213  -0.645  -6.024  0.00  0.00    +0.307 C 
ATOM     16  O   UNL     1       0.813   0.001  -6.112  0.00  0.00    -0.252 OA
ATOM     17  N   UNL     1      -0.757  -1.200  -7.125  0.00  0.00    -0.269 N 
ATOM     18  H   UNL     1      -1.502  -1.815  -7.040  0.00  0.00    +0.156 HD
BRANCH  17  19
ATOM     19  C   UNL     1      -0.247  -0.888  -8.392  0.00  0.00    +0.035 A 
ATOM     20  C   UNL     1       1.114  -0.670  -8.558  0.00  0.00    +0.027 A 
ATOM     21  C   UNL     1       1.617  -0.363  -9.807  0.00  0.00    +0.047 A 
ATOM     22  C   UNL     1       0.762  -0.273 -10.896  0.00  0.00    +0.121 A 
ATOM     23  C   UNL     1      -0.598  -0.490 -10.731  0.00  0.00    +0.047 A 
ATOM     24  C   UNL     1      -1.101  -0.802  -9.483  0.00  0.00    +0.027 A 
BRANCH  22  25
ATOM     25  O   UNL     1       1.257   0.030 -12.126  0.00  0.00    -0.492 OA
BRANCH  25  26
ATOM     26  C   UNL     1       0.320   0.106 -13.202  0.00  0.00    +0.225 C 
ATOM     27  C   UNL     1       1.058   0.454 -14.496  0.00  0.00    +0.048 C 
ENDBRANCH  25  26
ENDBRANCH  22  25
ENDBRANCH  17  19
ENDBRANCH   6   9
BRANCH   4  28
ATOM     28  C   UNL     1      -2.960  -2.577   1.248  0.00  0.00    +0.017 A 
ATOM     29  C   UNL     1      -3.565  -2.771   2.489  0.00  0.00    +0.012 A 
ATOM     30  C   UNL     1      -3.136  -3.793   3.311  0.00  0.00    +0.013 A 
ATOM     31  C   UNL     1      -2.107  -4.624   2.905  0.00  0.00    +0.055 A 
ATOM     32  C   UNL     1      -1.503  -4.437   1.675  0.00  0.00    +0.013 A 
ATOM     33  C   UNL     1      -1.928  -3.421   0.842  0.00  0.00    +0.012 A 
BRANCH  31  34
ATOM     34  C   UNL     1      -1.643  -5.739   3.808  0.00  0.00    +0.417 C 
ATOM     35  F   UNL     1      -2.376  -6.898   3.532  0.00  0.00    -0.166 F 
ATOM     36  F   UNL     1      -0.283  -5.982   3.585  0.00  0.00    -0.166 F 
ATOM     37  F   UNL     1      -1.838  -5.369   5.143  0.00  0.00    -0.166 F 
ENDBRANCH  31  34
ENDBRANCH   4  28
BRANCH   1  39
ATOM     38  C   UNL     1      -5.941   1.160  -2.930  0.00  0.00    +0.009 C 
ATOM     39  C   UNL     1      -4.721   1.625  -2.132  0.00  0.00    +0.037 C 
ENDBRANCH   1  39
TORSDOF 7
