REMARK  Name = ZINC62138589
REMARK  6 active torsions:
REMARK  status: ('A' for Active; 'I' for Inactive)
REMARK    1  A    between atoms: C_1  and  C_2
REMARK    2  A    between atoms: C_2  and  C_28
REMARK    3  A    between atoms: C_5  and  N_12
REMARK    4  A    between atoms: C_13  and  C_15
REMARK    5  A    between atoms: C_17  and  C_21
REMARK    6  A    between atoms: N_18  and  C_20
REMARK                            x       y       z     vdW  Elec       q    Type
REMARK                         _______ _______ _______ _____ _____    ______ ____
ROOT
ATOM      1  N   UNL     1       1.396  -0.739  -4.795  0.00  0.00    -0.280 N 
ATOM      2  C   UNL     1       2.342  -1.220  -5.625  0.00  0.00    +0.268 C 
ATOM      3  O   UNL     1       3.318  -1.787  -5.171  0.00  0.00    -0.268 OA
ATOM      4  H   UNL     1       0.583  -0.354  -5.157  0.00  0.00    +0.155 HD
ENDROOT
BRANCH   1   9
ATOM      5  C   UNL     1       5.249  -1.758  -0.949  0.00  0.00    +0.025 C 
ATOM      6  C   UNL     1       4.269  -0.626  -0.632  0.00  0.00    +0.068 C 
ATOM      7  C   UNL     1       3.043  -0.725  -1.510  0.00  0.00    -0.010 A 
ATOM      8  C   UNL     1       2.863  -0.670  -2.874  0.00  0.00    +0.029 A 
ATOM      9  C   UNL     1       1.587  -0.795  -3.409  0.00  0.00    +0.034 A 
ATOM     10  C   UNL     1       0.500  -0.975  -2.562  0.00  0.00    +0.025 A 
ATOM     11  C   UNL     1       0.685  -1.030  -1.197  0.00  0.00    +0.025 A 
ATOM     12  C   UNL     1       1.963  -0.905  -0.656  0.00  0.00    +0.038 A 
ATOM     13  N   UNL     1       2.398  -0.928   0.672  0.00  0.00    -0.285 N 
ATOM     14  C   UNL     1       3.728  -0.772   0.774  0.00  0.00    +0.227 C 
ATOM     15  O   UNL     1       4.375  -0.752   1.800  0.00  0.00    -0.275 OA
ATOM     16  C   UNL     1       4.949   0.733  -0.807  0.00  0.00    +0.025 C 
ATOM     17  H   UNL     1       1.807  -1.043   1.433  0.00  0.00    +0.155 HD
ENDBRANCH   1   9
BRANCH   2  18
ATOM     18  C   UNL     1       2.194  -1.060  -7.086  0.00  0.00    +0.148 A 
ATOM     19  C   UNL     1       3.095  -1.514  -8.073  0.00  0.00    +0.062 A 
ATOM     20  C   UNL     1       2.545  -1.142  -9.268  0.00  0.00    +0.069 A 
ATOM     21  N   UNL     1       1.377  -0.501  -8.980  0.00  0.00    -0.266 N 
ATOM     22  N   UNL     1       1.193  -0.470  -7.709  0.00  0.00    -0.166 NA
ATOM     23  C   UNL     1       0.462   0.066  -9.975  0.00  0.00    +0.173 C 
BRANCH  20  24
ATOM     24  C   UNL     1       3.109  -1.388 -10.614  0.00  0.00    +0.000 A 
ATOM     25  C   UNL     1       4.470  -1.657 -10.764  0.00  0.00    +0.013 A 
ATOM     26  C   UNL     1       4.990  -1.886 -12.021  0.00  0.00    +0.039 A 
ATOM     27  C   UNL     1       4.165  -1.848 -13.133  0.00  0.00    +0.123 A 
ATOM     28  C   UNL     1       2.813  -1.580 -12.989  0.00  0.00    +0.039 A 
ATOM     29  C   UNL     1       2.281  -1.357 -11.736  0.00  0.00    +0.013 A 
ATOM     30  F   UNL     1       4.680  -2.072 -14.361  0.00  0.00    -0.205 F 
ENDBRANCH  20  24
ENDBRANCH   2  18
TORSDOF 3
