REMARK  Name = ZINC02786914
REMARK  3 active torsions:
REMARK  status: ('A' for Active; 'I' for Inactive)
REMARK    1  A    between atoms: C_1  and  C_2
REMARK    2  A    between atoms: C_13  and  C_18
REMARK    3  A    between atoms: C_23  and  O_24
REMARK                            x       y       z     vdW  Elec       q    Type
REMARK                         _______ _______ _______ _____ _____    ______ ____
ROOT
ATOM      1  C   UNL     1      -0.019   1.526   0.010  0.00  0.00    +0.008 C 
ATOM      2  C   UNL     1       0.002  -0.004   0.002  0.00  0.00    -0.009 C 
ATOM      3  C   UNL     1      -1.433  -0.537   0.021  0.00  0.00    +0.008 C 
ATOM      4  C   UNL     1      -1.431  -2.045  -0.237  0.00  0.00    +0.037 C 
ATOM      5  C   UNL     1      -0.471  -2.710   0.744  0.00  0.00    -0.024 A 
ATOM      6  C   UNL     1       0.476  -1.986   1.381  0.00  0.00    -0.004 A 
ATOM      7  S   UNL     1       1.339  -3.153   2.398  0.00  0.00    -0.073 S 
ATOM      8  C   UNL     1       0.423  -4.611   1.966  0.00  0.00    +0.114 A 
ATOM      9  C   UNL     1      -0.524  -4.138   1.043  0.00  0.00    +0.055 A 
ATOM     10  C   UNL     1      -1.440  -5.164   0.507  0.00  0.00    +0.168 A 
ATOM     11  N   UNL     1      -2.437  -5.126  -0.354  0.00  0.00    -0.206 NA
ATOM     12  C   UNL     1      -2.951  -6.352  -0.495  0.00  0.00    +0.186 A 
ATOM     13  N   UNL     1      -2.288  -7.194   0.274  0.00  0.00    -0.143 NA
ATOM     14  N   UNL     1      -1.300  -6.453   0.939  0.00  0.00    -0.201 N 
ATOM     15  C   UNL     1      -0.336  -6.782   1.840  0.00  0.00    +0.226 A 
ATOM     16  N   UNL     1       0.482  -5.888   2.323  0.00  0.00    -0.228 NA
ATOM     17  C   UNL     1       0.738  -0.516   1.249  0.00  0.00    +0.046 C 
ENDROOT
BRANCH  12  18
ATOM     18  C   UNL     1      -4.087  -6.709  -1.379  0.00  0.00    +0.062 A 
ATOM     19  C   UNL     1      -4.706  -5.731  -2.153  0.00  0.00    +0.015 A 
ATOM     20  C   UNL     1      -5.763  -6.068  -2.974  0.00  0.00    +0.001 A 
ATOM     21  C   UNL     1      -6.210  -7.377  -3.032  0.00  0.00    +0.004 A 
ATOM     22  C   UNL     1      -5.604  -8.355  -2.268  0.00  0.00    +0.046 A 
ATOM     23  C   UNL     1      -4.538  -8.031  -1.444  0.00  0.00    +0.128 A 
BRANCH  23  24
ATOM     24  O   UNL     1      -3.937  -8.993  -0.697  0.00  0.00    -0.506 OA
ATOM     25  H   UNL     1      -4.327  -9.112   0.180  0.00  0.00    +0.292 HD
ENDBRANCH  23  24
ENDBRANCH  12  18
TORSDOF 2
