REMARK  Name = ZINC63513915
REMARK  11 active torsions:
REMARK  status: ('A' for Active; 'I' for Inactive)
REMARK    1  A    between atoms: C_1  and  C_2
REMARK    2  A    between atoms: C_7  and  N_8
REMARK    3  A    between atoms: C_9  and  C_11
REMARK    4  A    between atoms: C_11  and  N_16
REMARK    5  A    between atoms: N_16  and  C_17
REMARK    6  A    between atoms: C_17  and  C_18
REMARK    7  A    between atoms: C_18  and  C_19
REMARK    8  A    between atoms: C_22  and  O_30
REMARK    9  A    between atoms: C_27  and  C_29
REMARK   10  A    between atoms: O_30  and  C_31
REMARK   11  A    between atoms: C_32  and  C_34
REMARK                            x       y       z     vdW  Elec       q    Type
REMARK                         _______ _______ _______ _____ _____    ______ ____
ROOT
ATOM      1  N   UNL     1       0.233   1.527   5.017  0.00  0.00    -0.283 N 
ATOM      2  C   UNL     1      -0.881   1.502   5.774  0.00  0.00    +0.250 C 
ATOM      3  O   UNL     1      -1.790   2.277   5.545  0.00  0.00    -0.270 OA
ENDROOT
BRANCH   2   4
ATOM      4  C   UNL     1      -0.998   0.534   6.883  0.00  0.00    +0.072 A 
ATOM      5  C   UNL     1      -0.493  -0.760   6.742  0.00  0.00    +0.016 A 
ATOM      6  C   UNL     1      -0.605  -1.659   7.781  0.00  0.00    +0.001 A 
ATOM      7  C   UNL     1      -1.218  -1.283   8.964  0.00  0.00    +0.003 A 
ATOM      8  C   UNL     1      -1.722  -0.005   9.114  0.00  0.00    +0.039 A 
ATOM      9  C   UNL     1      -1.611   0.910   8.083  0.00  0.00    +0.135 A 
ATOM     10  F   UNL     1      -2.099   2.161   8.231  0.00  0.00    -0.205 F 
ENDBRANCH   2   4
BRANCH   1  11
ATOM     11  C   UNL     1       0.909   0.276   4.666  0.00  0.00    +0.114 C 
ATOM     12  C   UNL     1       2.035   0.549   3.648  0.00  0.00    +0.035 C 
ATOM     13  C   UNL     1       3.311   0.678   4.518  0.00  0.00    +0.003 C 
ATOM     14  C   UNL     1       3.091  -0.400   5.608  0.00  0.00    +0.003 C 
ATOM     15  C   UNL     1       1.580  -0.328   5.912  0.00  0.00    +0.035 C 
BRANCH  11  17
ATOM     16  N   UNL     1      -1.401  -0.536   4.314  0.00  0.00    -0.283 N 
ATOM     17  C   UNL     1      -0.082  -0.702   4.089  0.00  0.00    +0.241 C 
ATOM     18  O   UNL     1       0.306  -1.637   3.422  0.00  0.00    -0.273 OA
ATOM     19  H   UNL     1      -1.704   0.131   4.950  0.00  0.00    +0.155 HD
BRANCH  16  26
ATOM     20  C   UNL     1      -3.981   0.555   3.816  0.00  0.00    +0.045 C 
ATOM     21  C   UNL     1      -3.602  -0.832   3.366  0.00  0.00    -0.029 A 
ATOM     22  C   UNL     1      -4.517  -1.612   2.686  0.00  0.00    +0.005 A 
ATOM     23  C   UNL     1      -4.171  -2.886   2.273  0.00  0.00    +0.000 A 
ATOM     24  C   UNL     1      -2.908  -3.382   2.540  0.00  0.00    +0.002 A 
ATOM     25  C   UNL     1      -1.988  -2.607   3.219  0.00  0.00    +0.023 A 
ATOM     26  C   UNL     1      -2.332  -1.326   3.630  0.00  0.00    +0.036 A 
ENDBRANCH  16  26
ENDBRANCH  11  17
ENDBRANCH   1  11
BRANCH   1  27
ATOM     27  C   UNL     1       0.769   2.806   4.544  0.00  0.00    +0.113 C 
BRANCH  27  28
ATOM     28  C   UNL     1       0.203   3.114   3.156  0.00  0.00    +0.052 C 
BRANCH  28  29
ATOM     29  C   UNL     1       0.639   4.493   2.731  0.00  0.00    -0.037 C 
ATOM     30  C   UNL     1       1.312   5.399   3.476  0.00  0.00    +0.003 A 
ATOM     31  C   UNL     1       1.820   5.376   4.851  0.00  0.00    +0.055 A 
ATOM     32  C   UNL     1       2.471   6.458   5.340  0.00  0.00    +0.121 A 
ATOM     33  C   UNL     1       2.683   7.617   4.573  0.00  0.00    +0.047 A 
ATOM     34  C   UNL     1       2.252   7.733   3.298  0.00  0.00    +0.029 A 
ATOM     35  C   UNL     1       1.535   6.620   2.668  0.00  0.00    +0.043 A 
ATOM     36  N   UNL     1       1.021   6.475   1.472  0.00  0.00    -0.378 N 
ATOM     37  C   UNL     1       0.417   5.140   1.382  0.00  0.00    +0.103 C 
ATOM     38  C   UNL     1      -1.080   5.261   1.094  0.00  0.00    +0.035 C 
ATOM     39  H   UNL     1       1.039   7.137   0.764  0.00  0.00    +0.160 HD
BRANCH  32  40
ATOM     40  O   UNL     1       2.937   6.423   6.617  0.00  0.00    -0.495 OA
ATOM     41  C   UNL     1       3.618   7.586   7.092  0.00  0.00    +0.277 C 
ENDBRANCH  32  40
ENDBRANCH  28  29
ENDBRANCH  27  28
ENDBRANCH   1  27
TORSDOF 8
