REMARK  Name = ZINC35104910
REMARK  4 active torsions:
REMARK  status: ('A' for Active; 'I' for Inactive)
REMARK    1  A    between atoms: C_1  and  C_2
REMARK    2  A    between atoms: C_2  and  C_3
REMARK    3  A    between atoms: C_2  and  C_4
REMARK    4  A    between atoms: N_18  and  C_19
REMARK                            x       y       z     vdW  Elec       q    Type
REMARK                         _______ _______ _______ _____ _____    ______ ____
ROOT
ATOM      1  C   UNL     1      -2.000  -0.931   0.756  0.00  0.00    +0.219 C 
ATOM      2  O   UNL     1      -2.911  -0.183   0.469  0.00  0.00    -0.275 OA
ATOM      3  N   UNL     1      -1.998  -2.198   0.296  0.00  0.00    -0.286 N 
ATOM      4  C   UNL     1      -0.843  -3.080   0.456  0.00  0.00    +0.120 C 
ATOM      5  C   UNL     1      -1.294  -4.565   0.592  0.00  0.00    +0.090 C 
ATOM      6  S   UNL     1      -2.685  -4.539  -0.628  0.00  0.00    -0.133 S 
ATOM      7  C   UNL     1      -3.158  -2.780  -0.391  0.00  0.00    +0.086 C 
ATOM      8  C   UNL     1      -4.407  -2.699   0.476  0.00  0.00    +0.056 C 
ATOM      9  C   UNL     1      -4.787  -1.229   0.688  0.00  0.00    +0.112 C 
ATOM     10  N   UNL     1      -4.893  -0.576  -0.624  0.00  0.00    -0.285 N 
ATOM     11  C   UNL     1      -3.753  -0.652  -1.548  0.00  0.00    +0.112 C 
ATOM     12  C   UNL     1      -3.379  -2.125  -1.747  0.00  0.00    +0.056 C 
ATOM     13  C   UNL     1      -6.017   0.081  -0.974  0.00  0.00    +0.306 C 
ATOM     14  O   UNL     1      -6.989   0.053  -0.244  0.00  0.00    -0.252 OA
ATOM     15  N   UNL     1      -6.063   0.767  -2.133  0.00  0.00    -0.269 N 
ATOM     16  H   UNL     1      -5.329   0.705  -2.763  0.00  0.00    +0.156 HD
ENDROOT
BRANCH  15  17
ATOM     17  C   UNL     1      -7.171   1.571  -2.426  0.00  0.00    +0.035 A 
ATOM     18  C   UNL     1      -7.832   2.244  -1.407  0.00  0.00    +0.024 A 
ATOM     19  C   UNL     1      -8.924   3.037  -1.699  0.00  0.00    +0.017 A 
ATOM     20  C   UNL     1      -9.361   3.161  -3.006  0.00  0.00    +0.018 A 
ATOM     21  C   UNL     1      -8.704   2.491  -4.024  0.00  0.00    +0.017 A 
ATOM     22  C   UNL     1      -7.607   1.702  -3.738  0.00  0.00    +0.024 A 
ATOM     23 BR   UNL     1     -10.857   4.246  -3.403  0.00  0.00    -0.050 Br
ENDBRANCH  15  17
BRANCH   1  25
ATOM     24  C   UNL     1      -0.879   1.085   1.664  0.00  0.00    +0.017 C 
ATOM     25  C   UNL     1      -0.870  -0.444   1.626  0.00  0.00    +0.069 C 
ATOM     26  C   UNL     1      -1.046  -0.991   3.044  0.00  0.00    +0.017 C 
ENDBRANCH   1  25
TORSDOF 2
