REMARK  Name = ZINC66981793
REMARK  9 active torsions:
REMARK  status: ('A' for Active; 'I' for Inactive)
REMARK    1  A    between atoms: C_1  and  C_2
REMARK    2  A    between atoms: C_5  and  C_30
REMARK    3  A    between atoms: N_8  and  C_10
REMARK    4  A    between atoms: C_10  and  C_11
REMARK    5  A    between atoms: C_11  and  C_13
REMARK    6  A    between atoms: C_11  and  N_14
REMARK    7  A    between atoms: N_17  and  C_18
REMARK    8  A    between atoms: C_20  and  N_26
REMARK    9  A    between atoms: C_27  and  C_29
REMARK                            x       y       z     vdW  Elec       q    Type
REMARK                         _______ _______ _______ _____ _____    ______ ____
ROOT
ATOM      1  N   UNL     1       2.100   1.641   3.512  0.00  0.00    -0.298 N 
ATOM      2  C   UNL     1       1.171   2.387   4.142  0.00  0.00    +0.304 C 
ATOM      3  O   UNL     1       0.345   1.853   4.857  0.00  0.00    -0.253 OA
ATOM      4  N   UNL     1       1.157   3.725   3.980  0.00  0.00    -0.267 N 
ATOM      5  H   UNL     1       2.758   2.067   2.941  0.00  0.00    +0.150 HD
ATOM      6  H   UNL     1       1.862   4.159   3.475  0.00  0.00    +0.156 HD
ENDROOT
BRANCH   4   7
ATOM      7  C   UNL     1       0.123   4.488   4.540  0.00  0.00    +0.072 A 
ATOM      8  C   UNL     1      -1.109   3.905   4.797  0.00  0.00    +0.052 A 
ATOM      9  C   UNL     1      -2.131   4.662   5.351  0.00  0.00    +0.071 A 
ATOM     10  C   UNL     1      -1.918   6.004   5.648  0.00  0.00    +0.147 A 
ATOM     11  C   UNL     1      -0.689   6.584   5.390  0.00  0.00    +0.080 A 
ATOM     12  C   UNL     1       0.333   5.828   4.842  0.00  0.00    +0.147 A 
ATOM     13  F   UNL     1       1.535   6.395   4.597  0.00  0.00    -0.203 F 
ATOM     14  F   UNL     1      -2.912   6.742   6.188  0.00  0.00    -0.203 F 
BRANCH   9  15
ATOM     15  N   UNL     1      -3.376   4.075   5.612  0.00  0.00    -0.283 N 
ATOM     16  C   UNL     1      -3.771   2.993   4.913  0.00  0.00    +0.214 C 
ATOM     17  O   UNL     1      -3.095   2.586   3.992  0.00  0.00    -0.276 OA
ATOM     18  C   UNL     1      -5.051   2.286   5.277  0.00  0.00    +0.109 C 
ATOM     19  H   UNL     1      -3.955   4.449   6.295  0.00  0.00    +0.155 HD
ENDBRANCH   9  15
ENDBRANCH   4   7
BRANCH   1  20
ATOM     20  C   UNL     1       2.115   0.187   3.688  0.00  0.00    +0.055 C 
ATOM     21  C   UNL     1       2.902  -0.165   4.952  0.00  0.00    +0.026 C 
BRANCH  20  22
ATOM     22  C   UNL     1       2.779  -0.467   2.475  0.00  0.00    -0.057 C 
BRANCH  22  28
ATOM     23  C   UNL     1      -0.034   1.519   0.037  0.00  0.00    +0.005 C 
ATOM     24  C   UNL     1      -0.026  -0.011   0.025  0.00  0.00    -0.031 C 
ATOM     25  C   UNL     1       0.686  -0.509  -1.236  0.00  0.00    +0.003 C 
ATOM     26  C   UNL     1       2.147  -0.049  -1.200  0.00  0.00    -0.031 C 
ATOM     27  C   UNL     1       2.806  -0.565   0.080  0.00  0.00    -0.076 C 
ATOM     28  N   UNL     1       2.096  -0.033   1.249  0.00  0.00    +0.381 N 
ATOM     29  C   UNL     1       0.713  -0.528   1.260  0.00  0.00    -0.076 C 
ATOM     30  C   UNL     1       2.887  -0.606  -2.418  0.00  0.00    +0.005 C 
ATOM     31  H   UNL     1       2.091   0.975   1.209  0.00  0.00    -0.082 HD
ENDBRANCH  22  28
ENDBRANCH  20  22
ENDBRANCH   1  20
TORSDOF 5
