REMARK  Name = ZINC59294134
REMARK  9 active torsions:
REMARK  status: ('A' for Active; 'I' for Inactive)
REMARK    1  A    between atoms: C_1  and  C_2
REMARK    2  A    between atoms: C_2  and  C_3
REMARK    3  A    between atoms: C_10  and  C_12
REMARK    4  A    between atoms: C_14  and  N_20
REMARK    5  A    between atoms: C_16  and  C_19
REMARK    6  A    between atoms: C_17  and  O_18
REMARK    7  A    between atoms: N_20  and  C_21
REMARK    8  A    between atoms: C_21  and  N_23
REMARK    9  A    between atoms: C_24  and  C_26
REMARK                            x       y       z     vdW  Elec       q    Type
REMARK                         _______ _______ _______ _____ _____    ______ ____
ROOT
ATOM      1  C   UNL     1      -6.497  -2.656  -2.316  0.00  0.00    +0.080 A 
ATOM      2  C   UNL     1      -6.515  -2.671  -3.712  0.00  0.00    +0.040 A 
ATOM      3  C   UNL     1      -7.715  -2.831  -4.383  0.00  0.00    +0.034 A 
ATOM      4  C   UNL     1      -8.900  -2.978  -3.671  0.00  0.00    +0.030 A 
ATOM      5  C   UNL     1      -8.889  -2.964  -2.290  0.00  0.00    -0.007 A 
ATOM      6  C   UNL     1      -7.694  -2.810  -1.605  0.00  0.00    +0.132 A 
ATOM      7  C   UNL     1     -10.178  -3.123  -1.526  0.00  0.00    +0.047 C 
ENDROOT
BRANCH   1  15
ATOM      8  C   UNL     1      -1.032  -1.929  -0.023  0.00  0.00    -0.045 A 
ATOM      9  C   UNL     1      -1.701  -2.011   1.190  0.00  0.00    +0.007 A 
ATOM     10  C   UNL     1      -3.069  -2.191   1.224  0.00  0.00    +0.049 A 
ATOM     11  C   UNL     1      -3.782  -2.289   0.039  0.00  0.00    +0.156 A 
ATOM     12  C   UNL     1      -3.109  -2.207  -1.190  0.00  0.00    +0.110 A 
ATOM     13  C   UNL     1      -1.724  -2.020  -1.209  0.00  0.00    +0.035 A 
ATOM     14  N   UNL     1      -4.051  -2.335  -2.160  0.00  0.00    -0.209 NA
ATOM     15  C   UNL     1      -5.221  -2.486  -1.593  0.00  0.00    +0.232 A 
ATOM     16  O   UNL     1      -5.091  -2.463  -0.253  0.00  0.00    -0.435 OA
BRANCH   8  18
ATOM     17  C   UNL     1       0.780  -0.237  -0.047  0.00  0.00    +0.009 C 
ATOM     18  C   UNL     1       0.462  -1.733  -0.041  0.00  0.00    +0.032 C 
ENDBRANCH   8  18
ENDBRANCH   1  15
BRANCH   6  19
ATOM     19  O   UNL     1      -7.684  -2.804  -0.246  0.00  0.00    -0.506 OA
ATOM     20  H   UNL     1      -7.796  -1.926   0.143  0.00  0.00    +0.292 HD
ENDBRANCH   6  19
BRANCH   3  21
ATOM     21  N   UNL     1      -7.736  -2.846  -5.784  0.00  0.00    -0.297 N 
ATOM     22  H   UNL     1      -8.434  -2.374  -6.264  0.00  0.00    +0.154 HD
BRANCH  21  23
ATOM     23  C   UNL     1      -6.785  -3.516  -6.465  0.00  0.00    +0.141 C 
ATOM     24  S   UNL     1      -5.637  -4.465  -5.622  0.00  0.00    -0.018 S 
BRANCH  23  25
ATOM     25  N   UNL     1      -6.739  -3.438  -7.810  0.00  0.00    -0.264 N 
ATOM     26  C   UNL     1      -5.788  -4.108  -8.491  0.00  0.00    +0.250 C 
ATOM     27  O   UNL     1      -4.973  -4.782  -7.893  0.00  0.00    -0.270 OA
ATOM     28  H   UNL     1      -7.390  -2.901  -8.288  0.00  0.00    +0.157 HD
BRANCH  26  29
ATOM     29  C   UNL     1      -5.737  -4.023  -9.964  0.00  0.00    +0.039 A 
ATOM     30  C   UNL     1      -6.684  -3.235 -10.646  0.00  0.00    +0.015 A 
ATOM     31  C   UNL     1      -6.672  -3.131 -11.991  0.00  0.00    +0.031 A 
ATOM     32  C   UNL     1      -5.693  -3.821 -12.760  0.00  0.00    +0.100 A 
ATOM     33  C   UNL     1      -4.707  -4.641 -12.065  0.00  0.00    +0.101 A 
ATOM     34  C   UNL     1      -4.760  -4.713 -10.650  0.00  0.00    +0.043 A 
ATOM     35  N   UNL     1      -3.844  -5.238 -12.892  0.00  0.00    -0.191 NA
ATOM     36  S   UNL     1      -4.276  -4.781 -14.372  0.00  0.00    +0.116 S 
ATOM     37  N   UNL     1      -5.540  -3.829 -14.084  0.00  0.00    -0.191 NA
ENDBRANCH  26  29
ENDBRANCH  23  25
ENDBRANCH  21  23
ENDBRANCH   3  21
TORSDOF 7
