REMARK  Name = ZINC60358032
REMARK  7 active torsions:
REMARK  status: ('A' for Active; 'I' for Inactive)
REMARK    1  A    between atoms: C_1  and  C_2
REMARK    2  A    between atoms: C_2  and  C_4
REMARK    3  A    between atoms: C_2  and  N_18
REMARK    4  A    between atoms: C_9  and  N_10
REMARK    5  A    between atoms: N_13  and  C_16
REMARK    6  A    between atoms: N_18  and  S_19
REMARK    7  A    between atoms: S_19  and  C_22
REMARK                            x       y       z     vdW  Elec       q    Type
REMARK                         _______ _______ _______ _____ _____    ______ ____
ROOT
ATOM      1  C   UNL     1      -0.001   1.526  -0.026  0.00  0.00    +0.031 C 
ATOM      2  C   UNL     1       0.002  -0.004   0.002  0.00  0.00    +0.105 C 
ENDROOT
BRANCH   2   3
ATOM      3  C   UNL     1       0.575  -0.481   1.312  0.00  0.00    -0.005 A 
ATOM      4  C   UNL     1      -0.263  -0.745   2.378  0.00  0.00    +0.045 A 
ATOM      5  C   UNL     1       0.263  -1.184   3.581  0.00  0.00    +0.124 A 
ATOM      6  C   UNL     1       1.629  -1.360   3.719  0.00  0.00    +0.040 A 
ATOM      7  C   UNL     1       2.471  -1.097   2.656  0.00  0.00    +0.026 A 
ATOM      8  C   UNL     1       1.945  -0.663   1.446  0.00  0.00    +0.034 A 
ATOM      9  F   UNL     1      -0.559  -1.441   4.622  0.00  0.00    -0.205 F 
BRANCH   8  10
ATOM     10  N   UNL     1       2.795  -0.402   0.366  0.00  0.00    -0.333 N 
ATOM     11  C   UNL     1       3.380   0.933   0.169  0.00  0.00    +0.086 C 
ATOM     12  C   UNL     1       4.891   0.776  -0.031  0.00  0.00    -0.060 C 
ATOM     13  N   UNL     1       5.143  -0.164  -1.130  0.00  0.00    +0.380 N 
ATOM     14  C   UNL     1       4.652  -1.500  -0.768  0.00  0.00    -0.060 C 
ATOM     15  C   UNL     1       3.134  -1.458  -0.601  0.00  0.00    +0.086 C 
ATOM     16  C   UNL     1       6.587  -0.230  -1.394  0.00  0.00    -0.096 C 
ATOM     17  H   UNL     1       4.666   0.154  -1.960  0.00  0.00    -0.082 HD
ENDBRANCH   8  10
ENDBRANCH   2   3
BRANCH   2  18
ATOM     18  N   UNL     1      -1.370  -0.497  -0.140  0.00  0.00    -0.183 NA
ATOM     19  H   UNL     1      -1.946  -0.558   0.638  0.00  0.00    +0.149 HD
BRANCH  18  20
ATOM     20  S   UNL     1      -1.937  -0.953  -1.627  0.00  0.00    +0.059 S 
ATOM     21  O   UNL     1      -3.271  -1.403  -1.434  0.00  0.00    -0.153 OA
ATOM     22  O   UNL     1      -1.611   0.100  -2.525  0.00  0.00    -0.153 OA
BRANCH  20  23
ATOM     23  C   UNL     1      -1.000  -2.356  -2.135  0.00  0.00    +0.107 A 
ATOM     24  C   UNL     1       0.168  -2.183  -2.854  0.00  0.00    +0.031 A 
ATOM     25  C   UNL     1       0.904  -3.283  -3.252  0.00  0.00    +0.042 A 
ATOM     26  C   UNL     1       0.472  -4.559  -2.932  0.00  0.00    +0.142 A 
ATOM     27  C   UNL     1      -0.699  -4.731  -2.211  0.00  0.00    +0.078 A 
ATOM     28  C   UNL     1      -1.431  -3.628  -1.809  0.00  0.00    +0.051 A 
ATOM     29 CL   UNL     1      -1.243  -6.329  -1.807  0.00  0.00    -0.081 Cl
ATOM     30  F   UNL     1       1.191  -5.634  -3.321  0.00  0.00    -0.204 F 
ENDBRANCH  20  23
ENDBRANCH  18  20
ENDBRANCH   2  18
TORSDOF 5
