REMARK  Name = ZINC20866967
REMARK  10 active torsions:
REMARK  status: ('A' for Active; 'I' for Inactive)
REMARK    1  A    between atoms: C_1  and  C_2
REMARK    2  A    between atoms: C_3  and  C_14
REMARK    3  A    between atoms: C_4  and  C_13
REMARK    4  A    between atoms: C_9  and  C_11
REMARK    5  A    between atoms: C_11  and  N_12
REMARK    6  A    between atoms: C_14  and  C_15
REMARK    7  A    between atoms: C_15  and  C_16
REMARK    8  A    between atoms: N_18  and  C_19
REMARK    9  A    between atoms: C_23  and  N_25
REMARK   10  A    between atoms: C_26  and  C_28
REMARK                            x       y       z     vdW  Elec       q    Type
REMARK                         _______ _______ _______ _____ _____    ______ ____
ROOT
ATOM      1  C   UNL     1      -4.091  -8.916   0.558  0.00  0.00    +0.048 C 
ENDROOT
BRANCH   1   4
ATOM      2  C   UNL     1      -5.531  -9.920  -1.766  0.00  0.00    +0.066 C 
ATOM      3  C   UNL     1      -6.012 -10.258  -0.378  0.00  0.00    +0.047 A 
ATOM      4  C   UNL     1      -5.317  -9.773   0.738  0.00  0.00    -0.005 A 
ATOM      5  C   UNL     1      -5.758 -10.089   1.982  0.00  0.00    +0.048 A 
ATOM      6  N   UNL     1      -6.870 -10.861   2.112  0.00  0.00    -0.201 N 
ATOM      7  C   UNL     1      -7.525 -11.318   1.003  0.00  0.00    +0.253 A 
ATOM      8  N   UNL     1      -7.080 -11.005  -0.220  0.00  0.00    -0.216 NA
ATOM      9  N   UNL     1      -8.557 -12.040   1.425  0.00  0.00    -0.196 NA
ATOM     10  C   UNL     1      -8.579 -12.057   2.751  0.00  0.00    +0.136 A 
ATOM     11  N   UNL     1      -7.575 -11.354   3.218  0.00  0.00    -0.151 NA
ATOM     12  C   UNL     1      -5.029  -9.588   3.202  0.00  0.00    +0.066 C 
BRANCH  10  13
ATOM     13  C   UNL     1      -9.603 -12.774   3.593  0.00  0.00    -0.007 C 
BRANCH  13  14
ATOM     14  N   UNL     1     -10.730 -11.872   3.868  0.00  0.00    +0.383 N 
ATOM     15  H   UNL     1     -11.477 -12.396   4.482  0.00  0.00    -0.089 HD
ATOM     16  H   UNL     1     -11.189 -11.560   2.918  0.00  0.00    -0.089 HD
ATOM     17  H   UNL     1     -10.366 -10.986   4.408  0.00  0.00    -0.089 HD
ENDBRANCH  13  14
ENDBRANCH  10  13
ENDBRANCH   1   4
BRANCH   1  18
ATOM     18  C   UNL     1      -4.503  -7.443   0.499  0.00  0.00    +0.101 C 
BRANCH  18  19
ATOM     19  C   UNL     1      -3.277  -6.586   0.319  0.00  0.00    +0.218 C 
ATOM     20  O   UNL     1      -2.181  -7.101   0.246  0.00  0.00    -0.275 OA
ATOM     21  N   UNL     1      -3.397  -5.246   0.240  0.00  0.00    -0.285 N 
ATOM     22  H   UNL     1      -4.395  -4.783   0.229  0.00  0.00    +0.155 HD
BRANCH  21  23
ATOM     23  C   UNL     1      -2.253  -4.443   0.171  0.00  0.00    +0.035 A 
ATOM     24  C   UNL     1      -2.239  -3.198   0.788  0.00  0.00    +0.023 A 
ATOM     25  C   UNL     1      -1.110  -2.405   0.720  0.00  0.00    +0.004 A 
ATOM     26  C   UNL     1       0.009  -2.847   0.040  0.00  0.00    +0.023 A 
ATOM     27  C   UNL     1       0.001  -4.091  -0.579  0.00  0.00    +0.035 A 
ATOM     28  C   UNL     1      -1.134  -4.887  -0.517  0.00  0.00    +0.046 A 
BRANCH  27  29
ATOM     29  N   UNL     1       1.134  -4.537  -1.268  0.00  0.00    -0.286 N 
ATOM     30  C   UNL     1       2.364  -4.223  -0.817  0.00  0.00    +0.214 C 
ATOM     31  O   UNL     1       2.490  -3.484   0.137  0.00  0.00    -0.276 OA
ATOM     32  C   UNL     1       3.584  -4.789  -1.497  0.00  0.00    +0.109 C 
ATOM     33  H   UNL     1       1.020  -5.146  -2.177  0.00  0.00    +0.155 HD
ENDBRANCH  27  29
ENDBRANCH  21  23
ENDBRANCH  18  19
ENDBRANCH   1  18
TORSDOF 7
