REMARK  Name = ZINC06177507
REMARK  6 active torsions:
REMARK  status: ('A' for Active; 'I' for Inactive)
REMARK    1  A    between atoms: C_4  and  C_7
REMARK    2  A    between atoms: C_8  and  S_9
REMARK    3  A    between atoms: S_9  and  N_12
REMARK    4  A    between atoms: N_12  and  C_13
REMARK    5  A    between atoms: C_16  and  C_19
REMARK    6  A    between atoms: N_21  and  C_22
REMARK                            x       y       z     vdW  Elec       q    Type
REMARK                         _______ _______ _______ _____ _____    ______ ____
ROOT
ATOM      1  C   UNL     1       1.376   2.054  -0.227  0.00  0.00    +0.048 A 
ATOM      2  C   UNL     1       2.447   1.341   0.305  0.00  0.00    +0.025 A 
ATOM      3  C   UNL     1       3.738   1.734   0.038  0.00  0.00    +0.015 A 
ATOM      4  C   UNL     1       3.974   2.857  -0.760  0.00  0.00    +0.037 A 
ATOM      5  C   UNL     1       2.897   3.575  -1.288  0.00  0.00    +0.015 A 
ATOM      6  C   UNL     1       1.608   3.174  -1.022  0.00  0.00    +0.025 A 
ENDROOT
BRANCH   4   7
ATOM      7  C   UNL     1       5.357   3.284  -1.044  0.00  0.00    +0.248 C 
ATOM      8  O   UNL     1       5.561   4.261  -1.739  0.00  0.00    -0.270 OA
ATOM      9  N   UNL     1       6.395   2.591  -0.534  0.00  0.00    -0.280 N 
ATOM     10  H   UNL     1       6.233   1.854   0.075  0.00  0.00    +0.155 HD
BRANCH   9  11
ATOM     11  C   UNL     1       7.705   2.936  -0.883  0.00  0.00    +0.052 A 
ATOM     12  C   UNL     1       8.038   4.264  -1.112  0.00  0.00    +0.025 A 
ATOM     13  C   UNL     1       9.334   4.601  -1.452  0.00  0.00    +0.002 A 
ATOM     14  C   UNL     1      10.297   3.616  -1.574  0.00  0.00    +0.002 A 
ATOM     15  C   UNL     1       9.969   2.292  -1.352  0.00  0.00    +0.022 A 
ATOM     16  C   UNL     1       8.675   1.948  -1.007  0.00  0.00    +0.062 A 
ATOM     17 CL   UNL     1       8.263   0.285  -0.729  0.00  0.00    -0.082 Cl
ENDBRANCH   9  11
ENDBRANCH   4   7
BRANCH   1  18
ATOM     18  N   UNL     1       0.072   1.651   0.040  0.00  0.00    -0.217 N 
ATOM     19  H   UNL     1      -0.590   2.304   0.314  0.00  0.00    +0.174 HD
BRANCH  18  20
ATOM     20  S   UNL     1      -0.351   0.058  -0.117  0.00  0.00    +0.066 S 
ATOM     21  O   UNL     1       0.628  -0.693   0.589  0.00  0.00    -0.151 OA
ATOM     22  O   UNL     1      -1.737  -0.025   0.183  0.00  0.00    -0.151 OA
BRANCH  20  24
ATOM     23  C   UNL     1       0.724  -1.261  -2.191  0.00  0.00    +0.028 C 
ATOM     24  C   UNL     1      -0.177  -0.362  -1.819  0.00  0.00    +0.157 C 
BRANCH  23  28
ATOM     25  C   UNL     1       1.143  -2.275  -6.294  0.00  0.00    +0.000 A 
ATOM     26  C   UNL     1       1.948  -2.884  -5.348  0.00  0.00    +0.001 A 
ATOM     27  C   UNL     1       1.817  -2.560  -4.014  0.00  0.00    +0.008 A 
ATOM     28  C   UNL     1       0.870  -1.614  -3.619  0.00  0.00    -0.024 A 
ATOM     29  C   UNL     1       0.057  -1.007  -4.577  0.00  0.00    +0.008 A 
ATOM     30  C   UNL     1       0.202  -1.336  -5.909  0.00  0.00    +0.001 A 
ENDBRANCH  23  28
ENDBRANCH  20  24
ENDBRANCH  18  20
ENDBRANCH   1  18
TORSDOF 6
