REMARK  Name = ZINC11407031
REMARK  9 active torsions:
REMARK  status: ('A' for Active; 'I' for Inactive)
REMARK    1  A    between atoms: C_3  and  S_27
REMARK    2  A    between atoms: C_6  and  C_7
REMARK    3  A    between atoms: C_7  and  C_8
REMARK    4  A    between atoms: C_8  and  N_9
REMARK    5  A    between atoms: C_10  and  C_12
REMARK    6  A    between atoms: C_12  and  C_13
REMARK    7  A    between atoms: C_13  and  C_14
REMARK    8  A    between atoms: C_17  and  C_19
REMARK    9  A    between atoms: S_27  and  N_30
REMARK                            x       y       z     vdW  Elec       q    Type
REMARK                         _______ _______ _______ _____ _____    ______ ____
ROOT
ATOM      1  N   UNL     1       6.220   0.672  -2.662  0.00  0.00    -0.315 N 
ATOM      2  C   UNL     1       5.557   0.667  -1.489  0.00  0.00    +0.213 C 
ATOM      3  O   UNL     1       6.173   0.660  -0.444  0.00  0.00    -0.276 OA
ATOM      4  H   UNL     1       5.727   0.678  -3.498  0.00  0.00    +0.149 HD
ENDROOT
BRANCH   1   5
ATOM      5  C   UNL     1       7.685   0.668  -2.676  0.00  0.00    +0.109 C 
BRANCH   5   6
ATOM      6  C   UNL     1       8.181   0.675  -4.123  0.00  0.00    +0.054 C 
BRANCH   6  12
ATOM      7  C   UNL     1      10.383   1.866  -4.142  0.00  0.00    +0.005 A 
ATOM      8  C   UNL     1      11.765   1.862  -4.151  0.00  0.00    +0.029 A 
ATOM      9  C   UNL     1      12.453   0.663  -4.163  0.00  0.00    +0.105 A 
ATOM     10  C   UNL     1      11.758  -0.532  -4.163  0.00  0.00    +0.029 A 
ATOM     11  C   UNL     1      10.376  -0.528  -4.150  0.00  0.00    +0.005 A 
ATOM     12  C   UNL     1       9.688   0.671  -4.137  0.00  0.00    -0.046 A 
BRANCH   9  13
ATOM     13  S   UNL     1      14.215   0.658  -4.178  0.00  0.00    +0.056 S 
ATOM     14  O   UNL     1      14.629   1.900  -3.625  0.00  0.00    -0.153 OA
ATOM     15  O   UNL     1      14.622  -0.591  -3.637  0.00  0.00    -0.153 OA
BRANCH  13  16
ATOM     16  N   UNL     1      14.691   0.664  -5.764  0.00  0.00    -0.204 NA
ATOM     17  H   UNL     1      15.528   1.083  -6.018  0.00  0.00    +0.144 HD
ATOM     18  H   UNL     1      14.132   0.249  -6.440  0.00  0.00    +0.144 HD
ENDBRANCH  13  16
ENDBRANCH   9  13
ENDBRANCH   6  12
ENDBRANCH   5   6
ENDBRANCH   1   5
BRANCH   2  19
ATOM     19  C   UNL     1       4.050   0.671  -1.475  0.00  0.00    +0.105 C 
BRANCH  19  20
ATOM     20  C   UNL     1       3.553   0.665  -0.028  0.00  0.00    +0.105 C 
BRANCH  20  21
ATOM     21  C   UNL     1       2.046   0.669  -0.014  0.00  0.00    +0.197 A 
ATOM     22  N   UNL     1       1.287  -0.390  -0.012  0.00  0.00    -0.221 NA
ATOM     23  C   UNL     1       0.002  -0.004   0.002  0.00  0.00    +0.161 A 
ATOM     24  C   UNL     1      -0.016   1.353   0.009  0.00  0.00    +0.157 A 
ATOM     25  O   UNL     1       1.271   1.762  -0.001  0.00  0.00    -0.440 OA
BRANCH  24  26
ATOM     26  C   UNL     1      -1.215   2.218   0.020  0.00  0.00    +0.037 A 
ATOM     27  C   UNL     1      -1.327   3.249   0.954  0.00  0.00    +0.014 A 
ATOM     28  C   UNL     1      -2.446   4.056   0.956  0.00  0.00    +0.021 A 
ATOM     29  C   UNL     1      -3.462   3.839   0.041  0.00  0.00    +0.042 A 
ATOM     30  C   UNL     1      -3.360   2.815  -0.885  0.00  0.00    +0.040 A 
ATOM     31  C   UNL     1      -2.243   2.004  -0.901  0.00  0.00    +0.053 A 
ATOM     32 CL   UNL     1      -2.116   0.720  -2.063  0.00  0.00    -0.083 Cl
ATOM     33 CL   UNL     1      -4.870   4.854   0.055  0.00  0.00    -0.083 Cl
ENDBRANCH  24  26
ENDBRANCH  20  21
ENDBRANCH  19  20
ENDBRANCH   2  19
TORSDOF 9
