REMARK  Name = ZINC20552418
REMARK  6 active torsions:
REMARK  status: ('A' for Active; 'I' for Inactive)
REMARK    1  A    between atoms: C_1  and  C_2
REMARK    2  A    between atoms: C_2  and  C_4
REMARK    3  A    between atoms: C_2  and  O_15
REMARK    4  A    between atoms: N_6  and  C_7
REMARK    5  A    between atoms: C_12  and  N_13
REMARK    6  A    between atoms: O_15  and  C_16
REMARK                            x       y       z     vdW  Elec       q    Type
REMARK                         _______ _______ _______ _____ _____    ______ ____
ROOT
ATOM      1  C   UNL     1       0.105   1.175  -0.274  0.00  0.00    +0.258 C 
ATOM      2  O   UNL     1       0.374   0.154  -0.871  0.00  0.00    -0.271 OA
ATOM      3  N   UNL     1      -1.163   1.412   0.117  0.00  0.00    -0.281 N 
ATOM      4  H   UNL     1      -1.390   2.285   0.746  0.00  0.00    +0.155 HD
ENDROOT
BRANCH   3   5
ATOM      5  C   UNL     1      -2.192   0.545  -0.277  0.00  0.00    +0.054 A 
ATOM      6  C   UNL     1      -2.013  -0.298  -1.363  0.00  0.00    +0.026 A 
ATOM      7  C   UNL     1      -3.028  -1.152  -1.750  0.00  0.00    +0.022 A 
ATOM      8  C   UNL     1      -4.226  -1.169  -1.056  0.00  0.00    +0.043 A 
ATOM      9  C   UNL     1      -4.413  -0.331   0.028  0.00  0.00    +0.044 A 
ATOM     10  C   UNL     1      -3.397   0.525   0.426  0.00  0.00    +0.047 A 
ATOM     11 CL   UNL     1      -5.496  -2.245  -1.548  0.00  0.00    -0.083 Cl
BRANCH  10  12
ATOM     12  N   UNL     1      -3.581   1.369   1.526  0.00  0.00    -0.356 N 
ATOM     13  H   UNL     1      -4.531   1.351   2.080  0.00  0.00    +0.142 HD
ATOM     14  H   UNL     1      -2.775   2.049   1.839  0.00  0.00    +0.142 HD
ENDBRANCH  10  12
ENDBRANCH   3   5
BRANCH   1  16
ATOM     15  C   UNL     1       0.835   3.518  -0.631  0.00  0.00    +0.062 C 
ATOM     16  C   UNL     1       1.186   2.181   0.025  0.00  0.00    +0.256 C 
BRANCH  16  17
ATOM     17  O   UNL     1       2.432   1.709  -0.492  0.00  0.00    -0.480 OA
BRANCH  17  18
ATOM     18  C   UNL     1       3.563   2.194   0.085  0.00  0.00    +0.122 A 
ATOM     19  C   UNL     1       4.802   1.692  -0.286  0.00  0.00    +0.047 A 
ATOM     20  C   UNL     1       5.951   2.190   0.297  0.00  0.00    +0.019 A 
ATOM     21  C   UNL     1       5.865   3.182   1.258  0.00  0.00    +0.018 A 
ATOM     22  C   UNL     1       4.631   3.680   1.634  0.00  0.00    +0.019 A 
ATOM     23  C   UNL     1       3.480   3.188   1.049  0.00  0.00    +0.047 A 
ATOM     24 BR   UNL     1       7.439   3.857   2.060  0.00  0.00    -0.050 Br
ENDBRANCH  17  18
ENDBRANCH  16  17
ENDBRANCH   1  16
TORSDOF 5
