REMARK  Name = ZINC02448423
REMARK  6 active torsions:
REMARK  status: ('A' for Active; 'I' for Inactive)
REMARK    1  A    between atoms: C_1  and  C_2
REMARK    2  A    between atoms: C_2  and  C_3
REMARK    3  A    between atoms: C_2  and  C_4
REMARK    4  A    between atoms: C_2  and  C_5
REMARK    5  A    between atoms: C_5  and  C_7
REMARK    6  A    between atoms: N_25  and  C_28
REMARK                            x       y       z     vdW  Elec       q    Type
REMARK                         _______ _______ _______ _____ _____    ______ ____
ROOT
ATOM      1  C   UNL     1      -1.213  -0.795   0.031  0.00  0.00    +0.136 C 
ATOM      2  C   UNL     1      -1.823  -1.031  -1.366  0.00  0.00    +0.116 C 
ATOM      3  C   UNL     1      -2.466  -2.445  -1.252  0.00  0.00    +0.113 C 
ATOM      4  C   UNL     1      -1.745  -3.121  -0.084  0.00  0.00    +0.100 C 
ATOM      5  C   UNL     1       0.136  -2.453   1.442  0.00  0.00    +0.054 C 
ATOM      6  C   UNL     1       0.755  -3.633   1.238  0.00  0.00    +0.022 C 
ATOM      7  C   UNL     1       0.355  -4.472   0.091  0.00  0.00    -0.019 A 
ATOM      8  C   UNL     1      -0.861  -4.243  -0.565  0.00  0.00    -0.021 A 
ATOM      9  C   UNL     1      -1.233  -5.032  -1.629  0.00  0.00    +0.006 A 
ATOM     10  C   UNL     1      -0.402  -6.053  -2.057  0.00  0.00    +0.000 A 
ATOM     11  C   UNL     1       0.803  -6.285  -1.419  0.00  0.00    +0.001 A 
ATOM     12  C   UNL     1       1.187  -5.503  -0.349  0.00  0.00    +0.008 A 
ATOM     13  C   UNL     1      -3.892  -2.116  -0.857  0.00  0.00    +0.232 C 
ATOM     14  O   UNL     1      -4.689  -2.890  -0.372  0.00  0.00    -0.274 OA
ATOM     15  N   UNL     1      -4.126  -0.823  -1.132  0.00  0.00    -0.210 N 
ATOM     16  C   UNL     1      -3.040  -0.140  -1.526  0.00  0.00    +0.232 C 
ATOM     17  O   UNL     1      -3.033   0.999  -1.940  0.00  0.00    -0.274 OA
ATOM     18  N   UNL     1      -1.168  -2.097   0.747  0.00  0.00    -0.384 NA
ATOM     19  H   UNL     1      -1.834  -1.990   1.522  0.00  0.00    +0.127 HD
ENDROOT
BRANCH  15  20
ATOM     20  C   UNL     1      -5.394  -0.236  -1.019  0.00  0.00    +0.047 A 
ATOM     21  C   UNL     1      -5.632   0.724  -0.045  0.00  0.00    +0.044 A 
ATOM     22  C   UNL     1      -6.882   1.304   0.062  0.00  0.00    +0.044 A 
ATOM     23  C   UNL     1      -7.899   0.921  -0.795  0.00  0.00    +0.040 A 
ATOM     24  C   UNL     1      -7.666  -0.041  -1.763  0.00  0.00    +0.044 A 
ATOM     25  C   UNL     1      -6.416  -0.620  -1.877  0.00  0.00    +0.044 A 
ATOM     26 CL   UNL     1      -8.945  -0.519  -2.835  0.00  0.00    -0.083 Cl
ATOM     27 CL   UNL     1      -7.178   2.510   1.274  0.00  0.00    -0.083 Cl
ENDBRANCH  15  20
BRANCH   1  28
ATOM     28  C   UNL     1       0.025   0.057  -0.080  0.00  0.00    +0.158 C 
ATOM     29  O   UNL     1       0.889  -0.235  -0.872  0.00  0.00    -0.295 OA
BRANCH  28  31
ATOM     30  C   UNL     1       1.542   1.923   0.524  0.00  0.00    +0.018 C 
ATOM     31  C   UNL     1       0.185   1.272   0.797  0.00  0.00    +0.022 C 
ATOM     32  C   UNL     1      -0.932   2.272   0.490  0.00  0.00    +0.018 C 
ATOM     33  C   UNL     1       0.105   0.854   2.267  0.00  0.00    +0.018 C 
ENDBRANCH  28  31
ENDBRANCH   1  28
TORSDOF 3
