REMARK  Name = ZINC00649633
REMARK  4 active torsions:
REMARK  status: ('A' for Active; 'I' for Inactive)
REMARK    1  A    between atoms: C_1  and  N_2
REMARK    2  A    between atoms: N_7  and  C_10
REMARK    3  A    between atoms: C_11  and  C_25
REMARK    4  A    between atoms: C_29  and  N_31
REMARK                            x       y       z     vdW  Elec       q    Type
REMARK                         _______ _______ _______ _____ _____    ______ ____
ROOT
ATOM      1  C   UNL     1       6.857   3.349   2.242  0.00  0.00    +0.155 C 
ATOM      2  N   UNL     1       5.395   3.261   2.265  0.00  0.00    -0.281 N 
ATOM      3  C   UNL     1       4.666   3.638   1.154  0.00  0.00    +0.146 A 
ATOM      4  C   UNL     1       3.291   3.545   1.194  0.00  0.00    +0.068 A 
ATOM      5  C   UNL     1       2.669   3.076   2.365  0.00  0.00    +0.262 A 
ATOM      6  O   UNL     1       1.454   2.990   2.424  0.00  0.00    -0.267 OA
ATOM      7  N   UNL     1       3.427   2.722   3.422  0.00  0.00    -0.264 N 
ATOM      8  C   UNL     1       4.768   2.814   3.368  0.00  0.00    +0.333 A 
ATOM      9  O   UNL     1       5.426   2.486   4.336  0.00  0.00    -0.246 OA
ATOM     10  C   UNL     1       2.783   2.232   4.643  0.00  0.00    +0.157 C 
ATOM     11  C   UNL     1       2.451   3.937  -0.001  0.00  0.00    +0.074 C 
ATOM     12  C   UNL     1       3.253   3.591  -1.256  0.00  0.00    +0.121 C 
ATOM     13  C   UNL     1       4.650   4.160  -1.073  0.00  0.00    +0.063 C 
ATOM     14  N   UNL     1       5.308   4.089   0.052  0.00  0.00    -0.233 NA
ATOM     15  C   UNL     1       4.991   4.842  -2.310  0.00  0.00    +0.008 A 
ATOM     16  C   UNL     1       6.211   5.391  -2.724  0.00  0.00    +0.010 A 
ATOM     17  C   UNL     1       6.234   6.022  -3.959  0.00  0.00    +0.001 A 
ATOM     18  C   UNL     1       5.110   6.118  -4.757  0.00  0.00    +0.001 A 
ATOM     19  C   UNL     1       3.889   5.578  -4.376  0.00  0.00    +0.012 A 
ATOM     20  C   UNL     1       3.839   4.922  -3.142  0.00  0.00    +0.027 A 
ATOM     21  C   UNL     1       2.709   4.254  -2.493  0.00  0.00    +0.174 C 
ATOM     22  O   UNL     1       1.560   4.238  -2.878  0.00  0.00    -0.291 OA
ENDROOT
BRANCH  11  23
ATOM     23  C   UNL     1       1.156   3.166   0.008  0.00  0.00    -0.036 A 
ATOM     24  C   UNL     1       1.175   1.783   0.000  0.00  0.00    +0.004 A 
ATOM     25  C   UNL     1      -0.013   1.076   0.008  0.00  0.00    +0.003 A 
ATOM     26  C   UNL     1      -1.219   1.751   0.017  0.00  0.00    +0.033 A 
ATOM     27  C   UNL     1      -1.238   3.133   0.030  0.00  0.00    +0.126 A 
ATOM     28  C   UNL     1      -0.050   3.840   0.022  0.00  0.00    +0.037 A 
BRANCH  27  29
ATOM     29  N   UNL     1      -2.530   3.855   0.045  0.00  0.00    +0.056 N 
ATOM     30  O   UNL     1      -2.546   5.073   0.051  0.00  0.00    -0.126 OA
ATOM     31  O   UNL     1      -3.576   3.232   0.052  0.00  0.00    -0.126 OA
ENDBRANCH  27  29
ENDBRANCH  11  23
TORSDOF 2
