REMARK  Name = ZINC20436907
REMARK  5 active torsions:
REMARK  status: ('A' for Active; 'I' for Inactive)
REMARK    1  A    between atoms: C_4  and  N_11
REMARK    2  A    between atoms: C_5  and  C_7
REMARK    3  A    between atoms: C_12  and  C_14
REMARK    4  A    between atoms: C_14  and  N_15
REMARK    5  A    between atoms: N_15  and  C_16
REMARK                            x       y       z     vdW  Elec       q    Type
REMARK                         _______ _______ _______ _____ _____    ______ ____
ROOT
ATOM      1  N   UNL     1       2.369   1.010  -0.021  0.00  0.00    -0.273 N 
ATOM      2  C   UNL     1       2.894   0.554   1.167  0.00  0.00    +0.136 C 
ATOM      3  N   UNL     1       2.446   0.797   2.397  0.00  0.00    -0.362 N 
ATOM      4  C   UNL     1       3.232   0.306   3.478  0.00  0.00    +0.117 C 
ATOM      5  C   UNL     1       2.780   0.198   4.922  0.00  0.00    +0.191 C 
ATOM      6  S   UNL     1       4.176  -0.795   5.627  0.00  0.00    -0.028 S 
ATOM      7  O   UNL     1       3.658  -1.995   6.183  0.00  0.00    -0.174 OA
ATOM      8  O   UNL     1       4.991   0.052   6.426  0.00  0.00    -0.174 OA
ATOM      9  C   UNL     1       5.077  -1.195   4.055  0.00  0.00    +0.182 C 
ATOM     10  C   UNL     1       3.905  -1.057   3.076  0.00  0.00    +0.099 C 
ATOM     11  S   UNL     1       4.340  -0.494   1.393  0.00  0.00    -0.085 S 
ATOM     12  H   UNL     1       1.509   1.354   2.541  0.00  0.00    +0.162 HD
ENDROOT
BRANCH   1  13
ATOM     13  C   UNL     1       2.908   0.577  -1.238  0.00  0.00    +0.036 A 
ATOM     14  C   UNL     1       3.536   1.483  -2.082  0.00  0.00    +0.026 A 
ATOM     15  C   UNL     1       4.073   1.052  -3.279  0.00  0.00    +0.040 A 
ATOM     16  C   UNL     1       3.976  -0.281  -3.643  0.00  0.00    +0.124 A 
ATOM     17  C   UNL     1       3.344  -1.185  -2.805  0.00  0.00    +0.040 A 
ATOM     18  C   UNL     1       2.811  -0.759  -1.604  0.00  0.00    +0.026 A 
ATOM     19  F   UNL     1       4.497  -0.700  -4.817  0.00  0.00    -0.205 F 
ENDBRANCH   1  13
BRANCH   1  20
ATOM     20  C   UNL     1       1.245   1.950  -0.011  0.00  0.00    +0.208 C 
BRANCH  20  22
ATOM     21  N   UNL     1      -1.227   1.843  -0.024  0.00  0.00    -0.284 N 
ATOM     22  C   UNL     1      -0.052   1.182  -0.024  0.00  0.00    +0.235 C 
ATOM     23  O   UNL     1      -0.039  -0.030  -0.039  0.00  0.00    -0.274 OA
ATOM     24  H   UNL     1      -1.240   2.940   0.056  0.00  0.00    +0.155 HD
BRANCH  21  28
ATOM     25  C   UNL     1      -4.805  -0.269  -0.328  0.00  0.00    +0.001 A 
ATOM     26  C   UNL     1      -3.683  -0.884   0.197  0.00  0.00    +0.002 A 
ATOM     27  C   UNL     1      -2.494  -0.188   0.294  0.00  0.00    +0.024 A 
ATOM     28  C   UNL     1      -2.429   1.134  -0.125  0.00  0.00    +0.045 A 
ATOM     29  C   UNL     1      -3.557   1.749  -0.651  0.00  0.00    +0.076 A 
ATOM     30  C   UNL     1      -4.742   1.046  -0.751  0.00  0.00    +0.014 A 
BRANCH  29  31
ATOM     31  C   UNL     1      -3.489   3.182  -1.113  0.00  0.00    +0.419 C 
ATOM     32  F   UNL     1      -4.740   3.575  -1.600  0.00  0.00    -0.166 F 
ATOM     33  F   UNL     1      -3.127   4.002  -0.039  0.00  0.00    -0.166 F 
ATOM     34  F   UNL     1      -2.535   3.299  -2.131  0.00  0.00    -0.166 F 
ENDBRANCH  29  31
ENDBRANCH  21  28
ENDBRANCH  20  22
ENDBRANCH   1  20
TORSDOF 5
