REMARK  Name = ZINC05441117
REMARK  2 active torsions:
REMARK  status: ('A' for Active; 'I' for Inactive)
REMARK    1  A    between atoms: C_7  and  C_8
REMARK    2  A    between atoms: N_25  and  C_26
REMARK                            x       y       z     vdW  Elec       q    Type
REMARK                         _______ _______ _______ _____ _____    ______ ____
ROOT
ATOM      1  C   UNL     1       2.693   1.726  -3.684  0.00  0.00    +0.015 A 
ATOM      2  C   UNL     1       3.265   0.490  -3.697  0.00  0.00    +0.071 A 
ATOM      3  C   UNL     1       3.354  -0.236  -2.500  0.00  0.00    +0.252 A 
ATOM      4  O   UNL     1       3.800  -1.372  -2.517  0.00  0.00    -0.268 OA
ATOM      5  N   UNL     1       2.952   0.307  -1.325  0.00  0.00    -0.311 N 
ATOM      6  C   UNL     1       2.297   1.489  -1.317  0.00  0.00    +0.034 A 
ATOM      7  C   UNL     1       2.179   2.223  -2.469  0.00  0.00    +0.005 A 
ATOM      8  C   UNL     1       1.668   2.053  -0.065  0.00  0.00    +0.054 C 
ATOM      9  C   UNL     1       2.417   1.536   1.167  0.00  0.00    +0.018 C 
ATOM     10  C   UNL     1       2.476   0.010   1.088  0.00  0.00    +0.027 C 
ATOM     11  C   UNL     1       3.314  -0.414  -0.104  0.00  0.00    +0.130 C 
ATOM     12  C   UNL     1       1.078  -0.591   1.046  0.00  0.00    +0.114 C 
ATOM     13  N   UNL     1       0.271   0.073   0.015  0.00  0.00    -0.285 N 
ATOM     14  C   UNL     1       0.218   1.544   0.002  0.00  0.00    +0.119 C 
ATOM     15  C   UNL     1      -0.408  -0.649  -0.899  0.00  0.00    +0.302 C 
ATOM     16  O   UNL     1      -1.143  -0.091  -1.690  0.00  0.00    -0.253 OA
ATOM     17  N   UNL     1      -0.271  -1.989  -0.936  0.00  0.00    -0.296 N 
ATOM     18  H   UNL     1       0.257  -2.442  -0.259  0.00  0.00    +0.151 HD
ENDROOT
BRANCH   7  19
ATOM     19  C   UNL     1       1.507   3.545  -2.438  0.00  0.00    +0.020 A 
ATOM     20  C   UNL     1       0.282   3.744  -3.080  0.00  0.00    +0.122 A 
ATOM     21  N   UNL     1      -0.285   4.937  -3.022  0.00  0.00    -0.243 NA
ATOM     22  C   UNL     1       0.294   5.932  -2.380  0.00  0.00    +0.221 A 
ATOM     23  N   UNL     1       1.451   5.789  -1.766  0.00  0.00    -0.243 NA
ATOM     24  C   UNL     1       2.084   4.628  -1.769  0.00  0.00    +0.122 A 
ENDBRANCH   7  19
BRANCH  17  25
ATOM     25  C   UNL     1      -0.919  -2.763  -1.998  0.00  0.00    +0.074 C 
ATOM     26  C   UNL     1      -2.363  -3.068  -1.597  0.00  0.00    +0.022 C 
ATOM     27  C   UNL     1      -3.040  -3.876  -2.706  0.00  0.00    +0.002 C 
ATOM     28  C   UNL     1      -2.281  -5.188  -2.918  0.00  0.00    +0.000 C 
ATOM     29  C   UNL     1      -0.837  -4.882  -3.318  0.00  0.00    +0.002 C 
ATOM     30  C   UNL     1      -0.160  -4.074  -2.209  0.00  0.00    +0.022 C 
ENDBRANCH  17  25
TORSDOF 2
