REMARK  Name = ZINC43257351
REMARK  7 active torsions:
REMARK  status: ('A' for Active; 'I' for Inactive)
REMARK    1  A    between atoms: C_1  and  C_2
REMARK    2  A    between atoms: C_7  and  S_9
REMARK    3  A    between atoms: S_9  and  C_10
REMARK    4  A    between atoms: C_10  and  C_12
REMARK    5  A    between atoms: C_10  and  C_18
REMARK    6  A    between atoms: C_18  and  C_20
REMARK    7  A    between atoms: C_18  and  N_21
REMARK                            x       y       z     vdW  Elec       q    Type
REMARK                         _______ _______ _______ _____ _____    ______ ____
ROOT
ATOM      1  C   UNL     1      -4.761   3.023  -3.848  0.00  0.00    +0.107 C 
ENDROOT
BRANCH   1   2
ATOM      2  C   UNL     1      -6.239   3.310  -3.910  0.00  0.00    +0.006 A 
ATOM      3  C   UNL     1      -7.180   2.764  -4.718  0.00  0.00    +0.014 A 
ATOM      4  C   UNL     1      -8.492   3.184  -4.598  0.00  0.00    +0.028 A 
ATOM      5  C   UNL     1      -8.797   4.131  -3.675  0.00  0.00    +0.078 A 
ATOM      6  S   UNL     1      -7.205   4.451  -2.934  0.00  0.00    -0.081 S 
ATOM      7 CL   UNL     1     -10.337   4.842  -3.306  0.00  0.00    -0.076 Cl
ENDBRANCH   1   2
BRANCH   1   8
ATOM      8  C   UNL     1      -3.980   4.307  -4.139  0.00  0.00    +0.066 C 
ATOM      9  C   UNL     1      -2.484   3.990  -4.205  0.00  0.00    +0.025 C 
BRANCH   8  10
ATOM     10  N   UNL     1      -4.419   4.867  -5.424  0.00  0.00    -0.326 NA
ATOM     11  H   UNL     1      -3.965   5.748  -5.609  0.00  0.00    +0.119 HD
ATOM     12  H   UNL     1      -4.259   4.213  -6.176  0.00  0.00    +0.119 HD
ENDBRANCH   8  10
ENDBRANCH   1   8
BRANCH   1  13
ATOM     13  S   UNL     1      -4.331   2.416  -2.194  0.00  0.00    -0.076 S 
BRANCH  13  20
ATOM     14  C   UNL     1      -5.229  -1.973   0.280  0.00  0.00    +0.066 C 
ATOM     15  C   UNL     1      -5.465  -1.119  -0.939  0.00  0.00    +0.046 A 
ATOM     16  C   UNL     1      -6.271  -1.575  -1.966  0.00  0.00    +0.095 A 
ATOM     17  C   UNL     1      -6.462  -0.754  -3.076  0.00  0.00    +0.274 A 
ATOM     18  O   UNL     1      -7.245  -1.161  -4.105  0.00  0.00    -0.266 OA
ATOM     19  N   UNL     1      -5.868   0.432  -3.111  0.00  0.00    -0.183 NA
ATOM     20  C   UNL     1      -5.102   0.834  -2.107  0.00  0.00    +0.192 A 
ATOM     21  N   UNL     1      -4.906   0.077  -1.037  0.00  0.00    -0.227 NA
ENDBRANCH  13  20
ENDBRANCH   1  13
TORSDOF 5
