REMARK  Name = ZINC14805318
REMARK  8 active torsions:
REMARK  status: ('A' for Active; 'I' for Inactive)
REMARK    1  A    between atoms: C_1  and  C_2
REMARK    2  A    between atoms: C_3  and  C_11
REMARK    3  A    between atoms: C_7  and  N_8
REMARK    4  A    between atoms: N_13  and  N_14
REMARK    5  A    between atoms: C_15  and  C_17
REMARK    6  A    between atoms: C_22  and  N_23
REMARK    7  A    between atoms: N_23  and  S_24
REMARK    8  A    between atoms: S_24  and  C_27
REMARK                            x       y       z     vdW  Elec       q    Type
REMARK                         _______ _______ _______ _____ _____    ______ ____
ROOT
ATOM      1  N   UNL     1       1.742  -2.027   0.020  0.00  0.00    -0.230 N 
ATOM      2  C   UNL     1       0.462  -1.652   0.209  0.00  0.00    +0.262 C 
ATOM      3  O   UNL     1      -0.356  -2.458   0.610  0.00  0.00    -0.269 OA
ATOM      4  H   UNL     1       2.394  -1.384  -0.299  0.00  0.00    +0.173 HD
ENDROOT
BRANCH   2   5
ATOM      5  C   UNL     1       0.052  -0.263  -0.069  0.00  0.00    +0.060 A 
ATOM      6  C   UNL     1       0.988   0.667  -0.529  0.00  0.00    +0.015 A 
ATOM      7  C   UNL     1       0.599   1.963  -0.788  0.00  0.00    +0.001 A 
ATOM      8  C   UNL     1      -0.718   2.351  -0.594  0.00  0.00    +0.002 A 
ATOM      9  C   UNL     1      -1.654   1.444  -0.140  0.00  0.00    +0.025 A 
ATOM     10  C   UNL     1      -1.282   0.131   0.121  0.00  0.00    +0.060 A 
BRANCH  10  11
ATOM     11  N   UNL     1      -2.223  -0.785   0.572  0.00  0.00    -0.215 N 
ATOM     12  H   UNL     1      -1.967  -1.468   1.212  0.00  0.00    +0.174 HD
BRANCH  11  13
ATOM     13  S   UNL     1      -3.781  -0.712   0.017  0.00  0.00    +0.079 S 
ATOM     14  O   UNL     1      -4.452  -1.851   0.538  0.00  0.00    -0.149 OA
ATOM     15  O   UNL     1      -4.235   0.614   0.255  0.00  0.00    -0.149 OA
BRANCH  13  16
ATOM     16  C   UNL     1      -3.722  -0.918  -1.732  0.00  0.00    +0.146 A 
ATOM     17  C   UNL     1      -3.785  -2.059  -2.459  0.00  0.00    +0.036 A 
ATOM     18  C   UNL     1      -3.719  -1.980  -3.838  0.00  0.00    +0.010 A 
ATOM     19  C   UNL     1      -3.594  -0.763  -4.421  0.00  0.00    +0.047 A 
ATOM     20  S   UNL     1      -3.572   0.324  -3.005  0.00  0.00    -0.077 S 
ENDBRANCH  13  16
ENDBRANCH  11  13
ENDBRANCH  10  11
ENDBRANCH   2   5
BRANCH   1  23
ATOM     21  C   UNL     1       3.412  -3.723   0.096  0.00  0.00    +0.260 C 
ATOM     22  O   UNL     1       4.229  -2.916  -0.304  0.00  0.00    -0.269 OA
ATOM     23  N   UNL     1       2.132  -3.347   0.285  0.00  0.00    -0.230 N 
ATOM     24  H   UNL     1       1.480  -3.990   0.604  0.00  0.00    +0.173 HD
BRANCH  21  27
ATOM     25  C   UNL     1       6.084  -4.592  -0.596  0.00  0.00    +0.047 C 
ATOM     26  C   UNL     1       5.109  -5.546   0.046  0.00  0.00    -0.008 A 
ATOM     27  C   UNL     1       3.823  -5.115   0.375  0.00  0.00    +0.043 A 
ATOM     28  C   UNL     1       2.925  -6.006   0.964  0.00  0.00    +0.013 A 
ATOM     29  C   UNL     1       3.314  -7.304   1.222  0.00  0.00    +0.003 A 
ATOM     30  C   UNL     1       4.592  -7.723   0.898  0.00  0.00    +0.033 A 
ATOM     31  C   UNL     1       5.488  -6.845   0.313  0.00  0.00    +0.130 A 
BRANCH  31  32
ATOM     32  N   UNL     1       6.853  -7.302  -0.030  0.00  0.00    +0.057 N 
ATOM     33  O   UNL     1       7.149  -8.478   0.086  0.00  0.00    -0.126 OA
ATOM     34  O   UNL     1       7.681  -6.502  -0.428  0.00  0.00    -0.126 OA
ENDBRANCH  31  32
ENDBRANCH  21  27
ENDBRANCH   1  23
TORSDOF 7
