REMARK  Name = ZINC19796753
REMARK  8 active torsions:
REMARK  status: ('A' for Active; 'I' for Inactive)
REMARK    1  A    between atoms: C_1  and  C_2
REMARK    2  A    between atoms: C_5  and  C_8
REMARK    3  A    between atoms: C_8  and  C_10
REMARK    4  A    between atoms: C_8  and  N_26
REMARK    5  A    between atoms: C_10  and  N_11
REMARK    6  A    between atoms: C_12  and  C_14
REMARK    7  A    between atoms: C_16  and  C_19
REMARK    8  A    between atoms: N_29  and  C_32
REMARK                            x       y       z     vdW  Elec       q    Type
REMARK                         _______ _______ _______ _____ _____    ______ ____
ROOT
ATOM      1  C   UNL     1      -0.270  -0.369   1.415  0.00  0.00    +0.128 C 
ENDROOT
BRANCH   1   2
ATOM      2  N   UNL     1       0.902  -0.077   2.244  0.00  0.00    -0.308 N 
ATOM      3  C   UNL     1       0.913  -0.431   3.544  0.00  0.00    +0.266 C 
ATOM      4  O   UNL     1      -0.049  -0.993   4.029  0.00  0.00    -0.268 OA
ATOM      5  H   UNL     1       1.774   0.431   1.805  0.00  0.00    +0.149 HD
BRANCH   3   6
ATOM      6  C   UNL     1       2.100  -0.136   4.384  0.00  0.00    +0.168 A 
ATOM      7  C   UNL     1       2.264  -0.437   5.761  0.00  0.00    +0.086 A 
ATOM      8  C   UNL     1       3.515   0.033   6.051  0.00  0.00    +0.168 A 
ATOM      9  O   UNL     1       3.995   0.561   4.911  0.00  0.00    -0.354 OA
ATOM     10  N   UNL     1       3.203   0.460   4.003  0.00  0.00    -0.073 NA
BRANCH   8  11
ATOM     11  C   UNL     1       4.202  -0.023   7.359  0.00  0.00    +0.020 A 
ATOM     12  C   UNL     1       3.567  -0.602   8.459  0.00  0.00    +0.013 A 
ATOM     13  C   UNL     1       4.215  -0.656   9.675  0.00  0.00    +0.016 A 
ATOM     14  C   UNL     1       5.487  -0.127   9.810  0.00  0.00    +0.018 A 
ATOM     15  C   UNL     1       6.120   0.454   8.723  0.00  0.00    +0.016 A 
ATOM     16  C   UNL     1       5.484   0.509   7.500  0.00  0.00    +0.013 A 
ATOM     17 BR   UNL     1       6.365  -0.198  11.483  0.00  0.00    -0.050 Br
ENDBRANCH   8  11
ENDBRANCH   3   6
ENDBRANCH   1   2
BRANCH   1  18
ATOM     18  C   UNL     1       0.013   0.044  -0.031  0.00  0.00    +0.104 C 
BRANCH  18  19
ATOM     19  N   UNL     1      -1.132  -0.320  -0.877  0.00  0.00    -0.297 NA
ATOM     20  C   UNL     1      -1.416  -1.759  -0.788  0.00  0.00    +0.066 C 
ATOM     21  C   UNL     1      -2.660  -2.083  -1.618  0.00  0.00    -0.064 C 
ATOM     22  N   UNL     1      -2.434  -1.679  -3.013  0.00  0.00    +0.379 N 
ATOM     23  C   UNL     1      -2.150  -0.239  -3.101  0.00  0.00    -0.064 C 
ATOM     24  C   UNL     1      -0.906   0.084  -2.271  0.00  0.00    +0.066 C 
ATOM     25  C   UNL     1      -3.579  -2.042  -3.858  0.00  0.00    -0.096 C 
ATOM     26  H   UNL     1      -1.554  -2.223  -3.386  0.00  0.00    -0.082 HD
ENDBRANCH  18  19
BRANCH  18  31
ATOM     27  C   UNL     1       0.850   5.756  -0.276  0.00  0.00    +0.044 C 
ATOM     28  C   UNL     1       0.632   4.266  -0.212  0.00  0.00    -0.050 A 
ATOM     29  C   UNL     1       1.716   3.409  -0.209  0.00  0.00    +0.003 A 
ATOM     30  C   UNL     1       1.515   2.042  -0.150  0.00  0.00    +0.005 A 
ATOM     31  C   UNL     1       0.231   1.534  -0.095  0.00  0.00    -0.029 A 
ATOM     32  C   UNL     1      -0.853   2.391  -0.104  0.00  0.00    +0.005 A 
ATOM     33  C   UNL     1      -0.652   3.758  -0.158  0.00  0.00    +0.003 A 
ENDBRANCH  18  31
ENDBRANCH   1  18
TORSDOF 6
