REMARK  Name = ZINC38773175
REMARK  8 active torsions:
REMARK  status: ('A' for Active; 'I' for Inactive)
REMARK    1  A    between atoms: C_1  and  C_2
REMARK    2  A    between atoms: C_2  and  O_3
REMARK    3  A    between atoms: O_3  and  C_4
REMARK    4  A    between atoms: N_16  and  C_19
REMARK    5  A    between atoms: C_19  and  C_20
REMARK    6  A    between atoms: C_20  and  N_21
REMARK    7  A    between atoms: C_22  and  C_24
REMARK    8  A    between atoms: C_28  and  N_33
REMARK                            x       y       z     vdW  Elec       q    Type
REMARK                         _______ _______ _______ _____ _____    ______ ____
ROOT
ATOM      1  C   UNL     1      -1.498  -1.849   0.006  0.00  0.00    +0.122 A 
ATOM      2  C   UNL     1      -0.389  -2.689  -0.003  0.00  0.00    +0.048 A 
ATOM      3  C   UNL     1      -0.526  -4.053  -0.009  0.00  0.00    +0.032 A 
ATOM      4  C   UNL     1      -1.806  -4.652  -0.007  0.00  0.00    +0.081 A 
ATOM      5  C   UNL     1      -2.910  -3.771   0.003  0.00  0.00    +0.044 A 
ATOM      6  C   UNL     1      -2.769  -2.406   0.016  0.00  0.00    +0.063 A 
ATOM      7  S   UNL     1      -4.290  -4.891   0.005  0.00  0.00    -0.052 S 
ATOM      8  C   UNL     1      -3.347  -6.409  -0.007  0.00  0.00    +0.162 A 
ATOM      9  N   UNL     1      -2.110  -5.971  -0.011  0.00  0.00    -0.225 NA
ATOM     10  N   UNL     1      -3.804  -7.712  -0.011  0.00  0.00    -0.313 N 
ATOM     11  C   UNL     1      -5.245  -8.008  -0.011  0.00  0.00    +0.088 C 
ATOM     12  C   UNL     1      -5.536  -9.009  -1.135  0.00  0.00    -0.059 C 
ATOM     13  N   UNL     1      -4.675 -10.187  -0.974  0.00  0.00    +0.383 N 
ATOM     14  C   UNL     1      -3.267  -9.805  -1.139  0.00  0.00    -0.059 C 
ATOM     15  C   UNL     1      -2.864  -8.844  -0.022  0.00  0.00    +0.088 C 
ATOM     16  H   UNL     1      -4.810 -10.578  -0.053  0.00  0.00    -0.082 HD
ENDROOT
BRANCH   1  17
ATOM     17  O   UNL     1      -1.339  -0.499   0.012  0.00  0.00    -0.492 OA
BRANCH  17  19
ATOM     18  C   UNL     1      -0.019   1.526   0.010  0.00  0.00    +0.048 C 
ATOM     19  C   UNL     1       0.002  -0.004   0.002  0.00  0.00    +0.225 C 
ENDBRANCH  17  19
ENDBRANCH   1  17
BRANCH  13  20
ATOM     20  C   UNL     1      -5.029 -11.192  -1.984  0.00  0.00    -0.060 C 
BRANCH  20  21
ATOM     21  C   UNL     1      -4.221 -12.468  -1.741  0.00  0.00    +0.086 C 
BRANCH  21  22
ATOM     22  N   UNL     1      -4.575 -13.471  -2.749  0.00  0.00    -0.313 N 
ATOM     23  C   UNL     1      -3.984 -14.682  -2.731  0.00  0.00    +0.251 C 
ATOM     24  O   UNL     1      -3.156 -14.943  -1.878  0.00  0.00    -0.270 OA
ATOM     25  H   UNL     1      -5.234 -13.263  -3.429  0.00  0.00    +0.149 HD
BRANCH  23  26
ATOM     26  C   UNL     1      -4.339 -15.688  -3.743  0.00  0.00    +0.075 A 
ATOM     27  C   UNL     1      -3.861 -16.952  -3.884  0.00  0.00    +0.029 A 
ATOM     28  C   UNL     1      -4.332 -17.768  -4.928  0.00  0.00    -0.008 A 
ATOM     29  C   UNL     1      -3.959 -19.102  -5.238  0.00  0.00    +0.041 A 
ATOM     30  C   UNL     1      -4.515 -19.752  -6.292  0.00  0.00    +0.127 A 
ATOM     31  C   UNL     1      -5.465 -19.144  -7.104  0.00  0.00    +0.034 A 
ATOM     32  C   UNL     1      -5.856 -17.848  -6.839  0.00  0.00    +0.018 A 
ATOM     33  C   UNL     1      -5.300 -17.175  -5.772  0.00  0.00    +0.020 A 
ATOM     34  S   UNL     1      -5.509 -15.552  -5.083  0.00  0.00    -0.084 S 
BRANCH  30  35
ATOM     35  N   UNL     1      -4.100 -21.143  -6.583  0.00  0.00    +0.056 N 
ATOM     36  O   UNL     1      -3.275 -21.686  -5.886  0.00  0.00    -0.126 OA
ATOM     37  O   UNL     1      -4.586 -21.735  -7.518  0.00  0.00    -0.126 OA
ENDBRANCH  30  35
ENDBRANCH  23  26
ENDBRANCH  21  22
ENDBRANCH  20  21
ENDBRANCH  13  20
TORSDOF 7
