REMARK  Name = ZINC04527293
REMARK  16 active torsions:
REMARK  status: ('A' for Active; 'I' for Inactive)
REMARK    1  A    between atoms: C_1  and  C_2
REMARK    2  A    between atoms: C_2  and  C_3
REMARK    3  A    between atoms: C_3  and  C_4
REMARK    4  A    between atoms: N_6  and  C_7
REMARK    5  A    between atoms: N_6  and  C_13
REMARK    6  A    between atoms: C_7  and  C_8
REMARK    7  A    between atoms: C_8  and  C_9
REMARK    8  A    between atoms: C_9  and  O_10
REMARK    9  A    between atoms: O_10  and  C_11
REMARK   10  A    between atoms: C_11  and  C_12
REMARK   11  A    between atoms: C_13  and  C_14
REMARK   12  A    between atoms: N_16  and  C_17
REMARK   13  A    between atoms: N_16  and  C_24
REMARK   14  A    between atoms: C_17  and  C_18
REMARK   15  A    between atoms: C_24  and  C_25
REMARK   16  A    between atoms: C_28  and  C_30
REMARK                            x       y       z     vdW  Elec       q    Type
REMARK                         _______ _______ _______ _____ _____    ______ ____
ROOT
ATOM      1  C   UNL     1       0.348   4.593   1.818  0.00  0.00    +0.234 C 
ATOM      2  O   UNL     1      -0.667   4.540   1.156  0.00  0.00    -0.274 OA
ATOM      3  N   UNL     1       1.504   4.114   1.318  0.00  0.00    -0.291 N 
ENDROOT
BRANCH   1   4
ATOM      4  C   UNL     1       0.315   5.193   3.200  0.00  0.00    +0.203 C 
BRANCH   4   7
ATOM      5  C   UNL     1      -1.966   4.961   4.024  0.00  0.00    +0.216 C 
ATOM      6  O   UNL     1      -3.070   5.413   4.243  0.00  0.00    -0.276 OA
ATOM      7  N   UNL     1      -1.018   5.739   3.464  0.00  0.00    -0.293 N 
BRANCH   5   8
ATOM      8  C   UNL     1      -1.653   3.530   4.380  0.00  0.00    +0.096 C 
BRANCH   8  10
ATOM      9  C   UNL     1      -2.573   1.423   5.357  0.00  0.00    +0.004 C 
ATOM     10  C   UNL     1      -2.891   2.876   4.997  0.00  0.00    +0.006 C 
ENDBRANCH   8  10
ENDBRANCH   5   8
BRANCH   7  11
ATOM     11  C   UNL     1      -1.322   7.130   3.119  0.00  0.00    +0.110 C 
BRANCH  11  12
ATOM     12  C   UNL     1      -1.859   7.194   1.688  0.00  0.00    +0.047 C 
BRANCH  12  13
ATOM     13  C   UNL     1      -2.177   8.647   1.327  0.00  0.00    +0.161 C 
BRANCH  13  14
ATOM     14  O   UNL     1      -2.679   8.707  -0.010  0.00  0.00    -0.380 OA
BRANCH  14  15
ATOM     15  C   UNL     1      -3.008  10.027  -0.448  0.00  0.00    +0.156 C 
ATOM     16  C   UNL     1      -3.532   9.971  -1.884  0.00  0.00    +0.034 C 
ENDBRANCH  14  15
ENDBRANCH  13  14
ENDBRANCH  12  13
ENDBRANCH  11  12
ENDBRANCH   7  11
ENDBRANCH   4   7
ENDBRANCH   1   4
BRANCH   3  17
ATOM     17  C   UNL     1       2.705   4.079   2.156  0.00  0.00    +0.143 C 
BRANCH  17  18
ATOM     18  C   UNL     1       3.540   5.305   1.890  0.00  0.00    -0.030 A 
ATOM     19  C   UNL     1       4.423   5.324   0.826  0.00  0.00    +0.005 A 
ATOM     20  C   UNL     1       5.184   6.451   0.579  0.00  0.00    +0.000 A 
ATOM     21  C   UNL     1       5.071   7.555   1.403  0.00  0.00    +0.000 A 
ATOM     22  C   UNL     1       4.192   7.535   2.470  0.00  0.00    +0.000 A 
ATOM     23  C   UNL     1       3.427   6.410   2.713  0.00  0.00    +0.005 A 
ENDBRANCH  17  18
ENDBRANCH   3  17
BRANCH   3  24
ATOM     24  C   UNL     1       1.560   3.631  -0.064  0.00  0.00    +0.150 C 
BRANCH  24  25
ATOM     25  C   UNL     1       1.232   2.160  -0.095  0.00  0.00    +0.007 A 
ATOM     26  C   UNL     1       0.026   1.557  -0.234  0.00  0.00    +0.013 A 
ATOM     27  C   UNL     1      -0.037   0.177  -0.234  0.00  0.00    +0.011 A 
ATOM     28  C   UNL     1       1.108  -0.534  -0.095  0.00  0.00    -0.013 A 
ATOM     29  S   UNL     1       2.331   0.760   0.043  0.00  0.00    -0.097 S 
ATOM     30  C   UNL     1       1.300  -2.029  -0.064  0.00  0.00    +0.051 C 
ENDBRANCH  24  25
ENDBRANCH   3  24
TORSDOF 13
