REMARK  Name = ZINC19321309
REMARK  4 active torsions:
REMARK  status: ('A' for Active; 'I' for Inactive)
REMARK    1  A    between atoms: C_4  and  C_7
REMARK    2  A    between atoms: C_7  and  C_19
REMARK    3  A    between atoms: N_8  and  N_9
REMARK    4  A    between atoms: C_10  and  C_11
REMARK                            x       y       z     vdW  Elec       q    Type
REMARK                         _______ _______ _______ _____ _____    ______ ____
ROOT
ATOM      1  C   UNL     1       2.348   3.655   0.301  0.00  0.00    +0.077 C 
ATOM      2  N   UNL     1       3.590   3.306   0.090  0.00  0.00    -0.153 NA
ENDROOT
BRANCH   1   3
ATOM      3  C   UNL     1       2.027   5.047   0.781  0.00  0.00    +0.026 C 
ATOM      4  C   UNL     1       1.454   5.001   2.204  0.00  0.00    -0.059 C 
ATOM      5  N   UNL     1       1.148   6.406   2.608  0.00  0.00    +0.397 N 
ATOM      6  C   UNL     1       2.384   7.206   2.624  0.00  0.00    +0.011 C 
ATOM      7  N   UNL     1       2.937   7.261   1.261  0.00  0.00    -0.305 NA
ATOM      8  C   UNL     1       3.297   5.910   0.799  0.00  0.00    +0.096 C 
ATOM      9  C   UNL     1       1.964   7.873   0.342  0.00  0.00    +0.167 C 
ATOM     10  N   UNL     1       0.731   7.069   0.343  0.00  0.00    -0.305 NA
ATOM     11  C   UNL     1       1.006   5.710  -0.154  0.00  0.00    +0.096 C 
ATOM     12  C   UNL     1       0.162   7.012   1.699  0.00  0.00    +0.011 C 
ATOM     13  H   UNL     1       0.716   6.405   3.619  0.00  0.00    -0.078 HD
ENDBRANCH   1   3
BRANCH   1  17
ATOM     14  C   UNL     1      -0.779   0.870  -0.368  0.00  0.00    +0.000 A 
ATOM     15  C   UNL     1       0.517   0.550  -0.734  0.00  0.00    +0.001 A 
ATOM     16  C   UNL     1       1.539   1.451  -0.521  0.00  0.00    +0.010 A 
ATOM     17  C   UNL     1       1.264   2.688   0.070  0.00  0.00    -0.001 A 
ATOM     18  C   UNL     1      -0.048   3.001   0.442  0.00  0.00    +0.010 A 
ATOM     19  C   UNL     1      -1.059   2.090   0.223  0.00  0.00    +0.001 A 
ENDBRANCH   1  17
BRANCH   2  20
ATOM     20  N   UNL     1       4.549   4.109   0.408  0.00  0.00    -0.157 NA
ATOM     21  C   UNL     1       5.503   3.705   1.206  0.00  0.00    +0.145 C 
BRANCH  21  22
ATOM     22  C   UNL     1       6.693   4.542   1.412  0.00  0.00    +0.031 A 
ATOM     23  C   UNL     1       6.880   5.700   0.647  0.00  0.00    +0.051 A 
ATOM     24  C   UNL     1       7.998   6.482   0.850  0.00  0.00    +0.021 A 
ATOM     25  C   UNL     1       8.938   6.121   1.800  0.00  0.00    +0.003 A 
ATOM     26  C   UNL     1       8.764   4.975   2.556  0.00  0.00    +0.021 A 
ATOM     27  C   UNL     1       7.649   4.183   2.370  0.00  0.00    +0.051 A 
ATOM     28 CL   UNL     1       7.433   2.747   3.321  0.00  0.00    -0.083 Cl
ATOM     29 CL   UNL     1       5.707   6.152  -0.549  0.00  0.00    -0.083 Cl
ENDBRANCH  21  22
ENDBRANCH   2  20
TORSDOF 4
