REMARK  Name = ZINC09723290
REMARK  10 active torsions:
REMARK  status: ('A' for Active; 'I' for Inactive)
REMARK    1  A    between atoms: C_1  and  C_2
REMARK    2  A    between atoms: C_4  and  C_28
REMARK    3  A    between atoms: C_5  and  C_9
REMARK    4  A    between atoms: C_6  and  C_8
REMARK    5  A    between atoms: C_9  and  N_10
REMARK    6  A    between atoms: C_14  and  C_15
REMARK    7  A    between atoms: C_15  and  N_16
REMARK    8  A    between atoms: N_19  and  C_20
REMARK    9  A    between atoms: C_24  and  S_26
REMARK   10  A    between atoms: S_26  and  C_27
REMARK                            x       y       z     vdW  Elec       q    Type
REMARK                         _______ _______ _______ _____ _____    ______ ____
ROOT
ATOM      1  N   UNL     1       1.730  10.907  -0.064  0.00  0.00    -0.345 N 
ATOM      2  C   UNL     1       1.429  12.180   0.319  0.00  0.00    +0.086 A 
ATOM      3  C   UNL     1       1.333  12.204   1.664  0.00  0.00    +0.019 A 
ATOM      4  C   UNL     1       1.577  10.896   2.127  0.00  0.00    +0.024 A 
ATOM      5  C   UNL     1       1.814  10.123   1.048  0.00  0.00    +0.036 A 
ENDROOT
BRANCH   1   6
ATOM      6  C   UNL     1       1.927  10.455  -1.444  0.00  0.00    +0.157 C 
BRANCH   6  11
ATOM      7  C   UNL     1       1.516  14.969  -5.028  0.00  0.00    +0.044 C 
ATOM      8  C   UNL     1       1.624  13.791  -4.094  0.00  0.00    -0.050 A 
ATOM      9  C   UNL     1       2.860  13.400  -3.614  0.00  0.00    +0.007 A 
ATOM     10  C   UNL     1       2.958  12.320  -2.757  0.00  0.00    -0.045 A 
ATOM     11  C   UNL     1       1.820  11.632  -2.378  0.00  0.00    -0.022 A 
ATOM     12  C   UNL     1       0.585  12.021  -2.862  0.00  0.00    -0.045 A 
ATOM     13  C   UNL     1       0.486  13.103  -3.716  0.00  0.00    +0.007 A 
ATOM     14  C   UNL     1      -0.655  11.267  -2.454  0.00  0.00    +0.044 C 
ATOM     15  C   UNL     1       4.305  11.893  -2.234  0.00  0.00    +0.044 C 
ENDBRANCH   6  11
ENDBRANCH   1   6
BRANCH   5  16
ATOM     16  C   UNL     1       2.123   8.648   1.069  0.00  0.00    +0.159 C 
BRANCH  16  17
ATOM     17  N   UNL     1       0.890   7.887   0.857  0.00  0.00    -0.294 N 
ATOM     18  C   UNL     1       0.908   6.542   0.926  0.00  0.00    +0.304 C 
ATOM     19  O   UNL     1       1.948   5.959   1.164  0.00  0.00    -0.252 OA
ATOM     20  N   UNL     1      -0.227   5.841   0.731  0.00  0.00    -0.269 N 
ATOM     21  H   UNL     1       0.060   8.352   0.667  0.00  0.00    +0.151 HD
ATOM     22  H   UNL     1      -1.041   6.300   0.470  0.00  0.00    +0.156 HD
BRANCH  20  23
ATOM     23  C   UNL     1      -0.231   4.453   0.905  0.00  0.00    +0.036 A 
ATOM     24  C   UNL     1      -1.044   3.655   0.109  0.00  0.00    +0.023 A 
ATOM     25  C   UNL     1      -1.049   2.284   0.280  0.00  0.00    +0.003 A 
ATOM     26  C   UNL     1      -0.246   1.701   1.241  0.00  0.00    +0.015 A 
ATOM     27  C   UNL     1       0.565   2.494   2.045  0.00  0.00    +0.009 A 
ATOM     28  C   UNL     1       0.576   3.872   1.872  0.00  0.00    +0.038 A 
BRANCH  27  29
ATOM     29  S   UNL     1       1.583   1.751   3.277  0.00  0.00    -0.129 S 
ATOM     30  C   UNL     1       1.238  -0.022   3.120  0.00  0.00    +0.090 C 
ENDBRANCH  27  29
ENDBRANCH  20  23
ENDBRANCH  16  17
ENDBRANCH   5  16
TORSDOF 6
