REMARK  Name = ZINC62354207
REMARK  3 active torsions:
REMARK  status: ('A' for Active; 'I' for Inactive)
REMARK    1  A    between atoms: C_4  and  N_20
REMARK    2  A    between atoms: C_6  and  N_7
REMARK    3  A    between atoms: C_8  and  C_10
REMARK                            x       y       z     vdW  Elec       q    Type
REMARK                         _______ _______ _______ _____ _____    ______ ____
ROOT
ATOM      1  C   UNL     1      -0.004   1.371   0.179  0.00  0.00    +0.025 A 
ATOM      2  C   UNL     1       1.183   2.078   0.167  0.00  0.00    +0.024 A 
ATOM      3  C   UNL     1       2.382   1.417  -0.028  0.00  0.00    +0.064 A 
ATOM      4  C   UNL     1       2.396   0.039  -0.211  0.00  0.00    +0.071 A 
ATOM      5  C   UNL     1       1.205  -0.673  -0.199  0.00  0.00    +0.049 A 
ATOM      6  C   UNL     1       0.003  -0.006  -0.003  0.00  0.00    +0.036 A 
ATOM      7 CL   UNL     1       3.871   2.309  -0.043  0.00  0.00    -0.082 Cl
ENDROOT
BRANCH   4   8
ATOM      8  N   UNL     1       3.607  -0.629  -0.407  0.00  0.00    -0.206 N 
ATOM      9  C   UNL     1       4.227  -0.984  -1.697  0.00  0.00    +0.133 C 
ATOM     10  C   UNL     1       5.762  -1.024  -1.575  0.00  0.00    +0.045 C 
ATOM     11  C   UNL     1       6.042  -1.812  -0.261  0.00  0.00    +0.190 C 
ATOM     12  S   UNL     1       4.658  -1.184   0.775  0.00  0.00    +0.046 S 
ATOM     13  O   UNL     1       5.056  -0.029   1.502  0.00  0.00    -0.155 OA
ATOM     14  O   UNL     1       3.980  -2.258   1.411  0.00  0.00    -0.155 OA
ENDBRANCH   4   8
BRANCH   6  15
ATOM     15  N   UNL     1      -1.200  -0.721   0.010  0.00  0.00    -0.280 N 
ATOM     16  C   UNL     1      -1.232  -1.977   0.497  0.00  0.00    +0.269 C 
ATOM     17  O   UNL     1      -0.239  -2.455   1.012  0.00  0.00    -0.268 OA
ATOM     18  H   UNL     1      -2.010  -0.312  -0.331  0.00  0.00    +0.155 HD
BRANCH  16  19
ATOM     19  C   UNL     1      -2.472  -2.773   0.405  0.00  0.00    +0.151 A 
ATOM     20  C   UNL     1      -2.664  -4.085   0.868  0.00  0.00    +0.005 A 
ATOM     21  C   UNL     1      -3.947  -4.403   0.568  0.00  0.00    +0.040 A 
ATOM     22  N   UNL     1      -4.489  -3.335  -0.038  0.00  0.00    -0.281 N 
ATOM     23  H   UNL     1      -5.403  -3.283  -0.361  0.00  0.00    +0.189 HD
ATOM     24  N   UNL     1      -3.621  -2.387  -0.124  0.00  0.00    -0.169 NA
ATOM     25  C   UNL     1      -4.580  -5.734   0.886  0.00  0.00    +0.055 C 
ATOM     26  C   UNL     1      -3.462  -6.739   1.189  0.00  0.00    +0.006 C 
ATOM     27  C   UNL     1      -2.494  -6.141   2.214  0.00  0.00    +0.005 C 
ATOM     28  C   UNL     1      -1.696  -5.004   1.562  0.00  0.00    +0.039 C 
ENDBRANCH  16  19
ENDBRANCH   6  15
TORSDOF 3
