REMARK  Name = ZINC09293422
REMARK  7 active torsions:
REMARK  status: ('A' for Active; 'I' for Inactive)
REMARK    1  A    between atoms: C_1  and  C_2
REMARK    2  A    between atoms: C_4  and  C_34
REMARK    3  A    between atoms: C_6  and  N_8
REMARK    4  A    between atoms: C_9  and  C_33
REMARK    5  A    between atoms: C_11  and  C_14
REMARK    6  A    between atoms: C_12  and  C_13
REMARK    7  A    between atoms: C_24  and  C_26
REMARK                            x       y       z     vdW  Elec       q    Type
REMARK                         _______ _______ _______ _____ _____    ______ ____
ROOT
ATOM      1  C   UNL     1       1.579  -3.904   5.513  0.00  0.00    +0.026 C 
ATOM      2  C   UNL     1       1.333  -5.064   6.219  0.00  0.00    +0.081 C 
ATOM      3  C   UNL     1       0.380  -6.096   5.724  0.00  0.00    +0.153 C 
ATOM      4  N   UNL     1       0.194  -6.352   4.456  0.00  0.00    -0.283 NA
ATOM      5  N   UNL     1      -0.302  -6.771   6.760  0.00  0.00    -0.152 N 
ATOM      6  C   UNL     1       0.292  -6.793   8.004  0.00  0.00    +0.181 C 
ATOM      7  N   UNL     1       1.384  -6.174   8.377  0.00  0.00    -0.152 NA
ATOM      8  C   UNL     1       2.008  -5.352   7.507  0.00  0.00    +0.273 C 
ATOM      9  O   UNL     1       3.092  -4.857   7.772  0.00  0.00    -0.268 OA
ATOM     10  S   UNL     1      -0.808  -7.834   8.926  0.00  0.00    -0.033 S 
ATOM     11  C   UNL     1      -2.025  -8.087   7.642  0.00  0.00    +0.133 C 
ATOM     12  N   UNL     1      -1.510  -7.423   6.636  0.00  0.00    -0.164 NA
ATOM     13  H   UNL     1      -0.465  -7.012   4.186  0.00  0.00    +0.188 HD
ENDROOT
BRANCH   1  17
ATOM     14  N   UNL     1       0.017  -2.632   2.540  0.00  0.00    -0.317 N 
ATOM     15  C   UNL     1      -0.968  -3.483   2.961  0.00  0.00    +0.022 A 
ATOM     16  C   UNL     1      -0.577  -4.084   4.097  0.00  0.00    +0.031 A 
ATOM     17  C   UNL     1       0.761  -3.561   4.405  0.00  0.00    -0.003 A 
ATOM     18  C   UNL     1       1.063  -2.669   3.390  0.00  0.00    +0.028 A 
ATOM     19  C   UNL     1       2.337  -1.875   3.259  0.00  0.00    +0.064 C 
ATOM     20  C   UNL     1      -2.283  -3.710   2.261  0.00  0.00    +0.064 C 
BRANCH  14  26
ATOM     21  C   UNL     1      -0.145   1.827   0.472  0.00  0.00    +0.044 C 
ATOM     22  C   UNL     1      -0.130   0.324   0.356  0.00  0.00    -0.048 A 
ATOM     23  C   UNL     1      -0.183  -0.273  -0.890  0.00  0.00    +0.006 A 
ATOM     24  C   UNL     1      -0.170  -1.651  -1.000  0.00  0.00    -0.048 A 
ATOM     25  C   UNL     1      -0.103  -2.436   0.135  0.00  0.00    +0.029 A 
ATOM     26  C   UNL     1      -0.050  -1.839   1.387  0.00  0.00    +0.047 A 
ATOM     27  C   UNL     1      -0.058  -0.455   1.494  0.00  0.00    +0.029 A 
ATOM     28  C   UNL     1      -0.228  -2.298  -2.360  0.00  0.00    +0.044 C 
ENDBRANCH  14  26
ENDBRANCH   1  17
BRANCH  11  29
ATOM     29  C   UNL     1      -3.291  -8.851   7.700  0.00  0.00    +0.044 A 
ATOM     30  C   UNL     1      -3.670  -9.491   8.880  0.00  0.00    +0.013 A 
ATOM     31  C   UNL     1      -4.851 -10.202   8.928  0.00  0.00    +0.001 A 
ATOM     32  C   UNL     1      -5.661 -10.282   7.809  0.00  0.00    +0.003 A 
ATOM     33  C   UNL     1      -5.293  -9.652   6.635  0.00  0.00    +0.039 A 
ATOM     34  C   UNL     1      -4.114  -8.931   6.574  0.00  0.00    +0.133 A 
ATOM     35  F   UNL     1      -3.757  -8.311   5.428  0.00  0.00    -0.205 F 
ENDBRANCH  11  29
TORSDOF 3
