REMARK  Name = ZINC00820919
REMARK  2 active torsions:
REMARK  status: ('A' for Active; 'I' for Inactive)
REMARK    1  A    between atoms: C_6  and  N_7
REMARK    2  A    between atoms: N_20  and  C_23
REMARK                            x       y       z     vdW  Elec       q    Type
REMARK                         _______ _______ _______ _____ _____    ______ ____
ROOT
ATOM      1  N   UNL     1      -1.202  -0.723   0.010  0.00  0.00    -0.243 N 
ATOM      2  C   UNL     1      -2.423  -0.160   0.019  0.00  0.00    +0.266 A 
ATOM      3  O   UNL     1      -2.655   1.032   0.022  0.00  0.00    -0.267 OA
ATOM      4  C   UNL     1      -3.438  -1.238   0.025  0.00  0.00    +0.053 A 
ATOM      5  C   UNL     1      -4.827  -1.252   0.035  0.00  0.00    +0.028 A 
ATOM      6  C   UNL     1      -5.499  -2.468   0.038  0.00  0.00    +0.053 A 
ATOM      7  C   UNL     1      -4.777  -3.677   0.031  0.00  0.00    +0.053 A 
ATOM      8  C   UNL     1      -3.388  -3.663   0.020  0.00  0.00    +0.028 A 
ATOM      9  C   UNL     1      -2.716  -2.447   0.018  0.00  0.00    +0.053 A 
ATOM     10  C   UNL     1      -1.286  -2.065   0.004  0.00  0.00    +0.266 A 
ATOM     11  O   UNL     1      -0.347  -2.834  -0.009  0.00  0.00    -0.267 OA
ATOM     12  C   UNL     1      -5.792  -4.755   0.037  0.00  0.00    +0.266 A 
ATOM     13  O   UNL     1      -5.561  -5.947   0.034  0.00  0.00    -0.267 OA
ATOM     14  N   UNL     1      -7.014  -4.192   0.046  0.00  0.00    -0.243 N 
ATOM     15  C   UNL     1      -6.929  -2.850   0.047  0.00  0.00    +0.266 A 
ATOM     16  O   UNL     1      -7.868  -2.080   0.056  0.00  0.00    -0.267 OA
ENDROOT
BRANCH   1  22
ATOM     17  C   UNL     1      -0.017   1.384   0.010  0.00  0.00    +0.027 A 
ATOM     18  C   UNL     1       1.171   2.090   0.002  0.00  0.00    +0.017 A 
ATOM     19  C   UNL     1       2.378   1.414  -0.013  0.00  0.00    +0.018 A 
ATOM     20  C   UNL     1       2.400   0.031  -0.022  0.00  0.00    +0.017 A 
ATOM     21  C   UNL     1       1.215  -0.679  -0.014  0.00  0.00    +0.027 A 
ATOM     22  C   UNL     1       0.002  -0.004   0.002  0.00  0.00    +0.053 A 
ATOM     23 BR   UNL     1       4.002   2.384  -0.024  0.00  0.00    -0.050 Br
ENDBRANCH   1  22
BRANCH  14  24
ATOM     24  C   UNL     1      -8.217  -4.911   0.054  0.00  0.00    +0.053 A 
ATOM     25  C   UNL     1      -8.199  -6.299   0.057  0.00  0.00    +0.027 A 
ATOM     26  C   UNL     1      -9.386  -7.005   0.065  0.00  0.00    +0.017 A 
ATOM     27  C   UNL     1     -10.594  -6.329   0.069  0.00  0.00    +0.018 A 
ATOM     28  C   UNL     1     -10.615  -4.946   0.065  0.00  0.00    +0.017 A 
ATOM     29  C   UNL     1      -9.431  -4.235   0.063  0.00  0.00    +0.027 A 
ATOM     30 BR   UNL     1     -12.217  -7.298   0.078  0.00  0.00    -0.050 Br
ENDBRANCH  14  24
TORSDOF 2
