REMARK  Name = ZINC19419510
REMARK  1 active torsions:
REMARK  status: ('A' for Active; 'I' for Inactive)
REMARK    1  A    between atoms: C_12  and  N_14
REMARK                            x       y       z     vdW  Elec       q    Type
REMARK                         _______ _______ _______ _____ _____    ______ ____
ROOT
ATOM      1  C   UNL     1      -0.015   1.317   0.035  0.00  0.00    +0.224 A 
ATOM      2  N   UNL     1       1.069   2.050  -0.022  0.00  0.00    -0.234 NA
ATOM      3  C   UNL     1       2.298   1.488  -0.047  0.00  0.00    +0.093 A 
ATOM      4  C   UNL     1       3.607   2.165  -0.111  0.00  0.00    +0.037 A 
ATOM      5  C   UNL     1       3.850   3.563  -0.160  0.00  0.00    -0.029 A 
ATOM      6  C   UNL     1       5.129   4.014  -0.213  0.00  0.00    -0.004 A 
ATOM      7  C   UNL     1       6.191   3.098  -0.227  0.00  0.00    +0.126 A 
ATOM      8  N   UNL     1       5.961   1.797  -0.184  0.00  0.00    -0.225 NA
ATOM      9  C   UNL     1       4.732   1.326  -0.126  0.00  0.00    +0.113 A 
ATOM     10  S   UNL     1       4.059  -0.316  -0.054  0.00  0.00    -0.064 S 
ATOM     11  C   UNL     1       2.335   0.088  -0.007  0.00  0.00    +0.080 A 
ATOM     12  C   UNL     1       1.165  -0.655   0.054  0.00  0.00    +0.139 A 
ATOM     13  N   UNL     1       0.003  -0.003   0.074  0.00  0.00    -0.220 NA
ATOM     14  N   UNL     1       7.498   3.562  -0.288  0.00  0.00    -0.311 N 
ATOM     15  C   UNL     1       8.237   3.906   0.937  0.00  0.00    +0.134 C 
ATOM     16  C   UNL     1       9.595   3.194   0.897  0.00  0.00    +0.178 C 
ATOM     17  O   UNL     1      10.245   3.489  -0.341  0.00  0.00    -0.377 OA
ATOM     18  C   UNL     1       9.544   3.023  -1.496  0.00  0.00    +0.178 C 
ATOM     19  C   UNL     1       8.186   3.720  -1.579  0.00  0.00    +0.134 C 
ATOM     20  C   UNL     1       5.470   5.481  -0.250  0.00  0.00    +0.039 C 
ATOM     21  C   UNL     1       4.252   6.305  -0.664  0.00  0.00    +0.005 C 
ATOM     22  C   UNL     1       3.068   5.898   0.221  0.00  0.00    +0.005 C 
ATOM     23  C   UNL     1       2.655   4.475  -0.155  0.00  0.00    +0.036 C 
ENDROOT
BRANCH  12  24
ATOM     24  N   UNL     1       1.203  -2.040   0.093  0.00  0.00    -0.310 N 
ATOM     25  C   UNL     1       2.480  -2.759   0.233  0.00  0.00    +0.134 C 
ATOM     26  C   UNL     1       2.341  -3.772   1.375  0.00  0.00    +0.178 C 
ATOM     27  O   UNL     1       1.181  -4.577   1.153  0.00  0.00    -0.377 OA
ATOM     28  C   UNL     1      -0.047  -3.845   1.151  0.00  0.00    +0.178 C 
ATOM     29  C   UNL     1      -0.032  -2.835   0.003  0.00  0.00    +0.134 C 
ENDBRANCH  12  24
TORSDOF 1
