REMARK  Name = ZINC12419113
REMARK  12 active torsions:
REMARK  status: ('A' for Active; 'I' for Inactive)
REMARK    1  A    between atoms: C_1  and  O_2
REMARK    2  A    between atoms: O_2  and  C_3
REMARK    3  A    between atoms: C_5  and  C_10
REMARK    4  A    between atoms: C_8  and  O_9
REMARK    5  A    between atoms: C_15  and  O_38
REMARK    6  A    between atoms: C_17  and  O_21
REMARK    7  A    between atoms: O_21  and  C_22
REMARK    8  A    between atoms: C_24  and  O_37
REMARK    9  A    between atoms: C_26  and  O_36
REMARK   10  A    between atoms: C_28  and  O_35
REMARK   11  A    between atoms: C_30  and  C_33
REMARK   12  A    between atoms: C_33  and  O_34
REMARK                            x       y       z     vdW  Elec       q    Type
REMARK                         _______ _______ _______ _____ _____    ______ ____
ROOT
ATOM      1  C   UNL     1       3.537   1.798  -0.022  0.00  0.00    +0.139 A 
ATOM      2  C   UNL     1       3.614   3.156  -0.016  0.00  0.00    +0.098 A 
ATOM      3  C   UNL     1       2.424   3.922  -0.000  0.00  0.00    +0.197 A 
ATOM      4  O   UNL     1       2.456   5.142   0.006  0.00  0.00    -0.287 OA
ATOM      5  C   UNL     1       1.146   3.190   0.008  0.00  0.00    +0.105 A 
ATOM      6  C   UNL     1      -0.080   3.867   0.023  0.00  0.00    +0.135 A 
ATOM      7  C   UNL     1      -1.257   3.142   0.030  0.00  0.00    +0.092 A 
ATOM      8  C   UNL     1      -1.222   1.752   0.017  0.00  0.00    +0.131 A 
ATOM      9  C   UNL     1      -0.013   1.076   0.008  0.00  0.00    +0.093 A 
ATOM     10  C   UNL     1       1.179   1.785   0.000  0.00  0.00    +0.146 A 
ATOM     11  O   UNL     1       2.365   1.142  -0.015  0.00  0.00    -0.454 OA
ENDROOT
BRANCH   1  14
ATOM     12  C   UNL     1       5.915  -1.108  -0.061  0.00  0.00    +0.162 A 
ATOM     13  C   UNL     1       4.741  -0.381  -0.040  0.00  0.00    +0.061 A 
ATOM     14  C   UNL     1       4.787   1.016  -0.038  0.00  0.00    +0.021 A 
ATOM     15  C   UNL     1       6.022   1.671  -0.047  0.00  0.00    +0.015 A 
ATOM     16  C   UNL     1       7.190   0.939  -0.062  0.00  0.00    +0.050 A 
ATOM     17  C   UNL     1       7.143  -0.448  -0.069  0.00  0.00    +0.158 A 
BRANCH  12  19
ATOM     18  C   UNL     1       4.581  -3.076  -0.058  0.00  0.00    +0.277 C 
ATOM     19  O   UNL     1       5.873  -2.467  -0.068  0.00  0.00    -0.491 OA
ENDBRANCH  12  19
BRANCH  17  20
ATOM     20  O   UNL     1       8.297  -1.165  -0.084  0.00  0.00    -0.503 OA
ATOM     21  H   UNL     1       8.639  -1.377   0.796  0.00  0.00    +0.292 HD
ENDBRANCH  17  20
ENDBRANCH   1  14
BRANCH   6  22
ATOM     22  O   UNL     1      -0.112   5.223   0.031  0.00  0.00    -0.506 OA
ATOM     23  H   UNL     1      -0.129   5.622  -0.850  0.00  0.00    +0.292 HD
ENDBRANCH   6  22
BRANCH   8  24
ATOM     24  O   UNL     1      -2.385   1.051   0.019  0.00  0.00    -0.461 OA
BRANCH  24  25
ATOM     25  C   UNL     1      -3.598   1.805   0.029  0.00  0.00    +0.339 C 
ATOM     26  C   UNL     1      -4.781   0.867   0.279  0.00  0.00    +0.214 C 
ATOM     27  C   UNL     1      -6.083   1.673   0.228  0.00  0.00    +0.180 C 
ATOM     28  C   UNL     1      -6.179   2.382  -1.127  0.00  0.00    +0.177 C 
ATOM     29  C   UNL     1      -4.941   3.262  -1.322  0.00  0.00    +0.179 C 
ATOM     30  O   UNL     1      -3.765   2.455  -1.233  0.00  0.00    -0.331 OA
BRANCH  28  31
ATOM     31  O   UNL     1      -6.242   1.409  -2.171  0.00  0.00    -0.386 OA
ATOM     32  H   UNL     1      -7.003   0.815  -2.110  0.00  0.00    +0.210 HD
ENDBRANCH  28  31
BRANCH  27  33
ATOM     33  O   UNL     1      -7.197   0.793   0.387  0.00  0.00    -0.386 OA
ATOM     34  H   UNL     1      -7.200   0.310   1.225  0.00  0.00    +0.210 HD
ENDBRANCH  27  33
BRANCH  26  35
ATOM     35  O   UNL     1      -4.646   0.259   1.565  0.00  0.00    -0.383 OA
ATOM     36  H   UNL     1      -3.840  -0.265   1.670  0.00  0.00    +0.210 HD
ENDBRANCH  26  35
BRANCH  29  37
ATOM     37  C   UNL     1      -5.001   3.927  -2.699  0.00  0.00    +0.190 C 
BRANCH  37  38
ATOM     38  O   UNL     1      -3.907   4.837  -2.836  0.00  0.00    -0.392 OA
ATOM     39  H   UNL     1      -3.881   5.295  -3.687  0.00  0.00    +0.210 HD
ENDBRANCH  37  38
ENDBRANCH  29  37
ENDBRANCH  24  25
ENDBRANCH   8  24
TORSDOF 11
