REMARK  Name = ZINC22061225
REMARK  19 active torsions:
REMARK  status: ('A' for Active; 'I' for Inactive)
REMARK    1  A    between atoms: C_1  and  C_2
REMARK    2  A    between atoms: C_5  and  O_31
REMARK    3  A    between atoms: C_9  and  C_18
REMARK    4  A    between atoms: C_11  and  C_17
REMARK    5  A    between atoms: C_18  and  C_19
REMARK    6  A    between atoms: C_19  and  C_20
REMARK    7  A    between atoms: C_20  and  C_22
REMARK    8  A    between atoms: C_20  and  O_30
REMARK    9  A    between atoms: C_22  and  C_23
REMARK   10  A    between atoms: C_23  and  C_25
REMARK   11  A    between atoms: C_23  and  O_29
REMARK   12  A    between atoms: C_25  and  C_26
REMARK   13  A    between atoms: O_31  and  C_32
REMARK   14  A    between atoms: C_32  and  C_34
REMARK   15  A    between atoms: C_34  and  C_35
REMARK   16  A    between atoms: C_34  and  C_36
REMARK   17  A    between atoms: C_34  and  C_37
REMARK   18  A    between atoms: C_37  and  C_39
REMARK   19  A    between atoms: C_37  and  O_40
REMARK                            x       y       z     vdW  Elec       q    Type
REMARK                         _______ _______ _______ _____ _____    ______ ____
ROOT
ATOM      1  C   UNL     1       0.425  10.798   7.336  0.00  0.00    +0.012 C 
ATOM      2  C   UNL     1      -0.554   9.761   6.781  0.00  0.00    +0.012 C 
ATOM      3  C   UNL     1       0.189   8.454   6.475  0.00  0.00    +0.052 C 
ATOM      4  C   UNL     1      -0.824   7.434   5.960  0.00  0.00    +0.185 C 
ATOM      5  C   UNL     1      -1.542   7.925   4.730  0.00  0.00    +0.063 C 
ATOM      6  C   UNL     1      -0.980   7.315   3.445  0.00  0.00    +0.007 C 
ATOM      7  C   UNL     1      -1.912   7.664   2.284  0.00  0.00    +0.012 C 
ATOM      8  C   UNL     1      -2.236   9.127   2.253  0.00  0.00    -0.023 C 
ATOM      9  C   UNL     1      -2.094   9.941   3.285  0.00  0.00    -0.000 C 
ATOM     10  C   UNL     1      -1.569   9.416   4.567  0.00  0.00    -0.044 C 
ATOM     11  C   UNL     1      -1.150  10.261   5.490  0.00  0.00    -0.020 C 
ATOM     12  C   UNL     1      -3.211   6.869   2.430  0.00  0.00    +0.012 C 
ENDROOT
BRANCH   6  13
ATOM     13  C   UNL     1      -0.893   5.794   3.593  0.00  0.00    +0.007 C 
BRANCH  13  14
ATOM     14  C   UNL     1      -0.857   5.148   2.207  0.00  0.00    +0.032 C 
BRANCH  14  15
ATOM     15  C   UNL     1      -0.779   3.627   2.356  0.00  0.00    +0.117 C 
BRANCH  15  16
ATOM     16  O   UNL     1      -1.979   3.146   2.965  0.00  0.00    -0.392 OA
ATOM     17  H   UNL     1      -2.107   2.070   3.154  0.00  0.00    +0.210 HD
ENDBRANCH  15  16
BRANCH  15  18
ATOM     18  C   UNL     1      -0.616   2.987   0.976  0.00  0.00    +0.063 C 
BRANCH  18  19
ATOM     19  C   UNL     1      -0.414   1.479   1.133  0.00  0.00    +0.128 C 
BRANCH  19  20
ATOM     20  O   UNL     1      -1.596   0.894   1.684  0.00  0.00    -0.391 OA
ATOM     21  H   UNL     1      -1.639  -0.189   1.870  0.00  0.00    +0.210 HD
ENDBRANCH  19  20
BRANCH  19  22
ATOM     22  C   UNL     1      -0.127   0.857  -0.235  0.00  0.00    +0.156 C 
BRANCH  22  23
ATOM     23  C   UNL     1       0.193  -0.606  -0.065  0.00  0.00    +0.358 C 
ATOM     24  O   UNL     1       0.192  -1.100   1.038  0.00  0.00    -0.246 OA
ATOM     25  O   UNL     1       0.479  -1.359  -1.138  0.00  0.00    -0.246 OA
ENDBRANCH  22  23
ENDBRANCH  19  22
ENDBRANCH  18  19
ENDBRANCH  15  18
ENDBRANCH  14  15
ENDBRANCH  13  14
ENDBRANCH   6  13
BRANCH   4  26
ATOM     26  O   UNL     1      -0.130   6.200   5.638  0.00  0.00    -0.460 OA
BRANCH  26  27
ATOM     27  C   UNL     1       0.116   5.356   6.653  0.00  0.00    +0.316 C 
ATOM     28  O   UNL     1      -0.138   5.686   7.787  0.00  0.00    -0.250 OA
BRANCH  27  29
ATOM     29  C   UNL     1       0.710   3.999   6.377  0.00  0.00    +0.088 C 
ATOM     30  C   UNL     1      -0.348   3.101   5.732  0.00  0.00    +0.025 C 
ATOM     31  C   UNL     1       1.901   4.146   5.429  0.00  0.00    +0.025 C 
BRANCH  29  32
ATOM     32  C   UNL     1       1.178   3.371   7.691  0.00  0.00    +0.128 C 
ATOM     33  C   UNL     1       2.236   4.268   8.337  0.00  0.00    +0.039 C 
BRANCH  32  34
ATOM     34  O   UNL     1       1.741   2.083   7.430  0.00  0.00    -0.391 OA
ATOM     35  H   UNL     1       2.134   1.476   8.259  0.00  0.00    +0.210 HD
ENDBRANCH  32  34
ENDBRANCH  29  32
ENDBRANCH  27  29
ENDBRANCH  26  27
ENDBRANCH   4  26
TORSDOF 14
