REMARK  Name = ZINC01238187
REMARK  6 active torsions:
REMARK  status: ('A' for Active; 'I' for Inactive)
REMARK    1  A    between atoms: C_1  and  C_2
REMARK    2  A    between atoms: C_7  and  C_8
REMARK    3  A    between atoms: C_17  and  C_19
REMARK    4  A    between atoms: C_20  and  C_37
REMARK    5  A    between atoms: C_25  and  C_27
REMARK    6  A    between atoms: C_27  and  C_28
REMARK                            x       y       z     vdW  Elec       q    Type
REMARK                         _______ _______ _______ _____ _____    ______ ____
ROOT
ATOM      1  C   UNL     1      -0.141  -6.330   4.167  0.00  0.00    +0.083 A 
ATOM      2  C   UNL     1      -0.629  -7.199   3.231  0.00  0.00    +0.016 A 
ATOM      3  S   UNL     1      -0.359  -8.762   4.058  0.00  0.00    -0.057 S 
ATOM      4  C   UNL     1       0.369  -8.102   5.551  0.00  0.00    +0.165 A 
ATOM      5  N   UNL     1       0.351  -6.805   5.301  0.00  0.00    -0.224 NA
ATOM      6  N   UNL     1       0.835  -8.774   6.673  0.00  0.00    -0.264 N 
ATOM      7  C   UNL     1       0.768 -10.119   6.729  0.00  0.00    +0.223 C 
ATOM      8  O   UNL     1       0.300 -10.742   5.800  0.00  0.00    -0.275 OA
ATOM      9  C   UNL     1      -1.229  -6.918   1.878  0.00  0.00    +0.054 C 
ATOM     10  H   UNL     1       1.210  -8.276   7.417  0.00  0.00    +0.157 HD
ENDROOT
BRANCH   1  20
ATOM     11  C   UNL     1      -0.081   0.026   2.303  0.00  0.00    +0.251 C 
ATOM     12  O   UNL     1       0.034  -0.504   1.215  0.00  0.00    -0.270 OA
ATOM     13  N   UNL     1      -0.238  -0.730   3.408  0.00  0.00    -0.267 N 
ATOM     14  C   UNL     1      -0.494  -0.208   4.753  0.00  0.00    +0.118 C 
ATOM     15  C   UNL     1      -0.595  -1.449   5.655  0.00  0.00    +0.056 C 
ATOM     16  C   UNL     1      -0.381  -2.618   4.719  0.00  0.00    -0.024 A 
ATOM     17  C   UNL     1      -0.186  -2.127   3.437  0.00  0.00    +0.040 A 
ATOM     18  C   UNL     1       0.029  -3.024   2.388  0.00  0.00    +0.024 A 
ATOM     19  C   UNL     1       0.045  -4.380   2.622  0.00  0.00    +0.012 A 
ATOM     20  C   UNL     1      -0.156  -4.869   3.912  0.00  0.00    +0.002 A 
ATOM     21  C   UNL     1      -0.363  -3.976   4.961  0.00  0.00    +0.015 A 
BRANCH  11  28
ATOM     22  C   UNL     1       2.047   1.511   1.024  0.00  0.00    +0.044 C 
ATOM     23  C   UNL     1       0.973   2.227   1.802  0.00  0.00    -0.038 A 
ATOM     24  C   UNL     1       0.994   3.602   1.905  0.00  0.00    +0.004 A 
ATOM     25  C   UNL     1       0.009   4.261   2.619  0.00  0.00    +0.000 A 
ATOM     26  C   UNL     1      -1.004   3.545   3.233  0.00  0.00    +0.001 A 
ATOM     27  C   UNL     1      -1.037   2.170   3.137  0.00  0.00    +0.013 A 
ATOM     28  C   UNL     1      -0.049   1.499   2.414  0.00  0.00    +0.040 A 
ENDBRANCH  11  28
ENDBRANCH   1  20
BRANCH   7  29
ATOM     29  C   UNL     1       1.273 -10.849   7.947  0.00  0.00    +0.131 C 
BRANCH  29  30
ATOM     30  C   UNL     1       1.084 -12.332   7.759  0.00  0.00    -0.035 A 
ATOM     31  C   UNL     1      -0.092 -12.935   8.164  0.00  0.00    +0.008 A 
ATOM     32  C   UNL     1      -0.271 -14.295   7.992  0.00  0.00    +0.050 A 
ATOM     33  C   UNL     1       0.730 -15.058   7.414  0.00  0.00    +0.166 A 
ATOM     34  C   UNL     1       1.916 -14.451   7.006  0.00  0.00    +0.166 A 
ATOM     35  C   UNL     1       2.085 -13.086   7.175  0.00  0.00    +0.053 A 
ATOM     36  O   UNL     1       2.733 -15.405   6.473  0.00  0.00    -0.453 OA
ATOM     37  C   UNL     1       2.204 -16.664   6.930  0.00  0.00    +0.466 C 
ATOM     38  O   UNL     1       0.805 -16.392   7.137  0.00  0.00    -0.453 OA
ENDBRANCH  29  30
ENDBRANCH   7  29
TORSDOF 4
