REMARK  Name = ZINC38553613
REMARK  2 active torsions:
REMARK  status: ('A' for Active; 'I' for Inactive)
REMARK    1  A    between atoms: C_9  and  C_11
REMARK    2  A    between atoms: C_22  and  C_25
REMARK                            x       y       z     vdW  Elec       q    Type
REMARK                         _______ _______ _______ _____ _____    ______ ____
ROOT
ATOM      1  C   UNL     1       5.006  -2.602  -0.060  0.00  0.00    +0.267 C 
ATOM      2  O   UNL     1       3.938  -2.026  -0.119  0.00  0.00    -0.268 OA
ATOM      3  N   UNL     1       6.149  -1.894   0.035  0.00  0.00    -0.293 N 
ATOM      4  C   UNL     1       6.117  -0.426   0.095  0.00  0.00    +0.127 C 
ATOM      5  C   UNL     1       6.866   0.029   1.354  0.00  0.00    +0.126 C 
ATOM      6  N   UNL     1       8.166  -0.653   1.399  0.00  0.00    -0.307 N 
ATOM      7  C   UNL     1       8.199  -2.121   1.338  0.00  0.00    +0.126 C 
ATOM      8  C   UNL     1       7.449  -2.577   0.085  0.00  0.00    +0.127 C 
ATOM      9  C   UNL     1       9.331   0.068   1.495  0.00  0.00    +0.151 C 
ATOM     10  N   UNL     1       9.306   1.367   1.711  0.00  0.00    -0.258 N 
ATOM     11  N   UNL     1      10.330   2.110   1.806  0.00  0.00    -0.176 NA
ATOM     12  C   UNL     1      11.535   1.896   1.405  0.00  0.00    +0.079 C 
ATOM     13  C   UNL     1      11.929   0.634   0.671  0.00  0.00    +0.134 C 
ATOM     14  S   UNL     1      10.907  -0.724   1.341  0.00  0.00    -0.085 S 
ATOM     15  H   UNL     1       8.438   1.789   1.803  0.00  0.00    +0.191 HD
ENDROOT
BRANCH   1  24
ATOM     16  C   UNL     1       6.214  -8.804  -0.550  0.00  0.00    +0.002 A 
ATOM     17  C   UNL     1       7.339  -8.080  -0.939  0.00  0.00    +0.002 A 
ATOM     18  C   UNL     1       7.351  -6.720  -0.928  0.00  0.00    +0.030 A 
ATOM     19  C   UNL     1       6.200  -6.021  -0.515  0.00  0.00    +0.090 A 
ATOM     20  C   UNL     1       5.018  -6.784  -0.108  0.00  0.00    +0.089 A 
ATOM     21  C   UNL     1       5.072  -8.187  -0.142  0.00  0.00    +0.030 A 
ATOM     22  N   UNL     1       3.921  -6.129   0.285  0.00  0.00    -0.251 NA
ATOM     23  C   UNL     1       3.921  -4.816   0.299  0.00  0.00    +0.144 A 
ATOM     24  C   UNL     1       5.052  -4.083  -0.091  0.00  0.00    +0.144 A 
ATOM     25  N   UNL     1       6.158  -4.690  -0.486  0.00  0.00    -0.239 NA
ENDBRANCH   1  24
BRANCH  12  26
ATOM     26  C   UNL     1      12.563   2.915   1.669  0.00  0.00    -0.001 A 
ATOM     27  C   UNL     1      13.879   2.713   1.240  0.00  0.00    +0.011 A 
ATOM     28  C   UNL     1      14.837   3.672   1.490  0.00  0.00    +0.020 A 
ATOM     29  C   UNL     1      14.499   4.834   2.165  0.00  0.00    +0.041 A 
ATOM     30  C   UNL     1      13.198   5.040   2.593  0.00  0.00    +0.020 A 
ATOM     31  C   UNL     1      12.228   4.092   2.345  0.00  0.00    +0.011 A 
ATOM     32 CL   UNL     1      15.712   6.036   2.476  0.00  0.00    -0.084 Cl
ENDBRANCH  12  26
TORSDOF 2
