REMARK  Name = ZINC12662650
REMARK  5 active torsions:
REMARK  status: ('A' for Active; 'I' for Inactive)
REMARK    1  A    between atoms: C_1  and  C_2
REMARK    2  A    between atoms: C_2  and  C_4
REMARK    3  A    between atoms: C_2  and  N_10
REMARK    4  A    between atoms: C_25  and  C_31
REMARK    5  A    between atoms: C_31  and  C_33
REMARK                            x       y       z     vdW  Elec       q    Type
REMARK                         _______ _______ _______ _____ _____    ______ ____
ROOT
ATOM      1  N   UNL     1      -0.680   1.554  -1.209  0.00  0.00    -0.234 N 
ATOM      2  C   UNL     1      -1.274   0.725  -2.081  0.00  0.00    +0.228 C 
ATOM      3  O   UNL     1      -1.463  -0.461  -1.916  0.00  0.00    -0.275 OA
ATOM      4  C   UNL     1      -1.669   1.527  -3.312  0.00  0.00    +0.113 C 
ATOM      5  C   UNL     1      -0.485   1.529  -4.287  0.00  0.00    +0.100 C 
ATOM      6  C   UNL     1      -0.809   0.769  -5.546  0.00  0.00    -0.021 A 
ATOM      7  C   UNL     1      -1.617  -0.344  -5.519  0.00  0.00    +0.006 A 
ATOM      8  C   UNL     1      -1.902  -1.020  -6.694  0.00  0.00    +0.000 A 
ATOM      9  C   UNL     1      -1.376  -0.582  -7.896  0.00  0.00    +0.001 A 
ATOM     10  C   UNL     1      -0.563   0.532  -7.936  0.00  0.00    +0.008 A 
ATOM     11  C   UNL     1      -0.270   1.220  -6.757  0.00  0.00    -0.019 A 
ATOM     12  C   UNL     1       0.602   2.411  -6.787  0.00  0.00    +0.022 C 
ATOM     13  C   UNL     1       0.600   3.260  -5.741  0.00  0.00    +0.054 C 
ATOM     14  C   UNL     1      -1.021   3.822  -3.842  0.00  0.00    +0.141 C 
ATOM     15  C   UNL     1      -1.677   2.978  -2.740  0.00  0.00    +0.116 C 
ATOM     16  C   UNL     1      -0.756   2.852  -1.546  0.00  0.00    +0.228 C 
ATOM     17  O   UNL     1      -0.184   3.765  -0.991  0.00  0.00    -0.275 OA
ATOM     18  N   UNL     1      -0.011   2.886  -4.402  0.00  0.00    -0.384 NA
ATOM     19  H   UNL     1       0.781   2.938  -3.750  0.00  0.00    +0.127 HD
ENDROOT
BRANCH   1  21
ATOM     20  C   UNL     1      -0.681   1.717   1.231  0.00  0.00    +0.033 C 
ATOM     21  C   UNL     1      -0.013   1.086   0.008  0.00  0.00    +0.111 C 
BRANCH  21  22
ATOM     22  C   UNL     1       1.440   1.483  -0.031  0.00  0.00    -0.027 A 
ATOM     23  C   UNL     1       2.143   1.417  -1.220  0.00  0.00    +0.005 A 
ATOM     24  C   UNL     1       3.474   1.787  -1.258  0.00  0.00    +0.000 A 
ATOM     25  C   UNL     1       4.107   2.211  -0.104  0.00  0.00    +0.000 A 
ATOM     26  C   UNL     1       3.406   2.271   1.086  0.00  0.00    +0.000 A 
ATOM     27  C   UNL     1       2.073   1.907   1.122  0.00  0.00    +0.005 A 
ENDBRANCH  21  22
ENDBRANCH   1  21
BRANCH  14  28
ATOM     28  C   UNL     1      -0.126   4.865  -3.223  0.00  0.00    +0.183 C 
ATOM     29  O   UNL     1       1.078   4.724  -3.251  0.00  0.00    -0.290 OA
BRANCH  28  30
ATOM     30  C   UNL     1      -0.714   6.053  -2.583  0.00  0.00    +0.019 A 
ATOM     31  C   UNL     1      -2.102   6.221  -2.553  0.00  0.00    +0.011 A 
ATOM     32  C   UNL     1      -2.645   7.334  -1.946  0.00  0.00    +0.001 A 
ATOM     33  C   UNL     1      -1.819   8.289  -1.378  0.00  0.00    +0.000 A 
ATOM     34  C   UNL     1      -0.444   8.133  -1.409  0.00  0.00    +0.001 A 
ATOM     35  C   UNL     1       0.114   7.022  -2.007  0.00  0.00    +0.011 A 
ENDBRANCH  28  30
ENDBRANCH  14  28
TORSDOF 4
