REMARK  Name = ZINC09386862
REMARK  9 active torsions:
REMARK  status: ('A' for Active; 'I' for Inactive)
REMARK    1  A    between atoms: C_1  and  C_2
REMARK    2  A    between atoms: C_5  and  C_19
REMARK    3  A    between atoms: C_7  and  S_8
REMARK    4  A    between atoms: S_8  and  N_11
REMARK    5  A    between atoms: N_11  and  C_12
REMARK    6  A    between atoms: C_12  and  C_13
REMARK    7  A    between atoms: N_21  and  C_22
REMARK    8  A    between atoms: N_21  and  C_23
REMARK    9  A    between atoms: C_23  and  C_24
REMARK                            x       y       z     vdW  Elec       q    Type
REMARK                         _______ _______ _______ _____ _____    ______ ____
ROOT
ATOM      1  C   UNL     1       1.395   0.944  -0.162  0.00  0.00    +0.046 C 
ATOM      2  C   UNL     1       0.391   2.042   0.079  0.00  0.00    -0.024 A 
ATOM      3  C   UNL     1      -0.787   1.764   0.749  0.00  0.00    +0.006 A 
ATOM      4  C   UNL     1      -1.712   2.763   0.968  0.00  0.00    +0.013 A 
ATOM      5  C   UNL     1      -1.453   4.060   0.522  0.00  0.00    +0.039 A 
ATOM      6  C   UNL     1      -0.263   4.334  -0.154  0.00  0.00    +0.041 A 
ATOM      7  C   UNL     1       0.651   3.324  -0.372  0.00  0.00    +0.109 A 
ENDROOT
BRANCH   5   8
ATOM      8  C   UNL     1      -2.437   5.138   0.759  0.00  0.00    +0.247 C 
ATOM      9  O   UNL     1      -2.073   6.296   0.797  0.00  0.00    -0.270 OA
ATOM     10  N   UNL     1      -3.739   4.835   0.933  0.00  0.00    -0.294 N 
ATOM     11  C   UNL     1      -4.198   3.453   0.771  0.00  0.00    +0.132 C 
BRANCH  10  12
ATOM     12  C   UNL     1      -4.696   5.888   1.284  0.00  0.00    +0.170 C 
BRANCH  12  13
ATOM     13  C   UNL     1      -5.264   6.490   0.025  0.00  0.00    +0.097 A 
ATOM     14  N   UNL     1      -6.324   6.123  -0.640  0.00  0.00    -0.242 NA
ATOM     15  C   UNL     1      -6.729   6.753  -1.762  0.00  0.00    +0.079 A 
ATOM     16  C   UNL     1      -7.844   6.477  -2.585  0.00  0.00    +0.029 A 
ATOM     17  C   UNL     1      -8.095   7.230  -3.690  0.00  0.00    +0.002 A 
ATOM     18  C   UNL     1      -7.274   8.290  -4.051  0.00  0.00    +0.001 A 
ATOM     19  C   UNL     1      -6.173   8.591  -3.272  0.00  0.00    +0.017 A 
ATOM     20  C   UNL     1      -5.911   7.837  -2.154  0.00  0.00    +0.039 A 
ATOM     21  S   UNL     1      -4.669   7.843  -0.886  0.00  0.00    -0.071 S 
ENDBRANCH  12  13
ENDBRANCH  10  12
ENDBRANCH   5   8
BRANCH   7  22
ATOM     22  S   UNL     1       2.154   3.668  -1.225  0.00  0.00    +0.059 S 
ATOM     23  O   UNL     1       2.093   5.031  -1.622  0.00  0.00    -0.153 OA
ATOM     24  O   UNL     1       3.205   3.156  -0.418  0.00  0.00    -0.153 OA
BRANCH  22  25
ATOM     25  N   UNL     1       2.144   2.769  -2.615  0.00  0.00    -0.186 NA
ATOM     26  H   UNL     1       2.798   2.064  -2.742  0.00  0.00    +0.148 HD
BRANCH  25  27
ATOM     27  C   UNL     1       1.148   3.038  -3.655  0.00  0.00    +0.141 C 
BRANCH  27  28
ATOM     28  C   UNL     1       1.600   2.425  -4.955  0.00  0.00    -0.032 A 
ATOM     29  C   UNL     1       2.370   3.161  -5.835  0.00  0.00    +0.005 A 
ATOM     30  C   UNL     1       2.789   2.597  -7.026  0.00  0.00    +0.000 A 
ATOM     31  C   UNL     1       2.429   1.300  -7.341  0.00  0.00    +0.000 A 
ATOM     32  C   UNL     1       1.653   0.566  -6.463  0.00  0.00    +0.000 A 
ATOM     33  C   UNL     1       1.239   1.128  -5.270  0.00  0.00    +0.005 A 
ENDBRANCH  27  28
ENDBRANCH  25  27
ENDBRANCH  22  25
ENDBRANCH   7  22
TORSDOF 7
