REMARK  Name = ZINC13476197
REMARK  6 active torsions:
REMARK  status: ('A' for Active; 'I' for Inactive)
REMARK    1  A    between atoms: C_1  and  C_2
REMARK    2  A    between atoms: C_2  and  N_3
REMARK    3  A    between atoms: N_16  and  C_29
REMARK    4  A    between atoms: N_21  and  C_26
REMARK    5  A    between atoms: N_24  and  C_25
REMARK    6  A    between atoms: C_26  and  C_27
REMARK                            x       y       z     vdW  Elec       q    Type
REMARK                         _______ _______ _______ _____ _____    ______ ____
ROOT
ATOM      1  N   UNL     1      -5.377   3.018  -0.611  0.00  0.00    -0.299 N 
ATOM      2  C   UNL     1      -6.365   3.908  -0.985  0.00  0.00    +0.041 A 
ATOM      3  C   UNL     1      -6.210   5.273  -0.776  0.00  0.00    +0.024 A 
ATOM      4  C   UNL     1      -7.208   6.145  -1.156  0.00  0.00    +0.002 A 
ATOM      5  C   UNL     1      -8.371   5.673  -1.748  0.00  0.00    +0.001 A 
ATOM      6  C   UNL     1      -8.546   4.325  -1.965  0.00  0.00    +0.010 A 
ATOM      7  C   UNL     1      -7.543   3.427  -1.585  0.00  0.00    -0.004 A 
ATOM      8  C   UNL     1      -7.699   1.987  -1.802  0.00  0.00    +0.011 C 
ATOM      9  C   UNL     1      -6.699   1.154  -1.422  0.00  0.00    +0.025 C 
ATOM     10  C   UNL     1      -5.535   1.670  -0.819  0.00  0.00    +0.053 C 
ATOM     11  C   UNL     1      -4.520   0.795  -0.431  0.00  0.00    +0.100 A 
ATOM     12  C   UNL     1      -4.516  -0.613  -0.415  0.00  0.00    +0.272 A 
ATOM     13  O   UNL     1      -5.498  -1.241  -0.777  0.00  0.00    -0.266 OA
ATOM     14  N   UNL     1      -3.430  -1.243  -0.003  0.00  0.00    -0.269 N 
ATOM     15  C   UNL     1      -2.326  -0.520   0.403  0.00  0.00    +0.115 A 
ATOM     16  C   UNL     1      -1.102  -0.981   0.865  0.00  0.00    +0.129 C 
ATOM     17  C   UNL     1      -0.744  -2.313   1.117  0.00  0.00    +0.269 C 
ATOM     18  O   UNL     1      -1.456  -3.294   0.969  0.00  0.00    -0.268 OA
ATOM     19  N   UNL     1       0.529  -2.312   1.557  0.00  0.00    -0.248 N 
ATOM     20  C   UNL     1       0.994  -1.052   1.592  0.00  0.00    +0.146 C 
ATOM     21  S   UNL     1       2.566  -0.592   2.090  0.00  0.00    -0.018 S 
ATOM     22  N   UNL     1       0.033  -0.205   1.174  0.00  0.00    -0.279 N 
ATOM     23  C   UNL     1       0.145   1.252   1.067  0.00  0.00    +0.137 C 
ATOM     24  S   UNL     1      -2.884   1.163   0.186  0.00  0.00    -0.062 S 
ENDROOT
BRANCH  14  25
ATOM     25  C   UNL     1      -3.398  -2.643   0.022  0.00  0.00    +0.051 A 
ATOM     26  C   UNL     1      -2.829  -3.345  -1.033  0.00  0.00    +0.026 A 
ATOM     27  C   UNL     1      -2.796  -4.725  -1.004  0.00  0.00    +0.002 A 
ATOM     28  C   UNL     1      -3.336  -5.409   0.070  0.00  0.00    +0.000 A 
ATOM     29  C   UNL     1      -3.908  -4.713   1.120  0.00  0.00    +0.002 A 
ATOM     30  C   UNL     1      -3.940  -3.332   1.098  0.00  0.00    +0.026 A 
ENDBRANCH  14  25
BRANCH   1  32
ATOM     31  C   UNL     1      -3.061   3.670  -1.049  0.00  0.00    +0.024 C 
ATOM     32  C   UNL     1      -4.150   3.517   0.015  0.00  0.00    +0.107 C 
ENDBRANCH   1  32
BRANCH  19  33
ATOM     33  C   UNL     1       1.291  -3.503   1.941  0.00  0.00    +0.112 C 
ATOM     34  C   UNL     1       1.086  -3.781   3.431  0.00  0.00    +0.025 C 
ENDBRANCH  19  33
TORSDOF 3
