REMARK  Name = ZINC50118320
REMARK  14 active torsions:
REMARK  status: ('A' for Active; 'I' for Inactive)
REMARK    1  A    between atoms: C_1  and  C_2
REMARK    2  A    between atoms: C_2  and  C_3
REMARK    3  A    between atoms: C_2  and  C_4
REMARK    4  A    between atoms: C_4  and  N_5
REMARK    5  A    between atoms: C_6  and  C_8
REMARK    6  A    between atoms: C_8  and  N_9
REMARK    7  A    between atoms: N_12  and  C_13
REMARK    8  A    between atoms: C_13  and  C_14
REMARK    9  A    between atoms: C_14  and  C_15
REMARK   10  A    between atoms: C_14  and  N_23
REMARK   11  A    between atoms: C_18  and  O_21
REMARK   12  A    between atoms: O_21  and  C_22
REMARK   13  A    between atoms: N_23  and  C_24
REMARK   14  A    between atoms: N_23  and  C_25
REMARK                            x       y       z     vdW  Elec       q    Type
REMARK                         _______ _______ _______ _____ _____    ______ ____
ROOT
ATOM      1  N   UNL     1      -4.117  -4.552  -0.213  0.00  0.00    -0.291 N 
ATOM      2  C   UNL     1      -4.289  -5.888  -0.217  0.00  0.00    +0.300 C 
ATOM      3  O   UNL     1      -3.325  -6.626  -0.150  0.00  0.00    -0.253 OA
ATOM      4  N   UNL     1      -5.530  -6.408  -0.294  0.00  0.00    -0.301 N 
ATOM      5  H   UNL     1      -4.887  -3.963  -0.266  0.00  0.00    +0.151 HD
ATOM      6  H   UNL     1      -6.300  -5.820  -0.347  0.00  0.00    +0.150 HD
ENDROOT
BRANCH   1   7
ATOM      7  C   UNL     1      -2.768  -3.987  -0.128  0.00  0.00    +0.201 C 
BRANCH   7   9
ATOM      8  N   UNL     1      -1.726  -1.744  -0.073  0.00  0.00    -0.314 N 
ATOM      9  C   UNL     1      -2.852  -2.482  -0.142  0.00  0.00    +0.230 C 
ATOM     10  O   UNL     1      -3.932  -1.936  -0.214  0.00  0.00    -0.274 OA
ATOM     11  H   UNL     1      -0.862  -2.182  -0.014  0.00  0.00    +0.149 HD
BRANCH   8  12
ATOM     12  C   UNL     1      -1.807  -0.282  -0.086  0.00  0.00    +0.107 C 
BRANCH  12  14
ATOM     13  C   UNL     1      -0.473   1.830  -0.136  0.00  0.00    +0.009 C 
ATOM     14  C   UNL     1      -0.398   0.308   0.003  0.00  0.00    -0.000 C 
ATOM     15  C   UNL     1       0.221  -0.051   1.355  0.00  0.00    +0.009 C 
ENDBRANCH  12  14
ENDBRANCH   8  12
ENDBRANCH   7   9
ENDBRANCH   1   7
BRANCH   4  16
ATOM     16  C   UNL     1      -5.717  -7.861  -0.299  0.00  0.00    +0.095 C 
BRANCH  16  17
ATOM     17  C   UNL     1      -7.213  -8.183  -0.280  0.00  0.00    -0.021 C 
BRANCH  17  18
ATOM     18  C   UNL     1      -7.850  -7.682  -1.551  0.00  0.00    -0.059 A 
ATOM     19  C   UNL     1      -7.745  -8.423  -2.714  0.00  0.00    +0.005 A 
ATOM     20  C   UNL     1      -8.329  -7.966  -3.880  0.00  0.00    +0.046 A 
ATOM     21  C   UNL     1      -9.020  -6.763  -3.883  0.00  0.00    +0.120 A 
ATOM     22  C   UNL     1      -9.124  -6.022  -2.715  0.00  0.00    +0.046 A 
ATOM     23  C   UNL     1      -8.544  -6.486  -1.550  0.00  0.00    +0.005 A 
BRANCH  21  24
ATOM     24  O   UNL     1      -9.594  -6.311  -5.029  0.00  0.00    -0.495 OA
ATOM     25  C   UNL     1     -10.290  -5.065  -4.958  0.00  0.00    +0.277 C 
ENDBRANCH  21  24
ENDBRANCH  17  18
BRANCH  17  26
ATOM     26  N   UNL     1      -7.400  -9.636  -0.178  0.00  0.00    +0.382 N 
ATOM     27  C   UNL     1      -6.780 -10.124   1.061  0.00  0.00    -0.096 C 
ATOM     28  C   UNL     1      -8.836  -9.945  -0.162  0.00  0.00    -0.096 C 
ATOM     29  H   UNL     1      -6.968 -10.087  -0.971  0.00  0.00    -0.082 HD
ENDBRANCH  17  26
ENDBRANCH  16  17
ENDBRANCH   4  16
TORSDOF 9
