REMARK  Name = ZINC22834345
REMARK  9 active torsions:
REMARK  status: ('A' for Active; 'I' for Inactive)
REMARK    1  A    between atoms: C_1  and  C_2
REMARK    2  A    between atoms: C_2  and  C_4
REMARK    3  A    between atoms: C_2  and  N_16
REMARK    4  A    between atoms: N_6  and  C_7
REMARK    5  A    between atoms: C_12  and  O_13
REMARK    6  A    between atoms: O_13  and  C_14
REMARK    7  A    between atoms: N_19  and  C_22
REMARK    8  A    between atoms: C_22  and  C_23
REMARK    9  A    between atoms: C_26  and  C_28
REMARK                            x       y       z     vdW  Elec       q    Type
REMARK                         _______ _______ _______ _____ _____    ______ ____
ROOT
ATOM      1  N   UNL     1      -4.675   0.232  -0.006  0.00  0.00    +0.389 N 
ATOM      2  C   UNL     1      -4.584   1.140   1.146  0.00  0.00    -0.062 C 
ATOM      3  C   UNL     1      -5.746   2.135   1.101  0.00  0.00    +0.066 C 
ATOM      4  N   UNL     1      -7.018   1.399   1.114  0.00  0.00    -0.300 NA
ATOM      5  C   UNL     1      -7.109   0.491  -0.038  0.00  0.00    +0.066 C 
ATOM      6  C   UNL     1      -5.947  -0.504   0.007  0.00  0.00    -0.062 C 
ATOM      7  H   UNL     1      -4.644   0.841  -0.922  0.00  0.00    -0.081 HD
ENDROOT
BRANCH   1   9
ATOM      8  C   UNL     1      -3.646  -1.686   1.117  0.00  0.00    -0.004 C 
ATOM      9  C   UNL     1      -3.533  -0.692  -0.040  0.00  0.00    +0.017 C 
BRANCH   9  10
ATOM     10  C   UNL     1      -3.533  -1.441  -1.348  0.00  0.00    +0.203 C 
ATOM     11  O   UNL     1      -4.351  -1.173  -2.201  0.00  0.00    -0.277 OA
ATOM     12  N   UNL     1      -2.622  -2.410  -1.568  0.00  0.00    -0.284 N 
ATOM     13  H   UNL     1      -1.943  -2.721  -0.761  0.00  0.00    +0.155 HD
BRANCH  12  14
ATOM     14  C   UNL     1      -2.541  -3.022  -2.826  0.00  0.00    +0.077 A 
ATOM     15  C   UNL     1      -2.982  -2.349  -3.956  0.00  0.00    +0.047 A 
ATOM     16  C   UNL     1      -2.900  -2.954  -5.197  0.00  0.00    +0.043 A 
ATOM     17  C   UNL     1      -2.378  -4.231  -5.314  0.00  0.00    +0.024 A 
ATOM     18  C   UNL     1      -1.937  -4.906  -4.192  0.00  0.00    +0.049 A 
ATOM     19  C   UNL     1      -2.016  -4.306  -2.946  0.00  0.00    +0.141 A 
ATOM     20 CL   UNL     1      -3.453  -2.111  -6.610  0.00  0.00    -0.083 Cl
BRANCH  19  21
ATOM     21  O   UNL     1      -1.582  -4.970  -1.841  0.00  0.00    -0.493 OA
ATOM     22  C   UNL     1      -1.056  -6.284  -2.039  0.00  0.00    +0.277 C 
ENDBRANCH  19  21
ENDBRANCH  12  14
ENDBRANCH   9  10
ENDBRANCH   1   9
BRANCH   4  23
ATOM     23  C   UNL     1      -8.160   2.323   1.148  0.00  0.00    +0.140 C 
BRANCH  23  24
ATOM     24  C   UNL     1      -8.166   3.066   2.459  0.00  0.00    +0.063 A 
ATOM     25  C   UNL     1      -7.587   4.293   2.549  0.00  0.00    +0.071 A 
ATOM     26  S   UNL     1      -7.889   4.674   4.271  0.00  0.00    -0.075 S 
ATOM     27  C   UNL     1      -8.750   3.161   4.681  0.00  0.00    +0.109 A 
ATOM     28  N   UNL     1      -8.735   2.532   3.514  0.00  0.00    -0.243 NA
BRANCH  27  29
ATOM     29  C   UNL     1      -9.329   2.732   5.972  0.00  0.00    +0.007 A 
ATOM     30  C   UNL     1      -9.973   1.498   6.075  0.00  0.00    +0.010 A 
ATOM     31  C   UNL     1     -10.507   1.101   7.284  0.00  0.00    +0.001 A 
ATOM     32  C   UNL     1     -10.414   1.927   8.389  0.00  0.00    +0.000 A 
ATOM     33  C   UNL     1      -9.780   3.153   8.293  0.00  0.00    +0.001 A 
ATOM     34  C   UNL     1      -9.238   3.560   7.091  0.00  0.00    +0.010 A 
ENDBRANCH  27  29
ENDBRANCH  23  24
ENDBRANCH   4  23
TORSDOF 7
