REMARK  Name = ZINC19604624
REMARK  4 active torsions:
REMARK  status: ('A' for Active; 'I' for Inactive)
REMARK    1  A    between atoms: C_6  and  N_7
REMARK    2  A    between atoms: C_8  and  C_10
REMARK    3  A    between atoms: C_10  and  N_11
REMARK    4  A    between atoms: C_17  and  C_19
REMARK                            x       y       z     vdW  Elec       q    Type
REMARK                         _______ _______ _______ _____ _____    ______ ____
ROOT
ATOM      1  N   UNL     1      -0.741   1.261  -1.036  0.00  0.00    +0.387 N 
ATOM      2  C   UNL     1      -0.061   0.854   0.201  0.00  0.00    -0.059 C 
ATOM      3  C   UNL     1      -0.781   1.473   1.404  0.00  0.00    +0.089 C 
ATOM      4  N   UNL     1      -0.876   2.926   1.195  0.00  0.00    -0.301 N 
ATOM      5  C   UNL     1      -1.421   3.412  -0.082  0.00  0.00    +0.089 C 
ATOM      6  C   UNL     1      -0.675   2.716  -1.226  0.00  0.00    -0.059 C 
ATOM      7  C   UNL     1      -0.473   3.789   2.148  0.00  0.00    +0.248 C 
ATOM      8  O   UNL     1      -0.461   4.983   1.921  0.00  0.00    -0.270 OA
ATOM      9  H   UNL     1      -1.802   0.984  -0.942  0.00  0.00    -0.081 HD
ENDROOT
BRANCH   7  10
ATOM     10  C   UNL     1      -0.047   3.284   3.470  0.00  0.00    +0.056 A 
ATOM     11  C   UNL     1      -0.889   2.448   4.205  0.00  0.00    +0.029 A 
ATOM     12  C   UNL     1      -0.483   1.976   5.437  0.00  0.00    +0.019 A 
ATOM     13  C   UNL     1       0.752   2.338   5.949  0.00  0.00    +0.017 A 
ATOM     14  C   UNL     1       1.589   3.171   5.228  0.00  0.00    +0.022 A 
ATOM     15  C   UNL     1       1.197   3.646   3.992  0.00  0.00    +0.053 A 
ATOM     16 CL   UNL     1       2.249   4.690   3.088  0.00  0.00    -0.083 Cl
ATOM     17 BR   UNL     1      -1.618   0.837   6.431  0.00  0.00    -0.050 Br
ENDBRANCH   7  10
BRANCH   1  18
ATOM     18  C   UNL     1      -0.189   0.553  -2.198  0.00  0.00    +0.019 C 
BRANCH  18  20
ATOM     19  N   UNL     1      -0.746   0.251  -4.589  0.00  0.00    -0.287 N 
ATOM     20  C   UNL     1      -1.060   0.804  -3.401  0.00  0.00    +0.201 C 
ATOM     21  O   UNL     1      -2.045   1.505  -3.300  0.00  0.00    -0.278 OA
ATOM     22  H   UNL     1       0.106  -0.442  -4.665  0.00  0.00    +0.155 HD
BRANCH  19  28
ATOM     23  C   UNL     1      -2.871   0.764  -5.617  0.00  0.00    +0.026 A 
ATOM     24  C   UNL     1      -3.614   1.073  -6.739  0.00  0.00    +0.040 A 
ATOM     25  C   UNL     1      -2.997   1.165  -7.976  0.00  0.00    +0.124 A 
ATOM     26  C   UNL     1      -1.633   0.954  -8.088  0.00  0.00    +0.040 A 
ATOM     27  C   UNL     1      -0.885   0.651  -6.968  0.00  0.00    +0.026 A 
ATOM     28  C   UNL     1      -1.502   0.558  -5.727  0.00  0.00    +0.033 A 
ATOM     29  F   UNL     1      -3.727   1.462  -9.073  0.00  0.00    -0.205 F 
ENDBRANCH  19  28
ENDBRANCH  18  20
ENDBRANCH   1  18
TORSDOF 4
