REMARK  Name = ZINC46587195
REMARK  9 active torsions:
REMARK  status: ('A' for Active; 'I' for Inactive)
REMARK    1  A    between atoms: C_1  and  C_2
REMARK    2  A    between atoms: C_2  and  C_4
REMARK    3  A    between atoms: C_2  and  N_11
REMARK    4  A    between atoms: N_11  and  C_12
REMARK    5  A    between atoms: N_11  and  C_13
REMARK    6  A    between atoms: C_13  and  C_14
REMARK    7  A    between atoms: N_19  and  C_20
REMARK    8  A    between atoms: C_20  and  C_21
REMARK    9  A    between atoms: C_21  and  C_22
REMARK                            x       y       z     vdW  Elec       q    Type
REMARK                         _______ _______ _______ _____ _____    ______ ____
ROOT
ATOM      1  C   UNL     1       1.565  -2.457   2.337  0.00  0.00    +0.204 C 
ATOM      2  O   UNL     1       2.090  -1.666   3.091  0.00  0.00    -0.277 OA
ATOM      3  N   UNL     1       1.726  -3.781   2.530  0.00  0.00    -0.242 N 
ATOM      4  C   UNL     1       2.471  -4.226   3.562  0.00  0.00    +0.306 C 
ATOM      5  O   UNL     1       2.997  -3.433   4.318  0.00  0.00    -0.252 OA
ATOM      6  N   UNL     1       2.632  -5.550   3.755  0.00  0.00    -0.299 N 
ATOM      7  H   UNL     1       1.306  -4.414   1.927  0.00  0.00    +0.159 HD
ATOM      8  H   UNL     1       2.212  -6.183   3.152  0.00  0.00    +0.150 HD
ENDROOT
BRANCH   1   9
ATOM      9  C   UNL     1       0.733  -1.960   1.184  0.00  0.00    +0.019 C 
BRANCH   9  10
ATOM     10  N   UNL     1       0.713  -0.491   1.192  0.00  0.00    +0.388 N 
ATOM     11  C   UNL     1       0.025  -0.017   2.401  0.00  0.00    -0.095 C 
ATOM     12  H   UNL     1       1.659  -0.141   1.185  0.00  0.00    -0.081 HD
BRANCH  10  14
ATOM     13  C   UNL     1      -0.019   1.526   0.010  0.00  0.00    -0.008 C 
ATOM     14  C   UNL     1       0.002  -0.004   0.002  0.00  0.00    -0.041 C 
BRANCH  14  15
ATOM     15  C   UNL     1       0.707  -0.490  -1.238  0.00  0.00    -0.061 A 
ATOM     16  C   UNL     1       2.089  -0.511  -1.284  0.00  0.00    +0.003 A 
ATOM     17  C   UNL     1       2.736  -0.956  -2.421  0.00  0.00    +0.020 A 
ATOM     18  C   UNL     1       2.002  -1.382  -3.513  0.00  0.00    +0.041 A 
ATOM     19  C   UNL     1       0.619  -1.361  -3.466  0.00  0.00    +0.020 A 
ATOM     20  C   UNL     1      -0.027  -0.920  -2.327  0.00  0.00    +0.003 A 
ATOM     21 CL   UNL     1       2.814  -1.941  -4.941  0.00  0.00    -0.084 Cl
ENDBRANCH  14  15
ENDBRANCH  10  14
ENDBRANCH   9  10
ENDBRANCH   1   9
BRANCH   6  22
ATOM     22  C   UNL     1       3.442  -6.034   4.876  0.00  0.00    +0.111 C 
BRANCH  22  23
ATOM     23  C   UNL     1       3.463  -7.563   4.868  0.00  0.00    +0.061 C 
BRANCH  23  24
ATOM     24  C   UNL     1       4.295  -8.061   6.021  0.00  0.00    -0.009 A 
ATOM     25  C   UNL     1       3.909  -8.363   7.285  0.00  0.00    +0.011 A 
ATOM     26  C   UNL     1       4.857  -8.808   8.187  0.00  0.00    +0.008 A 
ATOM     27  C   UNL     1       6.145  -8.930   7.781  0.00  0.00    +0.045 A 
ATOM     28  S   UNL     1       6.045  -8.413   6.075  0.00  0.00    -0.102 S 
ENDBRANCH  23  24
ENDBRANCH  22  23
ENDBRANCH   6  22
TORSDOF 7
