REMARK  Name = ZINC12585963
REMARK  10 active torsions:
REMARK  status: ('A' for Active; 'I' for Inactive)
REMARK    1  A    between atoms: C_1  and  C_2
REMARK    2  A    between atoms: C_2  and  C_3
REMARK    3  A    between atoms: C_8  and  N_9
REMARK    4  A    between atoms: C_15  and  C_17
REMARK    5  A    between atoms: C_17  and  N_18
REMARK    6  A    between atoms: N_18  and  C_23
REMARK    7  A    between atoms: C_23  and  C_24
REMARK    8  A    between atoms: N_30  and  C_31
REMARK    9  A    between atoms: C_36  and  C_37
REMARK   10  A    between atoms: C_37  and  C_38
REMARK                            x       y       z     vdW  Elec       q    Type
REMARK                         _______ _______ _______ _____ _____    ______ ____
ROOT
ATOM      1  N   UNL     1       0.556  -0.278  -2.647  0.00  0.00    +0.390 N 
ATOM      2  C   UNL     1      -0.895  -0.557  -2.645  0.00  0.00    -0.074 C 
ATOM      3  C   UNL     1      -1.170  -1.235  -4.011  0.00  0.00    -0.020 C 
ATOM      4  C   UNL     1       0.108  -2.096  -4.196  0.00  0.00    -0.020 C 
ATOM      5  C   UNL     1       1.213  -1.214  -3.578  0.00  0.00    -0.074 C 
ENDROOT
BRANCH   1   6
ATOM      6  C   UNL     1       1.098  -0.464  -1.294  0.00  0.00    +0.003 C 
BRANCH   6  13
ATOM      7  N   UNL     1      -2.503   0.319   1.747  0.00  0.00    -0.283 N 
ATOM      8  C   UNL     1      -1.376   0.782   1.128  0.00  0.00    +0.224 A 
ATOM      9  N   UNL     1      -0.926   2.047   1.378  0.00  0.00    -0.181 NA
ATOM     10  C   UNL     1       0.214   2.487   0.732  0.00  0.00    +0.217 A 
ATOM     11  N   UNL     1       0.677   3.697   0.947  0.00  0.00    -0.327 N 
ATOM     12  N   UNL     1       0.843   1.657  -0.122  0.00  0.00    -0.202 NA
ATOM     13  C   UNL     1       0.376   0.447  -0.335  0.00  0.00    +0.120 A 
ATOM     14  N   UNL     1      -0.717   0.010   0.279  0.00  0.00    -0.201 NA
ATOM     15  H   UNL     1      -2.982   0.917   2.536  0.00  0.00    +0.155 HD
ATOM     16  H   UNL     1       1.584   4.039   0.428  0.00  0.00    +0.145 HD
ATOM     17  H   UNL     1       0.157   4.368   1.646  0.00  0.00    +0.145 HD
BRANCH   7  23
ATOM     18  C   UNL     1      -4.421  -1.111   1.417  0.00  0.00    -0.026 A 
ATOM     19  C   UNL     1      -4.955  -2.331   1.051  0.00  0.00    +0.005 A 
ATOM     20  C   UNL     1      -4.122  -3.357   0.643  0.00  0.00    +0.000 A 
ATOM     21  C   UNL     1      -2.753  -3.166   0.601  0.00  0.00    +0.002 A 
ATOM     22  C   UNL     1      -2.213  -1.947   0.963  0.00  0.00    +0.023 A 
ATOM     23  C   UNL     1      -3.047  -0.915   1.377  0.00  0.00    +0.037 A 
BRANCH  18  25
ATOM     24  C   UNL     1      -5.641   0.915   0.670  0.00  0.00    +0.009 C 
ATOM     25  C   UNL     1      -5.329   0.007   1.861  0.00  0.00    +0.033 C 
ENDBRANCH  18  25
ENDBRANCH   7  23
ENDBRANCH   6  13
ENDBRANCH   1   6
BRANCH   1  26
ATOM     26  C   UNL     1       0.790   1.103  -3.089  0.00  0.00    +0.003 C 
BRANCH  26  27
ATOM     27  C   UNL     1       2.273   1.359  -3.173  0.00  0.00    +0.120 A 
ATOM     28  N   UNL     1       2.901   1.223  -4.328  0.00  0.00    -0.202 NA
ATOM     29  C   UNL     1       4.210   1.448  -4.407  0.00  0.00    +0.217 A 
ATOM     30  N   UNL     1       4.886   1.811  -3.322  0.00  0.00    -0.181 NA
ATOM     31  C   UNL     1       4.252   1.947  -2.163  0.00  0.00    +0.224 A 
ATOM     32  N   UNL     1       2.941   1.726  -2.094  0.00  0.00    -0.201 NA
ATOM     33  N   UNL     1       4.950   2.324  -1.032  0.00  0.00    -0.283 N 
ATOM     34  N   UNL     1       4.865   1.304  -5.613  0.00  0.00    -0.327 N 
ATOM     35  H   UNL     1       4.411   2.531  -0.096  0.00  0.00    +0.155 HD
ATOM     36  H   UNL     1       5.947   1.491  -5.677  0.00  0.00    +0.145 HD
ATOM     37  H   UNL     1       4.304   1.004  -6.511  0.00  0.00    +0.145 HD
BRANCH  33  38
ATOM     38  C   UNL     1       6.343   2.442  -1.078  0.00  0.00    +0.037 A 
ATOM     39  C   UNL     1       7.096   1.530  -1.807  0.00  0.00    +0.023 A 
ATOM     40  C   UNL     1       8.470   1.651  -1.853  0.00  0.00    +0.002 A 
ATOM     41  C   UNL     1       9.099   2.675  -1.167  0.00  0.00    +0.000 A 
ATOM     42  C   UNL     1       8.353   3.582  -0.437  0.00  0.00    +0.005 A 
ATOM     43  C   UNL     1       6.977   3.469  -0.390  0.00  0.00    -0.026 A 
BRANCH  43  44
ATOM     44  C   UNL     1       6.165   4.458   0.406  0.00  0.00    +0.033 C 
ATOM     45  C   UNL     1       5.894   3.889   1.800  0.00  0.00    +0.009 C 
ENDBRANCH  43  44
ENDBRANCH  33  38
ENDBRANCH  26  27
ENDBRANCH   1  26
TORSDOF 8
