REMARK  Name = ZINC39980023
REMARK  6 active torsions:
REMARK  status: ('A' for Active; 'I' for Inactive)
REMARK    1  A    between atoms: C_1  and  O_2
REMARK    2  A    between atoms: O_2  and  C_3
REMARK    3  A    between atoms: C_6  and  N_10
REMARK    4  A    between atoms: N_10  and  C_11
REMARK    5  A    between atoms: N_14  and  S_15
REMARK    6  A    between atoms: S_15  and  C_18
REMARK                            x       y       z     vdW  Elec       q    Type
REMARK                         _______ _______ _______ _____ _____    ______ ____
ROOT
ATOM      1  C   UNL     1       2.607  -3.914  -4.329  0.00  0.00    +0.237 C 
ATOM      2  C   UNL     1       4.069  -4.224  -4.555  0.00  0.00    +0.192 C 
ATOM      3  N   UNL     1       4.973  -3.778  -3.733  0.00  0.00    -0.110 NA
ATOM      4  N   UNL     1       4.421  -4.966  -5.617  0.00  0.00    -0.226 NA
ATOM      5  C   UNL     1       3.525  -5.429  -6.463  0.00  0.00    +0.089 A 
ATOM      6  C   UNL     1       3.932  -6.210  -7.574  0.00  0.00    +0.030 A 
ATOM      7  C   UNL     1       3.017  -6.687  -8.446  0.00  0.00    +0.002 A 
ATOM      8  C   UNL     1       1.640  -6.446  -8.310  0.00  0.00    +0.002 A 
ATOM      9  C   UNL     1       1.145  -5.714  -7.288  0.00  0.00    +0.027 A 
ATOM     10  C   UNL     1       2.076  -5.158  -6.295  0.00  0.00    +0.063 A 
ATOM     11  N   UNL     1       1.635  -4.448  -5.295  0.00  0.00    -0.359 N 
ATOM     12  H   UNL     1       0.686  -4.275  -5.191  0.00  0.00    +0.162 HD
ENDROOT
BRANCH   3  13
ATOM     13  S   UNL     1       6.572  -4.125  -3.993  0.00  0.00    +0.102 S 
ATOM     14  O   UNL     1       6.715  -5.528  -3.824  0.00  0.00    -0.146 OA
ATOM     15  O   UNL     1       6.941  -3.460  -5.193  0.00  0.00    -0.146 OA
BRANCH  13  16
ATOM     16  C   UNL     1       7.487  -3.364  -2.694  0.00  0.00    +0.132 A 
ATOM     17  C   UNL     1       8.182  -4.145  -1.790  0.00  0.00    +0.050 A 
ATOM     18  C   UNL     1       8.901  -3.548  -0.769  0.00  0.00    +0.043 A 
ATOM     19  C   UNL     1       8.925  -2.169  -0.654  0.00  0.00    +0.021 A 
ATOM     20  C   UNL     1       8.230  -1.389  -1.558  0.00  0.00    +0.023 A 
ATOM     21  C   UNL     1       7.515  -1.986  -2.582  0.00  0.00    +0.068 A 
ATOM     22 CL   UNL     1       6.648  -1.005  -3.722  0.00  0.00    -0.082 Cl
ATOM     23 CL   UNL     1       9.774  -4.529   0.367  0.00  0.00    -0.083 Cl
ENDBRANCH  13  16
ENDBRANCH   3  13
BRANCH   1  24
ATOM     24  N   UNL     1       2.457  -2.457  -4.303  0.00  0.00    -0.318 N 
ATOM     25  H   UNL     1       2.821  -1.919  -5.023  0.00  0.00    +0.148 HD
BRANCH  24  29
ATOM     26  C   UNL     1       0.472  -0.623  -1.128  0.00  0.00    +0.138 A 
ATOM     27  C   UNL     1       0.469  -2.005  -1.242  0.00  0.00    +0.049 A 
ATOM     28  C   UNL     1       1.126  -2.613  -2.294  0.00  0.00    +0.026 A 
ATOM     29  C   UNL     1       1.791  -1.841  -3.237  0.00  0.00    +0.030 A 
ATOM     30  C   UNL     1       1.793  -0.457  -3.123  0.00  0.00    +0.046 A 
ATOM     31  C   UNL     1       1.130   0.151  -2.074  0.00  0.00    +0.084 A 
ATOM     32 CL   UNL     1       1.127   1.881  -1.935  0.00  0.00    -0.080 Cl
BRANCH  26  34
ATOM     33  C   UNL     1      -0.832  -0.882   0.844  0.00  0.00    +0.277 C 
ATOM     34  O   UNL     1      -0.176  -0.025  -0.092  0.00  0.00    -0.494 OA
ENDBRANCH  26  34
ENDBRANCH  24  29
ENDBRANCH   1  24
TORSDOF 5
