REMARK  Name = ZINC11868145
REMARK  4 active torsions:
REMARK  status: ('A' for Active; 'I' for Inactive)
REMARK    1  A    between atoms: C_9  and  N_60
REMARK    2  A    between atoms: C_17  and  C_19
REMARK    3  A    between atoms: C_21  and  C_30
REMARK    4  A    between atoms: C_23  and  N_25
REMARK                            x       y       z     vdW  Elec       q    Type
REMARK                         _______ _______ _______ _____ _____    ______ ____
ROOT
ATOM      1  C   UNL     1       6.445   9.597   0.832  0.00  0.00    -0.059 C 
ATOM      2  C   UNL     1       6.069   8.551  -0.223  0.00  0.00    +0.089 C 
ATOM      3  N   UNL     1       4.633   8.258  -0.100  0.00  0.00    -0.301 N 
ATOM      4  C   UNL     1       3.691   9.387  -0.093  0.00  0.00    +0.089 C 
ATOM      5  C   UNL     1       4.161  10.400   0.963  0.00  0.00    -0.059 C 
ATOM      6  C   UNL     1       4.193   6.988  -0.001  0.00  0.00    +0.247 C 
ATOM      7  O   UNL     1       4.988   6.074   0.093  0.00  0.00    -0.270 OA
ATOM      8  N   UNL     1       5.562  10.772   0.670  0.00  0.00    +0.384 N 
ATOM      9  H   UNL     1       5.623  11.104  -0.300  0.00  0.00    -0.081 HD
ENDROOT
BRANCH   8  18
ATOM     10  C   UNL     1       6.626  14.607   5.774  0.00  0.00    +0.000 A 
ATOM     11  C   UNL     1       6.786  13.293   6.172  0.00  0.00    +0.000 A 
ATOM     12  C   UNL     1       6.572  12.272   5.269  0.00  0.00    +0.004 A 
ATOM     13  C   UNL     1       6.195  12.554   3.961  0.00  0.00    -0.046 A 
ATOM     14  C   UNL     1       6.040  13.863   3.564  0.00  0.00    -0.044 A 
ATOM     15  C   UNL     1       6.255  14.889   4.475  0.00  0.00    +0.004 A 
ATOM     16  C   UNL     1       5.643  14.243   2.161  0.00  0.00    +0.034 C 
ATOM     17  C   UNL     1       5.037  13.045   1.432  0.00  0.00    -0.010 C 
ATOM     18  C   UNL     1       5.995  11.857   1.575  0.00  0.00    -0.064 C 
ATOM     19  C   UNL     1       5.972  11.392   3.030  0.00  0.00    +0.020 C 
ENDBRANCH   8  18
BRANCH   6  20
ATOM     20  C   UNL     1       2.741   6.707  -0.006  0.00  0.00    +0.039 A 
ATOM     21  C   UNL     1       1.896   7.417  -0.857  0.00  0.00    +0.022 A 
ATOM     22  C   UNL     1       0.528   7.152  -0.855  0.00  0.00    -0.009 A 
ATOM     23  C   UNL     1       0.010   6.169  -0.010  0.00  0.00    +0.037 A 
ATOM     24  C   UNL     1       0.855   5.460   0.830  0.00  0.00    +0.070 A 
ATOM     25  C   UNL     1       2.216   5.725   0.835  0.00  0.00    +0.041 A 
BRANCH  24  26
ATOM     26  N   UNL     1       0.331   4.473   1.678  0.00  0.00    -0.200 N 
ATOM     27  C   UNL     1       1.010   3.693   2.547  0.00  0.00    +0.250 A 
ATOM     28  N   UNL     1       0.138   2.915   3.134  0.00  0.00    -0.116 NA
ATOM     29  N   UNL     1      -1.044   3.144   2.689  0.00  0.00    -0.023 NA
ATOM     30  N   UNL     1      -1.013   4.078   1.800  0.00  0.00    -0.039 NA
ENDBRANCH  24  26
BRANCH  22  31
ATOM     31  C   UNL     1      -0.374   7.908  -1.751  0.00  0.00    +0.019 A 
ATOM     32  C   UNL     1      -1.730   7.798  -1.903  0.00  0.00    +0.016 A 
ATOM     33  C   UNL     1      -2.364   8.623  -2.806  0.00  0.00    +0.008 A 
ATOM     34  C   UNL     1      -1.627   9.509  -3.524  0.00  0.00    +0.046 A 
ATOM     35  S   UNL     1       0.023   9.201  -2.916  0.00  0.00    -0.097 S 
ENDBRANCH  22  31
ENDBRANCH   6  20
TORSDOF 4
