REMARK  Name = ZINC50044935
REMARK  3 active torsions:
REMARK  status: ('A' for Active; 'I' for Inactive)
REMARK    1  A    between atoms: C_4  and  C_18
REMARK    2  A    between atoms: C_6  and  N_7
REMARK    3  A    between atoms: C_8  and  C_10
REMARK                            x       y       z     vdW  Elec       q    Type
REMARK                         _______ _______ _______ _____ _____    ______ ____
ROOT
ATOM      1  N   UNL     1      -1.200  -0.720   0.010  0.00  0.00    -0.281 N 
ATOM      2  C   UNL     1      -2.373  -0.066   0.127  0.00  0.00    +0.251 C 
ATOM      3  O   UNL     1      -2.393   1.150   0.134  0.00  0.00    -0.270 OA
ATOM      4  H   UNL     1      -1.190  -1.687  -0.063  0.00  0.00    +0.155 HD
ENDROOT
BRANCH   2   5
ATOM      5  C   UNL     1      -3.634  -0.826   0.247  0.00  0.00    +0.075 A 
ATOM      6  C   UNL     1      -3.624  -2.226   0.246  0.00  0.00    +0.033 A 
ATOM      7  C   UNL     1      -4.833  -2.891   0.360  0.00  0.00    +0.037 A 
ATOM      8  C   UNL     1      -6.002  -2.158   0.471  0.00  0.00    +0.127 A 
ATOM      9  N   UNL     1      -5.982  -0.839   0.469  0.00  0.00    -0.242 NA
ATOM     10  C   UNL     1      -4.856  -0.160   0.368  0.00  0.00    +0.141 A 
ATOM     11 CL   UNL     1      -4.894   1.575   0.380  0.00  0.00    -0.061 Cl
ATOM     12 BR   UNL     1      -4.887  -4.781   0.365  0.00  0.00    -0.049 Br
ENDBRANCH   2   5
BRANCH   1  18
ATOM     13  C   UNL     1       1.139  -0.542   0.583  0.00  0.00    +0.025 A 
ATOM     14  C   UNL     1       2.329   0.160   0.571  0.00  0.00    +0.023 A 
ATOM     15  C   UNL     1       2.397   1.403  -0.028  0.00  0.00    +0.058 A 
ATOM     16  C   UNL     1       1.258   1.953  -0.624  0.00  0.00    +0.072 A 
ATOM     17  C   UNL     1       0.057   1.243  -0.610  0.00  0.00    +0.043 A 
ATOM     18  C   UNL     1       0.002  -0.004  -0.006  0.00  0.00    +0.035 A 
ATOM     19 CL   UNL     1       3.894   2.281  -0.041  0.00  0.00    -0.082 Cl
BRANCH  16  20
ATOM     20  C   UNL     1       1.324   3.242  -1.245  0.00  0.00    +0.101 C 
ATOM     21  N   UNL     1       1.376   4.264  -1.738  0.00  0.00    -0.191 NA
ENDBRANCH  16  20
ENDBRANCH   1  18
TORSDOF 3
