REMARK  Name = ZINC20745133
REMARK  3 active torsions:
REMARK  status: ('A' for Active; 'I' for Inactive)
REMARK    1  A    between atoms: C_1  and  C_2
REMARK    2  A    between atoms: C_10  and  O_24
REMARK    3  A    between atoms: N_16  and  C_17
REMARK                            x       y       z     vdW  Elec       q    Type
REMARK                         _______ _______ _______ _____ _____    ______ ____
ROOT
ATOM      1  C   UNL     1      -0.018   1.503   0.010  0.00  0.00    +0.044 C 
ATOM      2  C   UNL     1       0.002  -0.004   0.002  0.00  0.00    -0.050 A 
ATOM      3  C   UNL     1       0.005  -0.673  -1.205  0.00  0.00    +0.005 A 
ATOM      4  C   UNL     1       0.024  -2.057  -1.277  0.00  0.00    +0.024 A 
ATOM      5  C   UNL     1       0.039  -2.759  -0.070  0.00  0.00    +0.038 A 
ATOM      6  C   UNL     1       0.036  -2.068   1.148  0.00  0.00    -0.006 A 
ATOM      7  C   UNL     1       0.023  -0.691   1.211  0.00  0.00    +0.010 A 
ATOM      8  C   UNL     1       0.057  -3.111   2.218  0.00  0.00    +0.112 C 
ATOM      9  C   UNL     1      -1.184  -3.023   3.105  0.00  0.00    +0.121 C 
ATOM     10  C   UNL     1      -1.028  -1.970   4.164  0.00  0.00    +0.191 C 
ATOM     11  N   UNL     1       0.110  -1.659   4.708  0.00  0.00    -0.197 NA
ATOM     12  C   UNL     1       1.249  -2.274   4.277  0.00  0.00    +0.164 A 
ATOM     13  C   UNL     1       1.279  -2.987   3.083  0.00  0.00    +0.036 A 
ATOM     14  C   UNL     1       2.558  -3.485   2.921  0.00  0.00    +0.142 A 
ATOM     15  N   UNL     1       3.289  -3.100   3.942  0.00  0.00    -0.173 NA
ATOM     16  N   UNL     1       2.493  -2.330   4.805  0.00  0.00    -0.214 N 
ATOM     17  C   UNL     1       0.073  -4.424   1.467  0.00  0.00    +0.233 C 
ATOM     18  O   UNL     1       0.092  -5.534   1.955  0.00  0.00    -0.274 OA
ATOM     19  N   UNL     1       0.060  -4.125   0.151  0.00  0.00    -0.284 N 
ATOM     20  H   UNL     1       0.064  -4.789  -0.556  0.00  0.00    +0.155 HD
ENDROOT
BRANCH  16  21
ATOM     21  C   UNL     1       2.912  -1.726   5.998  0.00  0.00    +0.068 A 
ATOM     22  C   UNL     1       2.383  -0.501   6.381  0.00  0.00    +0.029 A 
ATOM     23  C   UNL     1       2.798   0.091   7.558  0.00  0.00    +0.017 A 
ATOM     24  C   UNL     1       3.740  -0.535   8.354  0.00  0.00    +0.018 A 
ATOM     25  C   UNL     1       4.269  -1.756   7.975  0.00  0.00    +0.017 A 
ATOM     26  C   UNL     1       3.853  -2.356   6.802  0.00  0.00    +0.029 A 
ATOM     27 BR   UNL     1       4.306   0.279   9.965  0.00  0.00    -0.050 Br
ENDBRANCH  16  21
BRANCH  10  28
ATOM     28  O   UNL     1      -2.131  -1.309   4.574  0.00  0.00    -0.495 OA
ATOM     29  H   UNL     1      -1.961  -0.645   5.256  0.00  0.00    +0.293 HD
ENDBRANCH  10  28
TORSDOF 2
