REMARK  Name = ZINC01502851
REMARK  9 active torsions:
REMARK  status: ('A' for Active; 'I' for Inactive)
REMARK    1  A    between atoms: C_1  and  C_2
REMARK    2  A    between atoms: C_2  and  C_3
REMARK    3  A    between atoms: C_2  and  C_4
REMARK    4  A    between atoms: C_2  and  C_5
REMARK    5  A    between atoms: N_10  and  C_13
REMARK    6  A    between atoms: C_14  and  C_29
REMARK    7  A    between atoms: C_16  and  S_25
REMARK    8  A    between atoms: C_17  and  C_18
REMARK    9  A    between atoms: S_25  and  C_28
REMARK                            x       y       z     vdW  Elec       q    Type
REMARK                         _______ _______ _______ _____ _____    ______ ____
ROOT
ATOM      1  C   UNL     1       5.061  -1.667  -0.249  0.00  0.00    +0.117 A 
ATOM      2  C   UNL     1       6.272  -0.953  -0.195  0.00  0.00    +0.092 A 
ATOM      3  C   UNL     1       6.523   0.032  -1.159  0.00  0.00    +0.051 A 
ATOM      4  C   UNL     1       5.566   0.263  -2.128  0.00  0.00    +0.113 A 
ATOM      5  C   UNL     1       4.389  -0.483  -2.120  0.00  0.00    +0.073 A 
ATOM      6  N   UNL     1       4.103  -1.449  -1.193  0.00  0.00    -0.340 N 
ATOM      7  H   UNL     1       3.223  -1.976  -1.208  0.00  0.00    +0.167 HD
ENDROOT
BRANCH   1  13
ATOM      8  C   UNL     1       2.558  -5.654   2.284  0.00  0.00    +0.221 C 
ATOM      9  O   UNL     1       1.655  -5.404   3.054  0.00  0.00    -0.275 OA
ATOM     10  N   UNL     1       3.494  -4.723   2.017  0.00  0.00    -0.298 N 
ATOM     11  C   UNL     1       3.378  -3.360   2.558  0.00  0.00    +0.126 C 
ATOM     12  C   UNL     1       3.543  -2.363   1.406  0.00  0.00    +0.125 C 
ATOM     13  N   UNL     1       4.797  -2.644   0.695  0.00  0.00    -0.313 N 
ATOM     14  C   UNL     1       4.773  -3.978   0.080  0.00  0.00    +0.125 C 
ATOM     15  C   UNL     1       4.659  -5.041   1.177  0.00  0.00    +0.126 C 
BRANCH   8  17
ATOM     16  C   UNL     1       1.450  -7.864   2.082  0.00  0.00    +0.020 C 
ATOM     17  C   UNL     1       2.632  -7.007   1.624  0.00  0.00    +0.039 C 
ATOM     18  C   UNL     1       2.580  -6.837   0.104  0.00  0.00    +0.020 C 
ATOM     19  C   UNL     1       3.942  -7.694   2.015  0.00  0.00    +0.020 C 
ENDBRANCH   8  17
ENDBRANCH   1  13
BRANCH   5  20
ATOM     20  C   UNL     1       3.361  -0.236  -3.159  0.00  0.00    +0.000 A 
ATOM     21  C   UNL     1       3.057  -1.228  -4.091  0.00  0.00    +0.011 A 
ATOM     22  C   UNL     1       2.102  -0.991  -5.059  0.00  0.00    +0.020 A 
ATOM     23  C   UNL     1       1.440   0.224  -5.099  0.00  0.00    +0.041 A 
ATOM     24  C   UNL     1       1.738   1.212  -4.176  0.00  0.00    +0.020 A 
ATOM     25  C   UNL     1       2.695   0.988  -3.207  0.00  0.00    +0.011 A 
ATOM     26 CL   UNL     1       0.236   0.513  -6.316  0.00  0.00    -0.084 Cl
ENDBRANCH   5  20
BRANCH   4  27
ATOM     27  S   UNL     1       5.832   1.491  -3.364  0.00  0.00    -0.004 S 
ATOM     28  O   UNL     1       4.655   2.287  -3.343  0.00  0.00    -0.170 OA
ATOM     29  O   UNL     1       7.096   2.058  -3.046  0.00  0.00    -0.170 OA
ATOM     30  C   UNL     1       5.935   0.569  -4.923  0.00  0.00    +0.200 C 
ENDBRANCH   4  27
BRANCH   2  31
ATOM     31  C   UNL     1       7.234  -1.230   0.829  0.00  0.00    +0.103 C 
ATOM     32  N   UNL     1       7.997  -1.449   1.642  0.00  0.00    -0.191 NA
ENDBRANCH   2  31
TORSDOF 5
