REMARK  Name = ZINC01036376
REMARK  5 active torsions:
REMARK  status: ('A' for Active; 'I' for Inactive)
REMARK    1  A    between atoms: C_1  and  C_2
REMARK    2  A    between atoms: C_4  and  C_27
REMARK    3  A    between atoms: N_13  and  N_17
REMARK    4  A    between atoms: C_14  and  C_16
REMARK    5  A    between atoms: N_20  and  C_21
REMARK                            x       y       z     vdW  Elec       q    Type
REMARK                         _______ _______ _______ _____ _____    ______ ____
ROOT
ATOM      1  C   UNL     1      -0.037   1.450   0.009  0.00  0.00    +0.044 C 
ATOM      2  C   UNL     1      -0.013  -0.057   0.011  0.00  0.00    -0.037 A 
ATOM      3  C   UNL     1      -0.011  -0.758  -1.173  0.00  0.00    +0.027 A 
ATOM      4  C   UNL     1       0.011  -2.144  -1.166  0.00  0.00    +0.040 A 
ATOM      5  N   UNL     1       0.029  -2.805  -0.025  0.00  0.00    -0.245 NA
ATOM      6  C   UNL     1       0.028  -2.177   1.132  0.00  0.00    +0.112 A 
ATOM      7  C   UNL     1       0.012  -0.773   1.231  0.00  0.00    +0.037 A 
ATOM      8  C   UNL     1       0.020  -0.223   2.597  0.00  0.00    +0.095 A 
ATOM      9  C   UNL     1       0.046  -1.156   3.631  0.00  0.00    +0.106 A 
ATOM     10  S   UNL     1       0.047  -2.731   2.819  0.00  0.00    -0.062 S 
ATOM     11  C   UNL     1       0.056  -0.751   4.973  0.00  0.00    +0.286 A 
ATOM     12  O   UNL     1       0.079  -1.571   5.876  0.00  0.00    -0.265 OA
ATOM     13  N   UNL     1       0.038   0.577   5.238  0.00  0.00    -0.208 N 
ATOM     14  C   UNL     1       0.013   1.459   4.207  0.00  0.00    +0.128 A 
ATOM     15  N   UNL     1       0.003   1.091   2.964  0.00  0.00    -0.231 NA
ATOM     16  C   UNL     1      -0.007   2.933   4.521  0.00  0.00    +0.088 C 
ATOM     17  C   UNL     1       0.012  -2.899  -2.470  0.00  0.00    +0.065 C 
ENDROOT
BRANCH  13  18
ATOM     18  N   UNL     1       0.046   1.035   6.562  0.00  0.00    -0.202 N 
ATOM     19  C   UNL     1       1.183   0.988   7.285  0.00  0.00    +0.322 C 
ATOM     20  O   UNL     1       1.189   1.385   8.434  0.00  0.00    -0.251 OA
ATOM     21  N   UNL     1       2.312   0.499   6.734  0.00  0.00    -0.268 N 
ATOM     22  H   UNL     1      -0.766   1.387   6.958  0.00  0.00    +0.177 HD
ATOM     23  H   UNL     1       2.291   0.120   5.841  0.00  0.00    +0.156 HD
BRANCH  21  24
ATOM     24  C   UNL     1       3.513   0.538   7.450  0.00  0.00    +0.035 A 
ATOM     25  C   UNL     1       4.713   0.758   6.786  0.00  0.00    +0.023 A 
ATOM     26  C   UNL     1       5.897   0.796   7.495  0.00  0.00    +0.002 A 
ATOM     27  C   UNL     1       5.889   0.615   8.866  0.00  0.00    +0.000 A 
ATOM     28  C   UNL     1       4.697   0.396   9.531  0.00  0.00    +0.002 A 
ATOM     29  C   UNL     1       3.508   0.363   8.828  0.00  0.00    +0.023 A 
ENDBRANCH  21  24
ENDBRANCH  13  18
TORSDOF 2
