REMARK  Name = ZINC20613546
REMARK  4 active torsions:
REMARK  status: ('A' for Active; 'I' for Inactive)
REMARK    1  A    between atoms: C_4  and  N_25
REMARK    2  A    between atoms: C_6  and  N_7
REMARK    3  A    between atoms: C_8  and  C_10
REMARK    4  A    between atoms: N_15  and  C_17
REMARK                            x       y       z     vdW  Elec       q    Type
REMARK                         _______ _______ _______ _____ _____    ______ ____
ROOT
ATOM      1  N   UNL     1      -7.090   4.981   0.045  0.00  0.00    -0.285 N 
ATOM      2  C   UNL     1      -6.020   4.241   0.395  0.00  0.00    +0.222 C 
ATOM      3  O   UNL     1      -6.118   3.407   1.270  0.00  0.00    -0.275 OA
ATOM      4  H   UNL     1      -7.022   5.683  -0.798  0.00  0.00    +0.155 HD
ENDROOT
BRANCH   1  10
ATOM      5  C   UNL     1      -8.682   3.616   1.244  0.00  0.00    +0.025 A 
ATOM      6  C   UNL     1      -9.864   3.495   1.949  0.00  0.00    +0.024 A 
ATOM      7  C   UNL     1     -10.663   4.605   2.158  0.00  0.00    +0.071 A 
ATOM      8  C   UNL     1     -10.277   5.840   1.666  0.00  0.00    +0.146 A 
ATOM      9  C   UNL     1      -9.094   5.967   0.966  0.00  0.00    +0.057 A 
ATOM     10  C   UNL     1      -8.290   4.854   0.755  0.00  0.00    +0.036 A 
ATOM     11 CL   UNL     1     -12.151   4.449   3.038  0.00  0.00    -0.081 Cl
BRANCH   8  12
ATOM     12  N   UNL     1     -11.135   7.026   1.891  0.00  0.00    +0.058 N 
ATOM     13  O   UNL     1     -10.796   8.113   1.458  0.00  0.00    -0.126 OA
ATOM     14  O   UNL     1     -12.178   6.914   2.509  0.00  0.00    -0.126 OA
ENDBRANCH   8  12
ENDBRANCH   1  10
BRANCH   2  15
ATOM     15  C   UNL     1      -4.700   4.450  -0.302  0.00  0.00    +0.102 C 
ATOM     16  C   UNL     1      -4.106   5.835   0.042  0.00  0.00    +0.110 C 
ATOM     17  C   UNL     1      -2.617   5.588   0.144  0.00  0.00    +0.221 C 
ATOM     18  O   UNL     1      -1.766   6.452   0.127  0.00  0.00    -0.275 OA
ATOM     19  N   UNL     1      -2.374   4.270   0.254  0.00  0.00    -0.271 N 
ATOM     20  C   UNL     1      -3.621   3.497   0.260  0.00  0.00    +0.127 C 
BRANCH  19  21
ATOM     21  C   UNL     1      -1.095   3.708   0.356  0.00  0.00    +0.038 A 
ATOM     22  C   UNL     1       0.030   4.512   0.226  0.00  0.00    +0.026 A 
ATOM     23  C   UNL     1       1.290   3.955   0.321  0.00  0.00    +0.041 A 
ATOM     24  C   UNL     1       1.433   2.598   0.557  0.00  0.00    +0.142 A 
ATOM     25  C   UNL     1       0.312   1.795   0.693  0.00  0.00    +0.078 A 
ATOM     26  C   UNL     1      -0.951   2.348   0.593  0.00  0.00    +0.046 A 
ATOM     27 CL   UNL     1       0.494   0.094   0.990  0.00  0.00    -0.081 Cl
ATOM     28  F   UNL     1       2.667   2.057   0.655  0.00  0.00    -0.204 F 
ENDBRANCH  19  21
ENDBRANCH   2  15
TORSDOF 4
