REMARK  Name = ZINC09598970
REMARK  9 active torsions:
REMARK  status: ('A' for Active; 'I' for Inactive)
REMARK    1  A    between atoms: C_1  and  C_2
REMARK    2  A    between atoms: C_5  and  C_8
REMARK    3  A    between atoms: C_8  and  N_9
REMARK    4  A    between atoms: C_10  and  C_12
REMARK    5  A    between atoms: C_12  and  C_13
REMARK    6  A    between atoms: C_16  and  N_19
REMARK    7  A    between atoms: N_27  and  C_30
REMARK    8  A    between atoms: C_30  and  C_31
REMARK    9  A    between atoms: C_36  and  C_37
REMARK                            x       y       z     vdW  Elec       q    Type
REMARK                         _______ _______ _______ _____ _____    ______ ____
ROOT
ATOM      1  N   UNL     1      -1.333   1.960   0.113  0.00  0.00    -0.228 N 
ATOM      2  C   UNL     1      -1.607   2.836   1.105  0.00  0.00    +0.275 A 
ATOM      3  O   UNL     1      -0.869   2.928   2.070  0.00  0.00    -0.266 OA
ATOM      4  C   UNL     1      -2.751   3.635   1.009  0.00  0.00    +0.101 A 
ATOM      5  C   UNL     1      -3.613   3.548  -0.088  0.00  0.00    +0.066 A 
ATOM      6  C   UNL     1      -4.707   4.407  -0.041  0.00  0.00    +0.034 A 
ATOM      7  C   UNL     1      -4.868   5.239   1.014  0.00  0.00    +0.048 A 
ATOM      8  S   UNL     1      -3.500   4.883   2.020  0.00  0.00    -0.090 S 
ATOM      9  N   UNL     1      -3.259   2.614  -1.076  0.00  0.00    -0.288 N 
ATOM     10  C   UNL     1      -2.150   1.869  -0.950  0.00  0.00    +0.337 A 
ATOM     11  O   UNL     1      -1.877   1.077  -1.831  0.00  0.00    -0.246 OA
ENDROOT
BRANCH   1  15
ATOM     12  C   UNL     1       2.057  -0.455   0.331  0.00  0.00    -0.038 A 
ATOM     13  C   UNL     1       0.861  -0.894   0.869  0.00  0.00    +0.006 A 
ATOM     14  C   UNL     1      -0.264  -0.095   0.800  0.00  0.00    +0.027 A 
ATOM     15  C   UNL     1      -0.193   1.150   0.189  0.00  0.00    +0.054 A 
ATOM     16  C   UNL     1       1.010   1.587  -0.350  0.00  0.00    +0.027 A 
ATOM     17  C   UNL     1       2.131   0.784  -0.278  0.00  0.00    +0.006 A 
BRANCH  12  18
ATOM     18  C   UNL     1       3.282  -1.329   0.408  0.00  0.00    +0.130 C 
BRANCH  18  20
ATOM     19  N   UNL     1       4.364  -3.084  -0.960  0.00  0.00    -0.311 N 
ATOM     20  C   UNL     1       3.346  -2.213  -0.812  0.00  0.00    +0.218 C 
ATOM     21  O   UNL     1       2.482  -2.140  -1.660  0.00  0.00    -0.275 OA
ATOM     22  H   UNL     1       5.055  -3.143  -0.281  0.00  0.00    +0.149 HD
BRANCH  19  23
ATOM     23  C   UNL     1       4.427  -3.943  -2.145  0.00  0.00    +0.139 C 
BRANCH  23  28
ATOM     24  C   UNL     1       9.124  -7.295  -1.850  0.00  0.00    +0.044 C 
ATOM     25  C   UNL     1       7.899  -6.421  -1.927  0.00  0.00    -0.050 A 
ATOM     26  C   UNL     1       6.704  -6.857  -1.388  0.00  0.00    +0.003 A 
ATOM     27  C   UNL     1       5.580  -6.056  -1.459  0.00  0.00    +0.005 A 
ATOM     28  C   UNL     1       5.652  -4.817  -2.068  0.00  0.00    -0.030 A 
ATOM     29  C   UNL     1       6.846  -4.382  -2.611  0.00  0.00    +0.005 A 
ATOM     30  C   UNL     1       7.971  -5.182  -2.536  0.00  0.00    +0.003 A 
ENDBRANCH  23  28
ENDBRANCH  19  23
ENDBRANCH  18  20
ENDBRANCH  12  18
ENDBRANCH   1  15
BRANCH   9  31
ATOM     31  C   UNL     1      -4.106   2.457  -2.260  0.00  0.00    +0.163 C 
BRANCH  31  32
ATOM     32  C   UNL     1      -3.690   3.453  -3.312  0.00  0.00    -0.010 A 
ATOM     33  C   UNL     1      -2.580   4.247  -3.111  0.00  0.00    +0.006 A 
ATOM     34  C   UNL     1      -2.197   5.162  -4.075  0.00  0.00    +0.000 A 
ATOM     35  C   UNL     1      -2.922   5.287  -5.247  0.00  0.00    +0.001 A 
ATOM     36  C   UNL     1      -4.034   4.499  -5.461  0.00  0.00    +0.019 A 
ATOM     37  C   UNL     1      -4.423   3.569  -4.494  0.00  0.00    +0.057 A 
BRANCH  37  38
ATOM     38  C   UNL     1      -5.573   2.744  -4.712  0.00  0.00    +0.099 C 
ATOM     39  N   UNL     1      -6.485   2.089  -4.885  0.00  0.00    -0.191 NA
ENDBRANCH  37  38
ENDBRANCH  31  32
ENDBRANCH   9  31
TORSDOF 8
