REMARK  Name = ZINC26816450
REMARK  6 active torsions:
REMARK  status: ('A' for Active; 'I' for Inactive)
REMARK    1  A    between atoms: C_1  and  N_2
REMARK    2  A    between atoms: N_2  and  C_3
REMARK    3  A    between atoms: N_2  and  C_24
REMARK    4  A    between atoms: C_3  and  C_4
REMARK    5  A    between atoms: N_6  and  C_7
REMARK    6  A    between atoms: C_9  and  C_14
REMARK                            x       y       z     vdW  Elec       q    Type
REMARK                         _______ _______ _______ _____ _____    ______ ____
ROOT
ATOM      1  C   UNL     1       0.304   5.605   1.497  0.00  0.00    +0.201 C 
ATOM      2  O   UNL     1       0.912   5.684   2.543  0.00  0.00    -0.278 OA
ATOM      3  N   UNL     1      -0.757   6.405   1.272  0.00  0.00    -0.285 N 
ATOM      4  H   UNL     1      -1.259   6.391   0.293  0.00  0.00    +0.155 HD
ENDROOT
BRANCH   3   5
ATOM      5  C   UNL     1      -1.221   7.254   2.285  0.00  0.00    +0.070 A 
ATOM      6  C   UNL     1      -0.969   6.950   3.613  0.00  0.00    +0.037 A 
ATOM      7  C   UNL     1      -1.433   7.799   4.618  0.00  0.00    +0.021 A 
ATOM      8  C   UNL     1      -2.148   8.949   4.281  0.00  0.00    +0.014 A 
ATOM      9  C   UNL     1      -2.394   9.245   2.956  0.00  0.00    +0.041 A 
ATOM     10  C   UNL     1      -1.931   8.406   1.957  0.00  0.00    +0.145 A 
ATOM     11  F   UNL     1      -2.171   8.703   0.661  0.00  0.00    -0.204 F 
BRANCH   7  12
ATOM     12  C   UNL     1      -1.167   7.481   6.038  0.00  0.00    +0.164 A 
ATOM     13  N   UNL     1      -0.849   6.303   6.532  0.00  0.00    -0.129 NA
ATOM     14  N   UNL     1      -0.682   6.396   7.805  0.00  0.00    -0.134 NA
ATOM     15  C   UNL     1      -0.885   7.625   8.191  0.00  0.00    +0.134 A 
ATOM     16  N   UNL     1      -1.210   8.351   7.088  0.00  0.00    -0.311 N 
ATOM     17  C   UNL     1      -1.547   9.774   7.050  0.00  0.00    +0.125 C 
ATOM     18  C   UNL     1      -0.845  10.492   8.206  0.00  0.00    +0.022 C 
ATOM     19  C   UNL     1      -1.739  10.470   9.445  0.00  0.00    +0.002 C 
ATOM     20  C   UNL     1      -2.006   9.035   9.888  0.00  0.00    +0.008 C 
ATOM     21  C   UNL     1      -0.778   8.168   9.593  0.00  0.00    +0.076 C 
ENDBRANCH   7  12
ENDBRANCH   3   5
BRANCH   1  22
ATOM     22  C   UNL     1       0.735   4.613   0.448  0.00  0.00    +0.019 C 
BRANCH  22  24
ATOM     23  C   UNL     1       3.061   4.759   1.106  0.00  0.00    -0.095 C 
ATOM     24  N   UNL     1       1.906   3.869   0.930  0.00  0.00    +0.388 N 
ATOM     25  H   UNL     1       1.655   3.443   1.912  0.00  0.00    -0.081 HD
BRANCH  24  26
ATOM     26  C   UNL     1       2.232   2.757   0.026  0.00  0.00    -0.037 C 
ATOM     27  C   UNL     1       2.729   3.319  -1.304  0.00  0.00    -0.010 C 
ATOM     28  C   UNL     1       3.268   2.158  -2.149  0.00  0.00    +0.003 C 
ATOM     29  C   UNL     1       4.561   1.656  -1.509  0.00  0.00    +0.035 C 
ATOM     30  C   UNL     1       4.354   1.382  -0.043  0.00  0.00    -0.046 A 
ATOM     31  C   UNL     1       3.287   1.892   0.664  0.00  0.00    -0.058 A 
ATOM     32  C   UNL     1       3.157   1.604   2.016  0.00  0.00    +0.002 A 
ATOM     33  C   UNL     1       4.088   0.813   2.657  0.00  0.00    +0.000 A 
ATOM     34  C   UNL     1       5.157   0.298   1.948  0.00  0.00    +0.000 A 
ATOM     35  C   UNL     1       5.288   0.583   0.604  0.00  0.00    +0.004 A 
ENDBRANCH  24  26
ENDBRANCH  22  24
ENDBRANCH   1  22
TORSDOF 5
