REMARK  Name = ZINC16570552
REMARK  6 active torsions:
REMARK  status: ('A' for Active; 'I' for Inactive)
REMARK    1  A    between atoms: C_1  and  N_55
REMARK    2  A    between atoms: C_11  and  S_13
REMARK    3  A    between atoms: S_13  and  C_14
REMARK    4  A    between atoms: C_14  and  C_15
REMARK    5  A    between atoms: C_18  and  C_21
REMARK    6  A    between atoms: N_23  and  C_24
REMARK                            x       y       z     vdW  Elec       q    Type
REMARK                         _______ _______ _______ _____ _____    ______ ____
ROOT
ATOM      1  C   UNL     1       2.462  -8.471  -0.605  0.00  0.00    +0.112 C 
ENDROOT
BRANCH   1   2
ATOM      2  C   UNL     1       2.448  -6.969  -0.482  0.00  0.00    -0.037 A 
ATOM      3  C   UNL     1       3.640  -6.266  -0.490  0.00  0.00    +0.005 A 
ATOM      4  C   UNL     1       3.634  -4.891  -0.378  0.00  0.00    +0.013 A 
ATOM      5  C   UNL     1       2.422  -4.209  -0.258  0.00  0.00    +0.037 A 
ATOM      6  C   UNL     1       1.223  -4.925  -0.245  0.00  0.00    +0.013 A 
ATOM      7  C   UNL     1       1.243  -6.299  -0.363  0.00  0.00    +0.005 A 
BRANCH   5   8
ATOM      8  C   UNL     1       2.408  -2.736  -0.138  0.00  0.00    +0.248 C 
ATOM      9  O   UNL     1       3.453  -2.115  -0.144  0.00  0.00    -0.270 OA
ATOM     10  N   UNL     1       1.236  -2.080  -0.021  0.00  0.00    -0.282 N 
ATOM     11  H   UNL     1       0.408  -2.578   0.061  0.00  0.00    +0.155 HD
BRANCH  10  12
ATOM     12  C   UNL     1       1.214  -0.681  -0.019  0.00  0.00    +0.034 A 
ATOM     13  C   UNL     1       0.269  -0.002   0.738  0.00  0.00    +0.026 A 
ATOM     14  C   UNL     1       0.249   1.379   0.739  0.00  0.00    +0.040 A 
ATOM     15  C   UNL     1       1.170   2.087  -0.016  0.00  0.00    +0.124 A 
ATOM     16  C   UNL     1       2.113   1.411  -0.771  0.00  0.00    +0.040 A 
ATOM     17  C   UNL     1       2.137   0.030  -0.775  0.00  0.00    +0.026 A 
ATOM     18  F   UNL     1       1.148   3.437  -0.014  0.00  0.00    -0.205 F 
ENDBRANCH  10  12
ENDBRANCH   5   8
ENDBRANCH   1   2
BRANCH   1  19
ATOM     19  S   UNL     1       2.560  -9.210   1.045  0.00  0.00    -0.081 S 
BRANCH  19  30
ATOM     20  C   UNL     1       1.847 -16.439   5.691  0.00  0.00    -0.096 C 
ATOM     21  C   UNL     1       2.909 -14.502   4.697  0.00  0.00    -0.060 C 
ATOM     22  C   UNL     1       2.756 -13.428   3.617  0.00  0.00    +0.088 C 
ATOM     23  N   UNL     1       2.694 -14.070   2.297  0.00  0.00    -0.319 N 
ATOM     24  C   UNL     1       1.560 -15.003   2.220  0.00  0.00    +0.088 C 
ATOM     25  C   UNL     1       1.714 -16.077   3.300  0.00  0.00    -0.060 C 
ATOM     26  C   UNL     1       2.627 -13.124   1.287  0.00  0.00    +0.127 A 
ATOM     27  C   UNL     1       2.561 -13.518  -0.050  0.00  0.00    +0.083 A 
ATOM     28  C   UNL     1       2.496 -12.539  -1.025  0.00  0.00    +0.135 A 
ATOM     29  N   UNL     1       2.493 -11.264  -0.663  0.00  0.00    -0.210 NA
ATOM     30  C   UNL     1       2.561 -10.918   0.615  0.00  0.00    +0.192 A 
ATOM     31  N   UNL     1       2.625 -11.827   1.578  0.00  0.00    -0.207 NA
ATOM     32 CL   UNL     1       2.412 -12.975  -2.703  0.00  0.00    -0.062 Cl
ATOM     33  N   UNL     1       1.752 -15.420   4.623  0.00  0.00    +0.380 N 
ATOM     34  H   UNL     1       0.889 -14.880   4.753  0.00  0.00    -0.082 HD
ENDBRANCH  19  30
ENDBRANCH   1  19
TORSDOF 5
