REMARK  Name = ZINC63537911
REMARK  5 active torsions:
REMARK  status: ('A' for Active; 'I' for Inactive)
REMARK    1  A    between atoms: C_6  and  C_7
REMARK    2  A    between atoms: C_10  and  C_35
REMARK    3  A    between atoms: C_17  and  C_20
REMARK    4  A    between atoms: N_22  and  C_23
REMARK    5  A    between atoms: C_23  and  C_24
REMARK                            x       y       z     vdW  Elec       q    Type
REMARK                         _______ _______ _______ _____ _____    ______ ____
ROOT
ATOM      1  C   UNL     1      -1.293  -0.775   0.011  0.00  0.00    +0.087 C 
ATOM      2  C   UNL     1      -1.683  -1.118  -1.427  0.00  0.00    +0.052 C 
ATOM      3  C   UNL     1      -0.697  -2.134  -2.027  0.00  0.00    +0.180 C 
ATOM      4  N   UNL     1      -0.655  -3.281  -1.129  0.00  0.00    -0.213 NA
ATOM      5  C   UNL     1      -0.113  -2.845   0.187  0.00  0.00    +0.142 C 
ATOM      6  N   UNL     1      -1.123  -2.000   0.815  0.00  0.00    -0.293 NA
ATOM      7  C   UNL     1       0.134  -4.179   0.903  0.00  0.00    +0.065 C 
ATOM      8  C   UNL     1       0.372  -5.178  -0.257  0.00  0.00    +0.158 C 
ATOM      9  N   UNL     1       0.208  -4.386  -1.509  0.00  0.00    -0.240 NA
ATOM     10  H   UNL     1      -0.866  -1.777   1.765  0.00  0.00    +0.124 HD
ATOM     11  H   UNL     1      -0.215  -4.943  -2.236  0.00  0.00    +0.142 HD
ENDROOT
BRANCH   1  17
ATOM     12  C   UNL     1       0.359   0.734  -1.111  0.00  0.00    +0.006 A 
ATOM     13  C   UNL     1       1.547   1.441  -1.119  0.00  0.00    +0.020 A 
ATOM     14  C   UNL     1       2.378   1.411  -0.014  0.00  0.00    +0.041 A 
ATOM     15  C   UNL     1       2.019   0.672   1.100  0.00  0.00    +0.020 A 
ATOM     16  C   UNL     1       0.832  -0.035   1.107  0.00  0.00    +0.006 A 
ATOM     17  C   UNL     1       0.002  -0.004   0.002  0.00  0.00    -0.030 A 
ATOM     18 CL   UNL     1       3.869   2.299  -0.024  0.00  0.00    -0.084 Cl
ENDBRANCH   1  17
BRANCH   8  19
ATOM     19  C   UNL     1       1.765  -5.747  -0.177  0.00  0.00    +0.232 C 
ATOM     20  O   UNL     1       2.643  -5.303  -0.887  0.00  0.00    -0.274 OA
ATOM     21  N   UNL     1       2.036  -6.748   0.683  0.00  0.00    -0.312 N 
ATOM     22  H   UNL     1       1.334  -7.103   1.251  0.00  0.00    +0.149 HD
BRANCH  21  23
ATOM     23  C   UNL     1       3.391  -7.301   0.761  0.00  0.00    +0.133 C 
BRANCH  23  24
ATOM     24  C   UNL     1       3.427  -8.416   1.808  0.00  0.00    +0.120 C 
ATOM     25  C   UNL     1       4.766  -9.119   1.774  0.00  0.00    +0.009 C 
ATOM     26  C   UNL     1       4.503 -10.410   1.464  0.00  0.00    -0.003 A 
ATOM     27  C   UNL     1       5.366 -11.583   1.283  0.00  0.00    +0.029 A 
ATOM     28  C   UNL     1       4.799 -12.771   0.968  0.00  0.00    +0.042 A 
ATOM     29  C   UNL     1       3.412 -12.908   0.811  0.00  0.00    +0.022 A 
ATOM     30  C   UNL     1       2.556 -11.876   0.962  0.00  0.00    +0.027 A 
ATOM     31  C   UNL     1       3.043 -10.581   1.293  0.00  0.00    +0.043 A 
ATOM     32  N   UNL     1       2.425  -9.440   1.491  0.00  0.00    -0.376 N 
ATOM     33 CL   UNL     1       5.816 -14.162   0.752  0.00  0.00    -0.084 Cl
ATOM     34  H   UNL     1       1.467  -9.296   1.436  0.00  0.00    +0.160 HD
ENDBRANCH  23  24
ENDBRANCH  21  23
ENDBRANCH   8  19
BRANCH   3  35
ATOM     35  C   UNL     1      -1.179  -2.572  -3.411  0.00  0.00    +0.406 C 
ATOM     36  F   UNL     1      -1.261  -1.456  -4.251  0.00  0.00    -0.169 F 
ATOM     37  F   UNL     1      -0.277  -3.495  -3.949  0.00  0.00    -0.169 F 
ATOM     38  F   UNL     1      -2.442  -3.164  -3.299  0.00  0.00    -0.169 F 
ENDBRANCH   3  35
TORSDOF 5
