REMARK  Name = ZINC39610148
REMARK  5 active torsions:
REMARK  status: ('A' for Active; 'I' for Inactive)
REMARK    1  A    between atoms: C_6  and  C_7
REMARK    2  A    between atoms: C_7  and  N_8
REMARK    3  A    between atoms: C_9  and  C_11
REMARK    4  A    between atoms: C_22  and  C_24
REMARK    5  A    between atoms: C_26  and  C_31
REMARK                            x       y       z     vdW  Elec       q    Type
REMARK                         _______ _______ _______ _____ _____    ______ ____
ROOT
ATOM      1  C   UNL     1      -3.619  -1.451  -2.652  0.00  0.00    +0.100 C 
ATOM      2  C   UNL     1      -3.871  -0.270  -3.616  0.00  0.00    +0.121 C 
ATOM      3  N   UNL     1      -5.003  -0.713  -4.463  0.00  0.00    -0.296 N 
ATOM      4  C   UNL     1      -5.905  -1.428  -3.529  0.00  0.00    +0.115 C 
ATOM      5  C   UNL     1      -4.956  -2.208  -2.597  0.00  0.00    -0.004 C 
ATOM      6  C   UNL     1      -4.776  -3.636  -3.103  0.00  0.00    -0.010 C 
ATOM      7  C   UNL     1      -6.107  -4.385  -2.985  0.00  0.00    -0.082 C 
ATOM      8  N   UNL     1      -6.544  -4.393  -1.584  0.00  0.00    +0.379 N 
ATOM      9  C   UNL     1      -6.804  -3.020  -1.133  0.00  0.00    -0.082 C 
ATOM     10  C   UNL     1      -5.503  -2.213  -1.173  0.00  0.00    -0.010 C 
ATOM     11  C   UNL     1      -5.174  -0.512  -5.785  0.00  0.00    +0.247 C 
ATOM     12  O   UNL     1      -4.282  -0.016  -6.444  0.00  0.00    -0.270 OA
ATOM     13  H   UNL     1      -7.388  -4.939  -1.499  0.00  0.00    -0.086 HD
ATOM     14  H   UNL     1      -5.823  -4.803  -1.010  0.00  0.00    -0.086 HD
ENDROOT
BRANCH  11  15
ATOM     15  C   UNL     1      -6.447  -0.894  -6.432  0.00  0.00    +0.040 A 
ATOM     16  C   UNL     1      -6.496  -1.107  -7.811  0.00  0.00    +0.025 A 
ATOM     17  C   UNL     1      -7.686  -1.464  -8.410  0.00  0.00    +0.058 A 
ATOM     18  C   UNL     1      -8.831  -1.611  -7.648  0.00  0.00    +0.050 A 
ATOM     19  C   UNL     1      -8.791  -1.401  -6.279  0.00  0.00    +0.125 A 
ATOM     20  C   UNL     1      -7.603  -1.049  -5.667  0.00  0.00    +0.051 A 
ATOM     21  F   UNL     1      -9.913  -1.546  -5.541  0.00  0.00    -0.205 F 
BRANCH  17  22
ATOM     22  C   UNL     1      -7.739  -1.693  -9.898  0.00  0.00    +0.418 C 
ATOM     23  F   UNL     1      -7.467  -3.038 -10.173  0.00  0.00    -0.166 F 
ATOM     24  F   UNL     1      -9.014  -1.369 -10.375  0.00  0.00    -0.166 F 
ATOM     25  F   UNL     1      -6.786  -0.886 -10.529  0.00  0.00    -0.166 F 
ENDBRANCH  17  22
ENDBRANCH  11  15
BRANCH   1  27
ATOM     26  N   UNL     1      -2.435  -1.668  -0.491  0.00  0.00    -0.311 N 
ATOM     27  C   UNL     1      -3.248  -0.941  -1.283  0.00  0.00    +0.218 C 
ATOM     28  O   UNL     1      -3.680   0.123  -0.895  0.00  0.00    -0.275 OA
ATOM     29  H   UNL     1      -2.089  -2.519  -0.801  0.00  0.00    +0.149 HD
BRANCH  26  30
ATOM     30  C   UNL     1      -2.075  -1.172   0.840  0.00  0.00    +0.139 C 
BRANCH  30  36
ATOM     31  C   UNL     1       0.206  -2.062   1.359  0.00  0.00    +0.009 A 
ATOM     32  C   UNL     1       1.045  -2.970   1.977  0.00  0.00    +0.050 A 
ATOM     33  C   UNL     1       0.515  -3.986   2.755  0.00  0.00    +0.166 A 
ATOM     34  C   UNL     1      -0.865  -4.090   2.913  0.00  0.00    +0.167 A 
ATOM     35  C   UNL     1      -1.700  -3.177   2.291  0.00  0.00    +0.054 A 
ATOM     36  C   UNL     1      -1.164  -2.165   1.516  0.00  0.00    -0.027 A 
ATOM     37  O   UNL     1      -1.133  -5.161   3.715  0.00  0.00    -0.453 OA
ATOM     38  C   UNL     1       0.070  -5.953   3.714  0.00  0.00    +0.466 C 
ATOM     39  O   UNL     1       1.111  -4.992   3.459  0.00  0.00    -0.453 OA
ENDBRANCH  30  36
ENDBRANCH  26  30
ENDBRANCH   1  27
TORSDOF 5
