REMARK  Name = ZINC40056049
REMARK  5 active torsions:
REMARK  status: ('A' for Active; 'I' for Inactive)
REMARK    1  A    between atoms: C_1  and  C_2
REMARK    2  A    between atoms: C_2  and  C_3
REMARK    3  A    between atoms: C_6  and  C_9
REMARK    4  A    between atoms: C_17  and  C_31
REMARK    5  A    between atoms: C_28  and  C_30
REMARK                            x       y       z     vdW  Elec       q    Type
REMARK                         _______ _______ _______ _____ _____    ______ ____
ROOT
ATOM      1  C   UNL     1       2.707  -1.868  -4.752  0.00  0.00    +0.151 C 
ATOM      2  C   UNL     1       3.395  -0.731  -5.434  0.00  0.00    +0.072 A 
ATOM      3  C   UNL     1       2.869   0.504  -6.021  0.00  0.00    +0.199 A 
ATOM      4  O   UNL     1       1.717   0.874  -5.878  0.00  0.00    -0.287 OA
ATOM      5  C   UNL     1       3.873   1.263  -6.809  0.00  0.00    +0.066 A 
ATOM      6  C   UNL     1       3.482   2.349  -7.592  0.00  0.00    +0.035 A 
ATOM      7  C   UNL     1       4.427   3.038  -8.321  0.00  0.00    +0.045 A 
ATOM      8  C   UNL     1       5.761   2.651  -8.274  0.00  0.00    -0.029 A 
ATOM      9  C   UNL     1       6.157   1.582  -7.503  0.00  0.00    +0.051 A 
ATOM     10  C   UNL     1       5.220   0.869  -6.755  0.00  0.00    +0.140 A 
ATOM     11  O   UNL     1       5.639  -0.171  -5.999  0.00  0.00    -0.450 OA
ATOM     12  C   UNL     1       4.733  -1.008  -5.455  0.00  0.00    +0.199 A 
ATOM     13  C   UNL     1       4.946  -2.312  -4.806  0.00  0.00    +0.289 C 
ATOM     14  O   UNL     1       6.026  -2.850  -4.664  0.00  0.00    -0.266 OA
ATOM     15  N   UNL     1       3.768  -2.823  -4.391  0.00  0.00    -0.230 N 
ATOM     16  C   UNL     1       3.586  -4.035  -3.738  0.00  0.00    +0.191 A 
ATOM     17  N   UNL     1       2.474  -4.612  -3.303  0.00  0.00    -0.125 NA
ATOM     18  N   UNL     1       2.489  -5.732  -2.723  0.00  0.00    -0.145 NA
ATOM     19  C   UNL     1       3.607  -6.399  -2.512  0.00  0.00    +0.101 A 
ATOM     20  S   UNL     1       4.786  -5.271  -3.249  0.00  0.00    -0.035 S 
ATOM     21  C   UNL     1       3.829  -7.732  -1.845  0.00  0.00    +0.075 C 
ATOM     22  C   UNL     1       6.785   3.411  -9.077  0.00  0.00    +0.045 C 
ATOM     23 CL   UNL     1       3.951   4.392  -9.297  0.00  0.00    -0.083 Cl
ENDROOT
BRANCH   1  27
ATOM     24  C   UNL     1       0.707  -0.490  -1.238  0.00  0.00    -0.048 A 
ATOM     25  C   UNL     1      -0.011  -0.719  -2.397  0.00  0.00    +0.004 A 
ATOM     26  C   UNL     1       0.636  -1.164  -3.534  0.00  0.00    +0.006 A 
ATOM     27  C   UNL     1       2.002  -1.381  -3.513  0.00  0.00    -0.022 A 
ATOM     28  C   UNL     1       2.720  -1.152  -2.354  0.00  0.00    +0.006 A 
ATOM     29  C   UNL     1       2.073  -0.702  -1.218  0.00  0.00    +0.004 A 
BRANCH  24  31
ATOM     30  C   UNL     1      -0.019   1.526   0.010  0.00  0.00    +0.009 C 
ATOM     31  C   UNL     1       0.002  -0.004   0.002  0.00  0.00    +0.032 C 
ENDBRANCH  24  31
ENDBRANCH   1  27
TORSDOF 2
