REMARK  Name = ZINC49403702
REMARK  2 active torsions:
REMARK  status: ('A' for Active; 'I' for Inactive)
REMARK    1  A    between atoms: C_6  and  N_7
REMARK    2  A    between atoms: C_13  and  C_15
REMARK                            x       y       z     vdW  Elec       q    Type
REMARK                         _______ _______ _______ _____ _____    ______ ____
ROOT
ATOM      1  N   UNL     1      -1.375  -0.712  -2.730  0.00  0.00    -0.327 N 
ATOM      2  C   UNL     1      -1.386  -2.176  -2.848  0.00  0.00    +0.124 C 
ATOM      3  C   UNL     1      -2.008  -2.766  -1.576  0.00  0.00    +0.127 C 
ATOM      4  N   UNL     1      -3.272  -2.068  -1.305  0.00  0.00    -0.295 N 
ATOM      5  C   UNL     1      -3.262  -0.604  -1.187  0.00  0.00    +0.127 C 
ATOM      6  C   UNL     1      -2.639  -0.014  -2.453  0.00  0.00    +0.124 C 
ATOM      7  C   UNL     1      -4.421  -2.760  -1.168  0.00  0.00    +0.247 C 
ATOM      8  O   UNL     1      -5.475  -2.167  -1.042  0.00  0.00    -0.270 OA
ENDROOT
BRANCH   7   9
ATOM      9  C   UNL     1      -4.400  -4.240  -1.170  0.00  0.00    +0.039 A 
ATOM     10  C   UNL     1      -5.387  -4.949  -1.866  0.00  0.00    +0.014 A 
ATOM     11  C   UNL     1      -5.376  -6.314  -1.891  0.00  0.00    +0.016 A 
ATOM     12  C   UNL     1      -4.374  -7.013  -1.219  0.00  0.00    +0.065 A 
ATOM     13  C   UNL     1      -3.385  -6.313  -0.490  0.00  0.00    +0.080 A 
ATOM     14  C   UNL     1      -3.397  -4.916  -0.487  0.00  0.00    +0.041 A 
ATOM     15  N   UNL     1      -2.469  -7.022   0.201  0.00  0.00    -0.223 NA
ATOM     16  C   UNL     1      -2.406  -8.339   0.160  0.00  0.00    +0.172 A 
ATOM     17  N   UNL     1      -3.234  -9.079  -0.632  0.00  0.00    -0.287 N 
ATOM     18  C   UNL     1      -4.300  -8.478  -1.235  0.00  0.00    +0.262 A 
ATOM     19  O   UNL     1      -5.168  -9.140  -1.773  0.00  0.00    -0.267 OA
ATOM     20  C   UNL     1      -3.029 -10.485  -0.960  0.00  0.00    +0.128 C 
ATOM     21  C   UNL     1      -2.414 -11.298   0.165  0.00  0.00    +0.033 C 
ATOM     22  C   UNL     1      -1.004 -10.758   0.452  0.00  0.00    +0.079 C 
ATOM     23  S   UNL     1      -1.208  -9.116   1.205  0.00  0.00    -0.088 S 
ENDBRANCH   7   9
BRANCH   1  29
ATOM     24  C   UNL     1      -0.203   1.394  -2.871  0.00  0.00    +0.024 A 
ATOM     25  C   UNL     1       0.976   2.099  -3.012  0.00  0.00    +0.022 A 
ATOM     26  C   UNL     1       2.176   1.424  -3.154  0.00  0.00    +0.041 A 
ATOM     27  C   UNL     1       2.197   0.040  -3.155  0.00  0.00    +0.022 A 
ATOM     28  C   UNL     1       1.022  -0.670  -3.015  0.00  0.00    +0.024 A 
ATOM     29  C   UNL     1      -0.184   0.005  -2.872  0.00  0.00    +0.030 A 
ATOM     30 CL   UNL     1       3.655   2.314  -3.331  0.00  0.00    -0.084 Cl
ENDBRANCH   1  29
TORSDOF 2
