REMARK  Name = ZINC39898645
REMARK  9 active torsions:
REMARK  status: ('A' for Active; 'I' for Inactive)
REMARK    1  A    between atoms: C_1  and  C_2
REMARK    2  A    between atoms: C_2  and  O_3
REMARK    3  A    between atoms: O_3  and  C_4
REMARK    4  A    between atoms: C_6  and  C_11
REMARK    5  A    between atoms: C_9  and  O_10
REMARK    6  A    between atoms: C_14  and  C_25
REMARK    7  A    between atoms: N_21  and  C_22
REMARK    8  A    between atoms: C_22  and  C_23
REMARK    9  A    between atoms: C_30  and  O_31
REMARK                            x       y       z     vdW  Elec       q    Type
REMARK                         _______ _______ _______ _____ _____    ______ ____
ROOT
ATOM      1  C   UNL     1       0.031  -4.975   0.026  0.00  0.00    +0.142 C 
ATOM      2  C   UNL     1       0.833  -5.322   1.249  0.00  0.00    +0.035 A 
ATOM      3  C   UNL     1       1.517  -4.864   2.381  0.00  0.00    +0.102 A 
ATOM      4  N   UNL     1       1.995  -5.920   3.008  0.00  0.00    -0.173 NA
ATOM      5  N   UNL     1       1.681  -7.000   2.385  0.00  0.00    -0.272 N 
ATOM      6  H   UNL     1       1.927  -7.896   2.665  0.00  0.00    +0.189 HD
ATOM      7  C   UNL     1       0.951  -6.699   1.271  0.00  0.00    +0.126 A 
ATOM      8  C   UNL     1       0.251  -7.245   0.102  0.00  0.00    +0.266 C 
ATOM      9  O   UNL     1       0.169  -8.428  -0.167  0.00  0.00    -0.268 OA
ATOM     10  N   UNL     1      -0.289  -6.251  -0.628  0.00  0.00    -0.281 N 
ENDROOT
BRANCH   3  11
ATOM     11  C   UNL     1       1.675  -3.448   2.798  0.00  0.00    +0.045 A 
ATOM     12  C   UNL     1       1.005  -2.438   2.112  0.00  0.00    +0.033 A 
ATOM     13  C   UNL     1       1.156  -1.122   2.504  0.00  0.00    +0.042 A 
ATOM     14  C   UNL     1       1.972  -0.804   3.577  0.00  0.00    +0.023 A 
ATOM     15  C   UNL     1       2.641  -1.799   4.263  0.00  0.00    +0.047 A 
ATOM     16  C   UNL     1       2.494  -3.124   3.883  0.00  0.00    +0.126 A 
ATOM     17 CL   UNL     1       0.320   0.137   1.649  0.00  0.00    -0.084 Cl
BRANCH  16  18
ATOM     18  O   UNL     1       3.147  -4.104   4.561  0.00  0.00    -0.506 OA
ATOM     19  H   UNL     1       4.026  -4.304   4.212  0.00  0.00    +0.292 HD
ENDBRANCH  16  18
ENDBRANCH   3  11
BRANCH   1  22
ATOM     20  C   UNL     1       2.701  -3.835  -2.392  0.00  0.00    +0.162 A 
ATOM     21  C   UNL     1       1.951  -4.631  -1.541  0.00  0.00    +0.055 A 
ATOM     22  C   UNL     1       0.844  -4.107  -0.900  0.00  0.00    -0.019 A 
ATOM     23  C   UNL     1       0.482  -2.789  -1.106  0.00  0.00    +0.009 A 
ATOM     24  C   UNL     1       1.224  -1.989  -1.954  0.00  0.00    +0.049 A 
ATOM     25  C   UNL     1       2.339  -2.507  -2.595  0.00  0.00    +0.158 A 
BRANCH  25  26
ATOM     26  O   UNL     1       3.074  -1.719  -3.425  0.00  0.00    -0.503 OA
ATOM     27  H   UNL     1       2.779  -1.734  -4.345  0.00  0.00    +0.292 HD
ENDBRANCH  25  26
BRANCH  20  28
ATOM     28  O   UNL     1       3.790  -4.349  -3.023  0.00  0.00    -0.489 OA
BRANCH  28  30
ATOM     29  C   UNL     1       5.285  -6.141  -3.648  0.00  0.00    +0.048 C 
ATOM     30  C   UNL     1       4.040  -5.745  -2.853  0.00  0.00    +0.226 C 
ENDBRANCH  28  30
ENDBRANCH  20  28
ENDBRANCH   1  22
BRANCH  10  31
ATOM     31  C   UNL     1      -1.061  -6.413  -1.862  0.00  0.00    +0.135 C 
BRANCH  31  32
ATOM     32  C   UNL     1      -0.130  -6.378  -3.046  0.00  0.00    -0.016 C 
ATOM     33  C   UNL     1      -0.126  -7.366  -3.906  0.00  0.00    +0.005 C 
ENDBRANCH  31  32
ENDBRANCH  10  31
TORSDOF 8
