REMARK  Name = ZINC13123490
REMARK  3 active torsions:
REMARK  status: ('A' for Active; 'I' for Inactive)
REMARK    1  A    between atoms: C_1  and  C_2
REMARK    2  A    between atoms: C_5  and  C_8
REMARK    3  A    between atoms: C_11  and  C_19
REMARK                            x       y       z     vdW  Elec       q    Type
REMARK                         _______ _______ _______ _____ _____    ______ ____
ROOT
ATOM      1  C   UNL     1       0.059  -4.275  -0.021  0.00  0.00    +0.144 C 
ATOM      2  C   UNL     1       1.318  -4.777   0.698  0.00  0.00    +0.059 C 
ATOM      3  C   UNL     1       1.210  -6.287   0.940  0.00  0.00    +0.106 C 
ATOM      4  N   UNL     1       0.056  -6.542   1.824  0.00  0.00    -0.305 N 
ATOM      5  C   UNL     1      -1.104  -5.837   1.536  0.00  0.00    +0.236 A 
ATOM      6  N   UNL     1      -1.118  -4.784   0.676  0.00  0.00    -0.206 N 
ATOM      7  N   UNL     1      -2.442  -4.347   0.639  0.00  0.00    -0.042 NA
ATOM      8  N   UNL     1      -3.108  -5.120   1.434  0.00  0.00    -0.021 NA
ATOM      9  N   UNL     1      -2.322  -5.999   1.969  0.00  0.00    -0.092 NA
ATOM     10  H   UNL     1       0.105  -7.168   2.564  0.00  0.00    +0.150 HD
ENDROOT
BRANCH   1  15
ATOM     11  C   UNL     1      -0.018   1.503   0.010  0.00  0.00    +0.044 C 
ATOM     12  C   UNL     1       0.002  -0.004   0.002  0.00  0.00    -0.050 A 
ATOM     13  C   UNL     1       0.006  -0.689  -1.199  0.00  0.00    +0.004 A 
ATOM     14  C   UNL     1       0.025  -2.071  -1.206  0.00  0.00    +0.006 A 
ATOM     15  C   UNL     1       0.040  -2.768  -0.013  0.00  0.00    -0.023 A 
ATOM     16  C   UNL     1       0.037  -2.084   1.188  0.00  0.00    +0.006 A 
ATOM     17  C   UNL     1       0.023  -0.702   1.195  0.00  0.00    +0.004 A 
ENDBRANCH   1  15
BRANCH   3  18
ATOM     18  C   UNL     1       2.472  -6.786   1.595  0.00  0.00    -0.026 A 
ATOM     19  C   UNL     1       2.656  -6.623   2.955  0.00  0.00    +0.005 A 
ATOM     20  C   UNL     1       3.814  -7.080   3.556  0.00  0.00    +0.001 A 
ATOM     21  C   UNL     1       4.788  -7.701   2.797  0.00  0.00    +0.015 A 
ATOM     22  C   UNL     1       4.604  -7.865   1.436  0.00  0.00    +0.018 A 
ATOM     23  C   UNL     1       3.443  -7.412   0.836  0.00  0.00    +0.020 A 
ATOM     24 BR   UNL     1       5.937  -8.713   0.397  0.00  0.00    -0.050 Br
ENDBRANCH   3  18
TORSDOF 2
