REMARK  Name = ZINC04349565
REMARK  17 active torsions:
REMARK  status: ('A' for Active; 'I' for Inactive)
REMARK    1  A    between atoms: C_1  and  C_2
REMARK    2  A    between atoms: C_4  and  O_53
REMARK    3  A    between atoms: C_6  and  O_52
REMARK    4  A    between atoms: C_8  and  O_51
REMARK    5  A    between atoms: C_10  and  O_13
REMARK    6  A    between atoms: O_13  and  C_14
REMARK    7  A    between atoms: C_16  and  O_50
REMARK    8  A    between atoms: C_18  and  O_49
REMARK    9  A    between atoms: C_20  and  C_47
REMARK   10  A    between atoms: C_23  and  O_25
REMARK   11  A    between atoms: O_25  and  C_26
REMARK   12  A    between atoms: C_28  and  O_46
REMARK   13  A    between atoms: C_33  and  C_37
REMARK   14  A    between atoms: C_40  and  O_44
REMARK   15  A    between atoms: C_41  and  O_43
REMARK   16  A    between atoms: O_44  and  C_45
REMARK   17  A    between atoms: C_47  and  O_48
REMARK                            x       y       z     vdW  Elec       q    Type
REMARK                         _______ _______ _______ _____ _____    ______ ____
ROOT
ATOM      1  C   UNL     1      -0.752   1.593  -1.233  0.00  0.00    +0.221 C 
ATOM      2  C   UNL     1      -0.716   3.124  -1.248  0.00  0.00    +0.180 C 
ATOM      3  C   UNL     1       0.743   3.591  -1.209  0.00  0.00    +0.177 C 
ATOM      4  C   UNL     1       1.424   3.006   0.031  0.00  0.00    +0.179 C 
ATOM      5  O   UNL     1       1.328   1.581  -0.002  0.00  0.00    -0.331 OA
ATOM      6  C   UNL     1      -0.013   1.086   0.008  0.00  0.00    +0.340 C 
ENDROOT
BRANCH   3   7
ATOM      7  O   UNL     1       1.420   3.139  -2.384  0.00  0.00    -0.386 OA
ATOM      8  H   UNL     1       2.351   3.395  -2.424  0.00  0.00    +0.210 HD
ENDBRANCH   3   7
BRANCH   2   9
ATOM      9  O   UNL     1      -1.340   3.605  -2.441  0.00  0.00    -0.386 OA
ATOM     10  H   UNL     1      -1.347   4.569  -2.520  0.00  0.00    +0.210 HD
ENDBRANCH   2   9
BRANCH   1  11
ATOM     11  O   UNL     1      -0.114   1.089  -2.408  0.00  0.00    -0.337 OA
BRANCH  11  17
ATOM     12  C   UNL     1      -0.516  -3.450  -1.088  0.00  0.00    +0.041 C 
ATOM     13  C   UNL     1      -0.847  -2.468  -2.214  0.00  0.00    +0.149 C 
ATOM     14  C   UNL     1      -0.191  -2.942  -3.514  0.00  0.00    +0.174 C 
ATOM     15  C   UNL     1      -0.476  -1.924  -4.622  0.00  0.00    +0.179 C 
ATOM     16  C   UNL     1       0.036  -0.549  -4.180  0.00  0.00    +0.201 C 
ATOM     17  C   UNL     1      -0.629  -0.167  -2.855  0.00  0.00    +0.282 C 
ATOM     18  O   UNL     1      -0.350  -1.171  -1.877  0.00  0.00    -0.343 OA
BRANCH  16  19
ATOM     19  O   UNL     1      -0.289   0.424  -5.175  0.00  0.00    -0.384 OA
ATOM     20  H   UNL     1       0.001   1.320  -4.958  0.00  0.00    +0.210 HD
ENDBRANCH  16  19
BRANCH  15  21
ATOM     21  O   UNL     1       0.192  -2.320  -5.821  0.00  0.00    -0.386 OA
ATOM     22  H   UNL     1       0.059  -1.714  -6.564  0.00  0.00    +0.210 HD
ENDBRANCH  15  21
BRANCH  14  23
ATOM     23  O   UNL     1       1.220  -3.057  -3.322  0.00  0.00    -0.387 OA
ATOM     24  H   UNL     1       1.474  -3.687  -2.634  0.00  0.00    +0.210 HD
ENDBRANCH  14  23
ENDBRANCH  11  17
ENDBRANCH   1  11
BRANCH   6  25
ATOM     25  O   UNL     1      -0.682   1.547   1.183  0.00  0.00    -0.461 OA
BRANCH  25  26
ATOM     26  C   UNL     1      -0.213   1.098   2.376  0.00  0.00    +0.131 A 
ATOM     27  C   UNL     1       0.873   0.229   2.406  0.00  0.00    +0.092 A 
ATOM     28  C   UNL     1       1.358  -0.233   3.615  0.00  0.00    +0.135 A 
ATOM     29  C   UNL     1       0.749   0.179   4.806  0.00  0.00    +0.105 A 
ATOM     30  C   UNL     1       1.235  -0.289   6.115  0.00  0.00    +0.197 A 
ATOM     31  O   UNL     1       2.184  -1.051   6.204  0.00  0.00    -0.287 OA
ATOM     32  C   UNL     1       0.559   0.180   7.267  0.00  0.00    +0.098 A 
ATOM     33  C   UNL     1      -0.494   1.030   7.126  0.00  0.00    +0.139 A 
ATOM     34  O   UNL     1      -0.928   1.449   5.927  0.00  0.00    -0.454 OA
ATOM     35  C   UNL     1      -0.348   1.057   4.773  0.00  0.00    +0.146 A 
ATOM     36  C   UNL     1      -0.818   1.515   3.552  0.00  0.00    +0.093 A 
BRANCH  33  37
ATOM     37  C   UNL     1      -1.187   1.507   8.338  0.00  0.00    +0.021 A 
ATOM     38  C   UNL     1      -0.762   1.083   9.600  0.00  0.00    +0.015 A 
ATOM     39  C   UNL     1      -1.407   1.535  10.732  0.00  0.00    +0.050 A 
ATOM     40  C   UNL     1      -2.484   2.403  10.620  0.00  0.00    +0.161 A 
ATOM     41  C   UNL     1      -2.917   2.825   9.364  0.00  0.00    +0.159 A 
ATOM     42  C   UNL     1      -2.272   2.381   8.226  0.00  0.00    +0.060 A 
BRANCH  41  43
ATOM     43  O   UNL     1      -3.973   3.675   9.259  0.00  0.00    -0.503 OA
ATOM     44  H   UNL     1      -4.829   3.231   9.186  0.00  0.00    +0.292 HD
ENDBRANCH  41  43
BRANCH  40  45
ATOM     45  O   UNL     1      -3.119   2.841  11.739  0.00  0.00    -0.491 OA
ATOM     46  C   UNL     1      -2.624   2.369  12.993  0.00  0.00    +0.277 C 
ENDBRANCH  40  45
ENDBRANCH  33  37
BRANCH  28  47
ATOM     47  O   UNL     1       2.417  -1.081   3.646  0.00  0.00    -0.506 OA
ATOM     48  H   UNL     1       3.275  -0.638   3.698  0.00  0.00    +0.292 HD
ENDBRANCH  28  47
ENDBRANCH  25  26
ENDBRANCH   6  25
BRANCH   4  49
ATOM     49  C   UNL     1       2.897   3.418   0.045  0.00  0.00    +0.190 C 
BRANCH  49  50
ATOM     50  O   UNL     1       3.505   2.970   1.258  0.00  0.00    -0.392 OA
ATOM     51  H   UNL     1       4.442   3.197   1.336  0.00  0.00    +0.210 HD
ENDBRANCH  49  50
ENDBRANCH   4  49
TORSDOF 15
