REMARK  Name = ZINC37791708
REMARK  5 active torsions:
REMARK  status: ('A' for Active; 'I' for Inactive)
REMARK    1  A    between atoms: C_3  and  S_18
REMARK    2  A    between atoms: C_6  and  N_7
REMARK    3  A    between atoms: C_8  and  C_10
REMARK    4  A    between atoms: C_13  and  C_15
REMARK    5  A    between atoms: S_18  and  N_21
REMARK                            x       y       z     vdW  Elec       q    Type
REMARK                         _______ _______ _______ _____ _____    ______ ____
ROOT
ATOM      1  C   UNL     1       0.022   1.357   0.004  0.00  0.00    +0.025 A 
ATOM      2  C   UNL     1       1.216   2.050   0.002  0.00  0.00    +0.030 A 
ATOM      3  C   UNL     1       2.416   1.362  -0.004  0.00  0.00    +0.105 A 
ATOM      4  C   UNL     1       2.424  -0.020  -0.008  0.00  0.00    +0.030 A 
ATOM      5  C   UNL     1       1.233  -0.719  -0.006  0.00  0.00    +0.025 A 
ATOM      6  C   UNL     1       0.026  -0.032  -0.001  0.00  0.00    +0.034 A 
ENDROOT
BRANCH   6   7
ATOM      7  N   UNL     1      -1.182  -0.737   0.001  0.00  0.00    -0.285 N 
ATOM      8  C   UNL     1      -1.286  -1.899  -0.674  0.00  0.00    +0.221 C 
ATOM      9  O   UNL     1      -0.310  -2.374  -1.216  0.00  0.00    -0.275 OA
ATOM     10  H   UNL     1      -1.946  -0.389   0.488  0.00  0.00    +0.155 HD
BRANCH   8  11
ATOM     11  C   UNL     1      -2.613  -2.608  -0.755  0.00  0.00    +0.090 C 
ATOM     12  C   UNL     1      -2.773  -3.688  -1.827  0.00  0.00    +0.029 C 
ATOM     13  C   UNL     1      -3.483  -2.341  -1.985  0.00  0.00    +0.115 C 
BRANCH  13  14
ATOM     14  C   UNL     1      -2.946  -1.389  -3.023  0.00  0.00    +0.360 C 
ATOM     15  O   UNL     1      -3.172  -1.586  -4.205  0.00  0.00    -0.246 OA
ATOM     16  O   UNL     1      -2.286  -0.423  -2.681  0.00  0.00    -0.246 OA
ENDBRANCH  13  14
ENDBRANCH   8  11
ENDBRANCH   6   7
BRANCH   3  17
ATOM     17  S   UNL     1       3.938   2.250  -0.007  0.00  0.00    +0.056 S 
ATOM     18  O   UNL     1       4.915   1.381  -0.563  0.00  0.00    -0.153 OA
ATOM     19  O   UNL     1       3.659   3.532  -0.553  0.00  0.00    -0.153 OA
BRANCH  17  20
ATOM     20  N   UNL     1       4.367   2.493   1.574  0.00  0.00    -0.204 NA
ATOM     21  H   UNL     1       3.800   2.159   2.287  0.00  0.00    +0.144 HD
ATOM     22  H   UNL     1       5.184   2.969   1.788  0.00  0.00    +0.144 HD
ENDBRANCH  17  20
ENDBRANCH   3  17
TORSDOF 5
