REMARK  Name = ZINC12465948
REMARK  4 active torsions:
REMARK  status: ('A' for Active; 'I' for Inactive)
REMARK    1  A    between atoms: C_3  and  N_8
REMARK    2  A    between atoms: C_14  and  C_16
REMARK    3  A    between atoms: C_22  and  C_31
REMARK    4  A    between atoms: C_25  and  C_27
REMARK                            x       y       z     vdW  Elec       q    Type
REMARK                         _______ _______ _______ _____ _____    ______ ____
ROOT
ATOM      1  C   UNL     1       8.216   3.278   1.175  0.00  0.00    +0.096 A 
ATOM      2  C   UNL     1       8.399   1.877   1.056  0.00  0.00    +0.149 A 
ATOM      3  N   UNL     1       9.681   1.629   1.077  0.00  0.00    -0.177 NA
ATOM      4  N   UNL     1      10.378   2.829   1.209  0.00  0.00    -0.238 N 
ATOM      5  C   UNL     1       9.477   3.838   1.262  0.00  0.00    +0.130 A 
ATOM      6  N   UNL     1       9.842   5.167   1.383  0.00  0.00    -0.319 N 
ATOM      7  C   UNL     1      11.269   5.474   1.162  0.00  0.00    +0.140 C 
ATOM      8  C   UNL     1      12.111   4.410   1.877  0.00  0.00    +0.066 C 
ATOM      9  C   UNL     1      11.829   3.030   1.278  0.00  0.00    +0.215 C 
ATOM     10  H   UNL     1       9.198   5.859   1.601  0.00  0.00    +0.148 HD
ENDROOT
BRANCH   1  17
ATOM     11  N   UNL     1       4.276   3.262   4.079  0.00  0.00    -0.327 N 
ATOM     12  C   UNL     1       5.597   2.622   4.147  0.00  0.00    +0.124 C 
ATOM     13  C   UNL     1       6.057   2.293   2.721  0.00  0.00    +0.127 C 
ATOM     14  N   UNL     1       5.893   3.492   1.887  0.00  0.00    -0.294 N 
ATOM     15  C   UNL     1       4.572   4.132   1.819  0.00  0.00    +0.127 C 
ATOM     16  C   UNL     1       4.111   4.457   3.240  0.00  0.00    +0.124 C 
ATOM     17  C   UNL     1       6.936   3.995   1.197  0.00  0.00    +0.252 C 
ATOM     18  O   UNL     1       6.816   5.044   0.592  0.00  0.00    -0.270 OA
BRANCH  11  21
ATOM     19  C   UNL     1       0.916   2.898   5.521  0.00  0.00    +0.003 A 
ATOM     20  C   UNL     1       1.983   3.417   4.814  0.00  0.00    +0.023 A 
ATOM     21  C   UNL     1       3.196   2.740   4.793  0.00  0.00    +0.031 A 
ATOM     22  C   UNL     1       3.331   1.543   5.484  0.00  0.00    +0.043 A 
ATOM     23  C   UNL     1       2.260   1.029   6.190  0.00  0.00    +0.043 A 
ATOM     24  C   UNL     1       1.053   1.707   6.208  0.00  0.00    +0.020 A 
ATOM     25 CL   UNL     1       2.427  -0.467   7.054  0.00  0.00    -0.083 Cl
ENDBRANCH  11  21
ENDBRANCH   1  17
BRANCH   7  26
ATOM     26  C   UNL     1      11.587   6.837   1.720  0.00  0.00    +0.125 A 
ATOM     27  C   UNL     1      12.386   7.755   1.147  0.00  0.00    +0.046 A 
ATOM     28  C   UNL     1      12.402   8.878   2.006  0.00  0.00    +0.041 A 
ATOM     29  C   UNL     1      11.612   8.578   3.053  0.00  0.00    +0.195 A 
ATOM     30  O   UNL     1      11.117   7.343   2.872  0.00  0.00    -0.466 OA
ENDBRANCH   7  26
BRANCH   9  31
ATOM     31  C   UNL     1      12.456   1.942   2.152  0.00  0.00    +0.412 C 
ATOM     32  F   UNL     1      12.187   0.686   1.599  0.00  0.00    -0.168 F 
ATOM     33  F   UNL     1      13.840   2.136   2.217  0.00  0.00    -0.168 F 
ATOM     34  F   UNL     1      11.915   2.009   3.441  0.00  0.00    -0.168 F 
ENDBRANCH   9  31
TORSDOF 4
