REMARK  Name = ZINC25445602
REMARK  7 active torsions:
REMARK  status: ('A' for Active; 'I' for Inactive)
REMARK    1  A    between atoms: C_3  and  O_24
REMARK    2  A    between atoms: C_6  and  C_7
REMARK    3  A    between atoms: N_9  and  C_10
REMARK    4  A    between atoms: C_10  and  C_11
REMARK    5  A    between atoms: C_14  and  S_16
REMARK    6  A    between atoms: S_16  and  N_19
REMARK    7  A    between atoms: O_24  and  C_25
REMARK                            x       y       z     vdW  Elec       q    Type
REMARK                         _______ _______ _______ _____ _____    ______ ____
ROOT
ATOM      1  C   UNL     1       1.169   3.562   0.009  0.00  0.00    +0.244 C 
ATOM      2  O   UNL     1       0.110   4.159   0.022  0.00  0.00    -0.270 OA
ATOM      3  N   UNL     1       2.330   4.248   0.002  0.00  0.00    -0.307 N 
ATOM      4  H   UNL     1       3.288   3.708  -0.010  0.00  0.00    +0.149 HD
ENDROOT
BRANCH   1  10
ATOM      5  C   UNL     1      -0.017   1.373   0.010  0.00  0.00    +0.016 A 
ATOM      6  C   UNL     1       0.002  -0.004   0.002  0.00  0.00    +0.047 A 
ATOM      7  C   UNL     1       1.214  -0.684  -0.013  0.00  0.00    +0.130 A 
ATOM      8  C   UNL     1       2.412   0.021  -0.020  0.00  0.00    +0.047 A 
ATOM      9  C   UNL     1       2.401   1.398  -0.012  0.00  0.00    +0.016 A 
ATOM     10  C   UNL     1       1.185   2.086   0.002  0.00  0.00    +0.037 A 
BRANCH   7  11
ATOM     11  O   UNL     1       1.228  -2.042  -0.021  0.00  0.00    -0.406 OA
BRANCH  11  12
ATOM     12  C   UNL     1       2.508  -2.677  -0.036  0.00  0.00    +0.575 C 
ATOM     13  F   UNL     1       3.230  -2.300   1.101  0.00  0.00    -0.133 F 
ATOM     14  F   UNL     1       2.339  -4.066  -0.042  0.00  0.00    -0.133 F 
ATOM     15  F   UNL     1       3.208  -2.287  -1.183  0.00  0.00    -0.133 F 
ENDBRANCH  11  12
ENDBRANCH   7  11
ENDBRANCH   1  10
BRANCH   3  16
ATOM     16  C   UNL     1       2.314   5.713   0.010  0.00  0.00    +0.147 C 
BRANCH  16  17
ATOM     17  C   UNL     1       3.730   6.230  -0.001  0.00  0.00    +0.009 A 
ATOM     18  C   UNL     1       4.521   6.529  -1.060  0.00  0.00    +0.015 A 
ATOM     19  C   UNL     1       5.802   6.995  -0.829  0.00  0.00    +0.037 A 
ATOM     20  C   UNL     1       6.228   7.141   0.450  0.00  0.00    +0.143 A 
ATOM     21  S   UNL     1       4.796   6.617   1.378  0.00  0.00    -0.072 S 
BRANCH  20  22
ATOM     22  S   UNL     1       7.788   7.707   1.042  0.00  0.00    +0.067 S 
ATOM     23  O   UNL     1       7.947   7.168   2.347  0.00  0.00    -0.152 OA
ATOM     24  O   UNL     1       8.727   7.472   0.001  0.00  0.00    -0.152 OA
BRANCH  22  25
ATOM     25  N   UNL     1       7.678   9.350   1.218  0.00  0.00    -0.176 NA
ATOM     26  C   UNL     1       8.001  10.346   0.187  0.00  0.00    +0.109 C 
ATOM     27  C   UNL     1       7.772  11.740   0.808  0.00  0.00    +0.018 C 
ATOM     28  C   UNL     1       7.885  11.462   2.330  0.00  0.00    +0.018 C 
ATOM     29  C   UNL     1       7.245  10.056   2.438  0.00  0.00    +0.109 C 
ENDBRANCH  22  25
ENDBRANCH  20  22
ENDBRANCH  16  17
ENDBRANCH   3  16
TORSDOF 7
