REMARK  Name = ZINC34369788
REMARK  11 active torsions:
REMARK  status: ('A' for Active; 'I' for Inactive)
REMARK    1  A    between atoms: C_3  and  N_34
REMARK    2  A    between atoms: C_6  and  C_7
REMARK    3  A    between atoms: C_7  and  N_8
REMARK    4  A    between atoms: N_15  and  C_18
REMARK    5  A    between atoms: C_20  and  O_33
REMARK    6  A    between atoms: C_22  and  O_32
REMARK    7  A    between atoms: C_24  and  C_27
REMARK    8  A    between atoms: C_27  and  S_28
REMARK    9  A    between atoms: S_28  and  C_29
REMARK   10  A    between atoms: C_29  and  C_30
REMARK   11  A    between atoms: C_30  and  N_31
REMARK                            x       y       z     vdW  Elec       q    Type
REMARK                         _______ _______ _______ _____ _____    ______ ____
ROOT
ATOM      1  N   UNL     1      -1.725  -1.018  -1.368  0.00  0.00    -0.323 N 
ATOM      2  C   UNL     1      -2.897  -1.713  -1.614  0.00  0.00    +0.150 A 
ATOM      3  C   UNL     1      -3.324  -1.959  -2.930  0.00  0.00    +0.147 A 
ATOM      4  C   UNL     1      -4.521  -2.670  -3.116  0.00  0.00    +0.167 A 
ATOM      5  N   UNL     1      -5.202  -3.081  -2.050  0.00  0.00    -0.216 NA
ATOM      6  C   UNL     1      -4.762  -2.827  -0.836  0.00  0.00    +0.225 A 
ATOM      7  N   UNL     1      -3.641  -2.167  -0.611  0.00  0.00    -0.219 NA
ATOM      8  N   UNL     1      -4.697  -2.767  -4.473  0.00  0.00    -0.286 N 
ATOM      9  C   UNL     1      -3.644  -2.137  -5.067  0.00  0.00    +0.203 A 
ATOM     10  N   UNL     1      -2.840  -1.664  -4.160  0.00  0.00    -0.231 NA
ATOM     11  H   UNL     1      -1.191  -0.691  -2.109  0.00  0.00    +0.148 HD
ENDROOT
BRANCH   8  12
ATOM     12  C   UNL     1      -5.812  -3.426  -5.159  0.00  0.00    +0.253 C 
ATOM     13  C   UNL     1      -6.996  -2.449  -5.292  0.00  0.00    +0.195 C 
ATOM     14  C   UNL     1      -7.179  -2.280  -6.819  0.00  0.00    +0.177 C 
ATOM     15  C   UNL     1      -5.794  -2.715  -7.362  0.00  0.00    +0.162 C 
ATOM     16  O   UNL     1      -5.414  -3.803  -6.487  0.00  0.00    -0.347 OA
BRANCH  14  17
ATOM     17  O   UNL     1      -8.211  -3.140  -7.307  0.00  0.00    -0.386 OA
ATOM     18  H   UNL     1      -9.083  -2.964  -6.926  0.00  0.00    +0.210 HD
ENDBRANCH  14  17
BRANCH  13  19
ATOM     19  O   UNL     1      -6.682  -1.195  -4.682  0.00  0.00    -0.385 OA
ATOM     20  H   UNL     1      -7.393  -0.542  -4.736  0.00  0.00    +0.210 HD
ENDBRANCH  13  19
BRANCH  15  21
ATOM     21  C   UNL     1      -5.910  -3.200  -8.809  0.00  0.00    +0.103 C 
BRANCH  21  22
ATOM     22  S   UNL     1      -4.274  -3.699  -9.413  0.00  0.00    -0.160 S 
BRANCH  22  23
ATOM     23  C   UNL     1      -4.582  -4.240 -11.117  0.00  0.00    +0.050 C 
BRANCH  23  24
ATOM     24  C   UNL     1      -3.266  -4.694 -11.752  0.00  0.00    -0.076 C 
BRANCH  24  25
ATOM     25  N   UNL     1      -3.515  -5.132 -13.133  0.00  0.00    +0.379 N 
ATOM     26  H   UNL     1      -2.648  -5.432 -13.552  0.00  0.00    -0.090 HD
ATOM     27  H   UNL     1      -4.170  -5.900 -13.129  0.00  0.00    -0.090 HD
ATOM     28  H   UNL     1      -3.899  -4.366 -13.665  0.00  0.00    -0.090 HD
ENDBRANCH  24  25
ENDBRANCH  23  24
ENDBRANCH  22  23
ENDBRANCH  21  22
ENDBRANCH  15  21
ENDBRANCH   8  12
BRANCH   1  29
ATOM     29  C   UNL     1      -1.293  -0.775   0.010  0.00  0.00    +0.138 C 
BRANCH  29  35
ATOM     30  C   UNL     1      -0.017   1.378   0.010  0.00  0.00    +0.007 A 
ATOM     31  C   UNL     1       1.171   2.086   0.002  0.00  0.00    +0.033 A 
ATOM     32  C   UNL     1       2.377   1.411  -0.013  0.00  0.00    +0.126 A 
ATOM     33  C   UNL     1       2.396   0.029  -0.020  0.00  0.00    +0.033 A 
ATOM     34  C   UNL     1       1.208  -0.679  -0.012  0.00  0.00    +0.007 A 
ATOM     35  C   UNL     1       0.002  -0.004   0.002  0.00  0.00    -0.030 A 
BRANCH  32  36
ATOM     36  N   UNL     1       3.649   2.168  -0.022  0.00  0.00    +0.056 N 
ATOM     37  O   UNL     1       3.633   3.377  -0.016  0.00  0.00    -0.126 OA
ATOM     38  O   UNL     1       4.704   1.578  -0.035  0.00  0.00    -0.126 OA
ENDBRANCH  32  36
ENDBRANCH  29  35
ENDBRANCH   1  29
TORSDOF 11
