REMARK  Name = ZINC16557312
REMARK  10 active torsions:
REMARK  status: ('A' for Active; 'I' for Inactive)
REMARK    1  A    between atoms: C_1  and  C_2
REMARK    2  A    between atoms: C_2  and  N_3
REMARK    3  A    between atoms: N_3  and  C_4
REMARK    4  A    between atoms: N_3  and  C_18
REMARK    5  A    between atoms: C_4  and  C_5
REMARK    6  A    between atoms: N_7  and  C_8
REMARK    7  A    between atoms: C_11  and  N_14
REMARK    8  A    between atoms: C_15  and  C_17
REMARK    9  A    between atoms: C_18  and  C_19
REMARK   10  A    between atoms: N_21  and  C_22
REMARK                            x       y       z     vdW  Elec       q    Type
REMARK                         _______ _______ _______ _____ _____    ______ ____
ROOT
ATOM      1  N   UNL     1       0.827   0.247   0.906  0.00  0.00    +0.391 N 
ATOM      2  H   UNL     1       1.679   0.788   0.905  0.00  0.00    -0.080 HD
ENDROOT
BRANCH   1   4
ATOM      3  C   UNL     1      -0.333   2.321   0.316  0.00  0.00    -0.017 C 
ATOM      4  C   UNL     1      -0.134   0.845  -0.031  0.00  0.00    -0.081 C 
ENDBRANCH   1   4
BRANCH   1   5
ATOM      5  C   UNL     1       0.252   0.240   2.258  0.00  0.00    +0.020 C 
BRANCH   5   6
ATOM      6  C   UNL     1       1.297  -0.211   3.246  0.00  0.00    +0.201 C 
ATOM      7  O   UNL     1       2.389  -0.566   2.854  0.00  0.00    -0.278 OA
ATOM      8  N   UNL     1       1.019  -0.219   4.564  0.00  0.00    -0.287 N 
ATOM      9  H   UNL     1       0.125  -0.004   4.873  0.00  0.00    +0.155 HD
BRANCH   8  10
ATOM     10  C   UNL     1       2.021  -0.539   5.489  0.00  0.00    +0.033 A 
ATOM     11  C   UNL     1       3.336  -0.162   5.248  0.00  0.00    +0.025 A 
ATOM     12  C   UNL     1       4.323  -0.477   6.159  0.00  0.00    +0.025 A 
ATOM     13  C   UNL     1       4.002  -1.172   7.318  0.00  0.00    +0.033 A 
ATOM     14  C   UNL     1       2.688  -1.549   7.560  0.00  0.00    +0.025 A 
ATOM     15  C   UNL     1       1.699  -1.229   6.651  0.00  0.00    +0.025 A 
BRANCH  13  16
ATOM     16  N   UNL     1       5.004  -1.492   8.243  0.00  0.00    -0.286 N 
ATOM     17  C   UNL     1       4.937  -2.646   8.936  0.00  0.00    +0.214 C 
ATOM     18  O   UNL     1       4.059  -3.448   8.697  0.00  0.00    -0.276 OA
ATOM     19  C   UNL     1       5.954  -2.941  10.009  0.00  0.00    +0.109 C 
ATOM     20  H   UNL     1       5.746  -0.884   8.384  0.00  0.00    +0.155 HD
ENDBRANCH  13  16
ENDBRANCH   8  10
ENDBRANCH   5   6
ENDBRANCH   1   5
BRANCH   1  21
ATOM     21  C   UNL     1       1.122  -1.131   0.492  0.00  0.00    +0.020 C 
BRANCH  21  22
ATOM     22  C   UNL     1       1.823  -1.116  -0.842  0.00  0.00    +0.201 C 
ATOM     23  O   UNL     1       2.054  -0.061  -1.393  0.00  0.00    -0.278 OA
ATOM     24  N   UNL     1       2.193  -2.275  -1.421  0.00  0.00    -0.286 N 
ATOM     25  H   UNL     1       1.946  -3.121  -1.016  0.00  0.00    +0.155 HD
BRANCH  24  26
ATOM     26  C   UNL     1       2.934  -2.258  -2.608  0.00  0.00    +0.047 A 
ATOM     27  C   UNL     1       3.854  -1.244  -2.840  0.00  0.00    +0.024 A 
ATOM     28  C   UNL     1       4.584  -1.230  -4.012  0.00  0.00    +0.002 A 
ATOM     29  C   UNL     1       4.401  -2.225  -4.955  0.00  0.00    +0.001 A 
ATOM     30  C   UNL     1       3.486  -3.236  -4.729  0.00  0.00    +0.017 A 
ATOM     31  C   UNL     1       2.756  -3.259  -3.555  0.00  0.00    +0.039 A 
ATOM     32 BR   UNL     1       1.511  -4.647  -3.242  0.00  0.00    -0.048 Br
ENDBRANCH  24  26
ENDBRANCH  21  22
ENDBRANCH   1  21
TORSDOF 8
