REMARK  Name = ZINC40784024
REMARK  6 active torsions:
REMARK  status: ('A' for Active; 'I' for Inactive)
REMARK    1  A    between atoms: C_6  and  C_7
REMARK    2  A    between atoms: C_7  and  N_8
REMARK    3  A    between atoms: C_10  and  N_26
REMARK    4  A    between atoms: C_11  and  N_15
REMARK    5  A    between atoms: N_15  and  N_16
REMARK    6  A    between atoms: C_17  and  C_19
REMARK                            x       y       z     vdW  Elec       q    Type
REMARK                         _______ _______ _______ _____ _____    ______ ____
ROOT
ATOM      1  N   UNL     1      -1.726  -1.017  -1.368  0.00  0.00    -0.323 N 
ATOM      2  C   UNL     1      -2.903  -1.715  -1.614  0.00  0.00    +0.145 A 
ATOM      3  C   UNL     1      -3.323  -1.957  -2.923  0.00  0.00    +0.107 A 
ATOM      4  C   UNL     1      -4.511  -2.663  -3.114  0.00  0.00    +0.161 A 
ATOM      5  N   UNL     1      -5.195  -3.075  -2.049  0.00  0.00    -0.217 NA
ATOM      6  C   UNL     1      -4.763  -2.826  -0.829  0.00  0.00    +0.225 A 
ATOM      7  N   UNL     1      -3.643  -2.167  -0.605  0.00  0.00    -0.219 NA
ATOM      8  H   UNL     1      -1.192  -0.691  -2.108  0.00  0.00    +0.148 HD
ENDROOT
BRANCH   3   9
ATOM      9  N   UNL     1      -2.570  -1.502  -4.018  0.00  0.00    -0.353 N 
ATOM     10  H   UNL     1      -1.745  -1.013  -3.870  0.00  0.00    +0.143 HD
ATOM     11  H   UNL     1      -2.874  -1.678  -4.922  0.00  0.00    +0.143 HD
ENDBRANCH   3   9
BRANCH   4  12
ATOM     12  N   UNL     1      -4.975  -2.930  -4.396  0.00  0.00    -0.247 N 
ATOM     13  H   UNL     1      -4.471  -2.626  -5.168  0.00  0.00    +0.172 HD
BRANCH  12  14
ATOM     14  N   UNL     1      -6.170  -3.640  -4.576  0.00  0.00    -0.231 N 
ATOM     15  C   UNL     1      -6.619  -3.899  -5.819  0.00  0.00    +0.260 C 
ATOM     16  O   UNL     1      -5.988  -3.518  -6.786  0.00  0.00    -0.269 OA
ATOM     17  H   UNL     1      -6.673  -3.944  -3.805  0.00  0.00    +0.173 HD
BRANCH  15  18
ATOM     18  C   UNL     1      -7.880  -4.648  -6.008  0.00  0.00    +0.038 A 
ATOM     19  C   UNL     1      -8.610  -5.082  -4.901  0.00  0.00    +0.014 A 
ATOM     20  C   UNL     1      -9.786  -5.779  -5.083  0.00  0.00    +0.016 A 
ATOM     21  C   UNL     1     -10.242  -6.049  -6.363  0.00  0.00    +0.018 A 
ATOM     22  C   UNL     1      -9.522  -5.621  -7.466  0.00  0.00    +0.016 A 
ATOM     23  C   UNL     1      -8.348  -4.918  -7.296  0.00  0.00    +0.014 A 
ATOM     24 BR   UNL     1     -11.855  -7.007  -6.605  0.00  0.00    -0.050 Br
ENDBRANCH  15  18
ENDBRANCH  12  14
ENDBRANCH   4  12
BRANCH   1  25
ATOM     25  C   UNL     1      -1.293  -0.775   0.011  0.00  0.00    +0.138 C 
BRANCH  25  31
ATOM     26  C   UNL     1      -0.017   1.378   0.010  0.00  0.00    +0.006 A 
ATOM     27  C   UNL     1       1.171   2.086   0.002  0.00  0.00    +0.020 A 
ATOM     28  C   UNL     1       2.378   1.410  -0.013  0.00  0.00    +0.041 A 
ATOM     29  C   UNL     1       2.396   0.027  -0.021  0.00  0.00    +0.020 A 
ATOM     30  C   UNL     1       1.208  -0.679  -0.013  0.00  0.00    +0.006 A 
ATOM     31  C   UNL     1       0.002  -0.004   0.002  0.00  0.00    -0.030 A 
ATOM     32 CL   UNL     1       3.870   2.298  -0.023  0.00  0.00    -0.084 Cl
ENDBRANCH  25  31
ENDBRANCH   1  25
TORSDOF 6
