REMARK  Name = ZINC24961563
REMARK  9 active torsions:
REMARK  status: ('A' for Active; 'I' for Inactive)
REMARK    1  A    between atoms: C_1  and  N_2
REMARK    2  A    between atoms: C_4  and  S_10
REMARK    3  A    between atoms: C_6  and  C_7
REMARK    4  A    between atoms: S_10  and  N_13
REMARK    5  A    between atoms: C_16  and  C_19
REMARK    6  A    between atoms: N_21  and  C_22
REMARK    7  A    between atoms: C_22  and  C_23
REMARK    8  A    between atoms: C_26  and  S_28
REMARK    9  A    between atoms: S_28  and  N_31
REMARK                            x       y       z     vdW  Elec       q    Type
REMARK                         _______ _______ _______ _____ _____    ______ ____
ROOT
ATOM      1  N   UNL     1      -1.172   1.523  -1.294  0.00  0.00    -0.176 NA
ATOM      2  C   UNL     1      -2.236   0.616  -1.746  0.00  0.00    +0.110 C 
ATOM      3  C   UNL     1      -2.044   0.327  -3.234  0.00  0.00    +0.030 C 
ATOM      4  C   UNL     1      -1.975   1.648  -4.003  0.00  0.00    +0.077 C 
ATOM      5  C   UNL     1      -0.779   2.465  -3.510  0.00  0.00    +0.030 C 
ATOM      6  C   UNL     1      -0.960   2.781  -2.022  0.00  0.00    +0.110 C 
ENDROOT
BRANCH   4   7
ATOM      7  C   UNL     1      -1.816   1.364  -5.475  0.00  0.00    +0.216 C 
ATOM      8  O   UNL     1      -0.843   1.776  -6.070  0.00  0.00    -0.276 OA
ATOM      9  N   UNL     1      -2.756   0.654  -6.129  0.00  0.00    -0.310 N 
ATOM     10  H   UNL     1      -3.639   0.281  -5.589  0.00  0.00    +0.149 HD
BRANCH   9  11
ATOM     11  C   UNL     1      -2.602   0.378  -7.560  0.00  0.00    +0.146 C 
BRANCH  11  12
ATOM     12  C   UNL     1      -3.780  -0.427  -8.046  0.00  0.00    +0.009 A 
ATOM     13  C   UNL     1      -4.962   0.008  -8.548  0.00  0.00    +0.015 A 
ATOM     14  C   UNL     1      -5.908  -0.923  -8.936  0.00  0.00    +0.036 A 
ATOM     15  C   UNL     1      -5.625  -2.242  -8.803  0.00  0.00    +0.142 A 
ATOM     16  S   UNL     1      -3.978  -2.200  -8.117  0.00  0.00    -0.072 S 
BRANCH  15  17
ATOM     17  S   UNL     1      -6.623  -3.636  -9.207  0.00  0.00    +0.062 S 
ATOM     18  O   UNL     1      -6.161  -4.713  -8.404  0.00  0.00    -0.153 OA
ATOM     19  O   UNL     1      -7.973  -3.192  -9.182  0.00  0.00    -0.153 OA
BRANCH  17  20
ATOM     20  N   UNL     1      -6.287  -4.040 -10.778  0.00  0.00    -0.203 NA
ATOM     21  H   UNL     1      -6.893  -4.910 -11.071  0.00  0.00    +0.144 HD
ATOM     22  H   UNL     1      -5.219  -4.288 -10.872  0.00  0.00    +0.144 HD
ENDBRANCH  17  20
ENDBRANCH  15  17
ENDBRANCH  11  12
ENDBRANCH   9  11
ENDBRANCH   4   7
BRANCH   1  23
ATOM     23  S   UNL     1      -0.226   1.131   0.008  0.00  0.00    +0.062 S 
ATOM     24  O   UNL     1      -0.269  -0.284   0.129  0.00  0.00    -0.153 OA
ATOM     25  O   UNL     1       0.992   1.846  -0.146  0.00  0.00    -0.153 OA
BRANCH  23  29
ATOM     26  C   UNL     1      -1.680   4.341   3.919  0.00  0.00    +0.149 C 
ATOM     27  N   UNL     1      -1.603   3.152   3.066  0.00  0.00    -0.344 N 
ATOM     28  C   UNL     1      -0.816   3.013   1.972  0.00  0.00    +0.114 A 
ATOM     29  C   UNL     1      -1.016   1.784   1.441  0.00  0.00    +0.124 A 
ATOM     30  C   UNL     1      -1.957   1.121   2.236  0.00  0.00    +0.061 A 
ATOM     31  C   UNL     1      -2.315   1.988   3.247  0.00  0.00    +0.106 A 
BRANCH  31  32
ATOM     32  C   UNL     1      -3.279   1.719   4.319  0.00  0.00    +0.258 C 
ATOM     33  O   UNL     1      -3.433   2.527   5.216  0.00  0.00    -0.269 OA
ATOM     34  N   UNL     1      -3.994   0.576   4.311  0.00  0.00    -0.324 N 
ATOM     35  H   UNL     1      -4.716   0.374   5.116  0.00  0.00    +0.145 HD
ATOM     36  H   UNL     1      -3.854  -0.155   3.501  0.00  0.00    +0.145 HD
ENDBRANCH  31  32
ENDBRANCH  23  29
ENDBRANCH   1  23
TORSDOF 8
