REMARK  Name = ZINC35807871
REMARK  11 active torsions:
REMARK  status: ('A' for Active; 'I' for Inactive)
REMARK    1  A    between atoms: C_1  and  O_2
REMARK    2  A    between atoms: O_2  and  C_3
REMARK    3  A    between atoms: C_6  and  C_9
REMARK    4  A    between atoms: C_9  and  N_10
REMARK    5  A    between atoms: N_10  and  C_11
REMARK    6  A    between atoms: N_10  and  C_21
REMARK    7  A    between atoms: C_11  and  C_12
REMARK    8  A    between atoms: C_21  and  C_22
REMARK    9  A    between atoms: C_24  and  C_27
REMARK   10  A    between atoms: N_29  and  C_30
REMARK   11  A    between atoms: C_30  and  C_31
REMARK                            x       y       z     vdW  Elec       q    Type
REMARK                         _______ _______ _______ _____ _____    ______ ____
ROOT
ATOM      1  N   UNL     1       1.514  -2.793   5.310  0.00  0.00    +0.389 N 
ATOM      2  H   UNL     1       0.760  -3.371   4.969  0.00  0.00    -0.080 HD
ENDROOT
BRANCH   1   3
ATOM      3  C   UNL     1       2.494  -2.583   4.237  0.00  0.00    -0.042 C 
BRANCH   3   7
ATOM      4  C   UNL     1       3.757  -6.366   2.700  0.00  0.00    +0.120 A 
ATOM      5  C   UNL     1       2.594  -5.776   2.226  0.00  0.00    +0.046 A 
ATOM      6  C   UNL     1       2.188  -4.553   2.724  0.00  0.00    +0.005 A 
ATOM      7  C   UNL     1       2.939  -3.917   3.695  0.00  0.00    -0.064 A 
ATOM      8  C   UNL     1       4.099  -4.503   4.169  0.00  0.00    +0.005 A 
ATOM      9  C   UNL     1       4.506  -5.728   3.678  0.00  0.00    +0.046 A 
BRANCH   4  11
ATOM     10  C   UNL     1       3.338  -8.167   1.206  0.00  0.00    +0.277 C 
ATOM     11  O   UNL     1       4.158  -7.569   2.212  0.00  0.00    -0.495 OA
ENDBRANCH   4  11
ENDBRANCH   3   7
ENDBRANCH   1   3
BRANCH   1  12
ATOM     12  C   UNL     1       0.978  -1.496   5.745  0.00  0.00    -0.042 C 
BRANCH  12  13
ATOM     13  C   UNL     1       0.189  -0.876   4.620  0.00  0.00    -0.060 A 
ATOM     14  C   UNL     1       0.791   0.038   3.777  0.00  0.00    +0.005 A 
ATOM     15  C   UNL     1       0.071   0.609   2.744  0.00  0.00    +0.050 A 
ATOM     16  C   UNL     1      -1.257   0.265   2.552  0.00  0.00    +0.166 A 
ATOM     17  C   UNL     1      -1.864  -0.656   3.402  0.00  0.00    +0.166 A 
ATOM     18  C   UNL     1      -1.135  -1.228   4.431  0.00  0.00    +0.051 A 
ATOM     19  O   UNL     1      -3.161  -0.824   3.009  0.00  0.00    -0.453 OA
ATOM     20  C   UNL     1      -3.456   0.305   2.167  0.00  0.00    +0.466 C 
ATOM     21  O   UNL     1      -2.174   0.675   1.627  0.00  0.00    -0.453 OA
ENDBRANCH  12  13
ENDBRANCH   1  12
BRANCH   1  22
ATOM     22  C   UNL     1       2.166  -3.459   6.446  0.00  0.00    -0.014 C 
BRANCH  22  23
ATOM     23  C   UNL     1       1.136  -3.784   7.496  0.00  0.00    +0.063 A 
ATOM     24  N   UNL     1       0.427  -4.873   7.618  0.00  0.00    -0.241 NA
ATOM     25  C   UNL     1      -0.439  -4.957   8.634  0.00  0.00    +0.133 A 
ATOM     26  C   UNL     1      -0.499  -3.870   9.464  0.00  0.00    +0.079 A 
ATOM     27  S   UNL     1       0.637  -2.834   8.787  0.00  0.00    -0.082 S 
BRANCH  25  28
ATOM     28  C   UNL     1      -1.278  -6.148   8.846  0.00  0.00    +0.263 C 
ATOM     29  O   UNL     1      -2.054  -6.186   9.782  0.00  0.00    -0.269 OA
ATOM     30  N   UNL     1      -1.187  -7.196   8.004  0.00  0.00    -0.306 N 
ATOM     31  H   UNL     1      -0.568  -7.166   7.257  0.00  0.00    +0.149 HD
BRANCH  30  32
ATOM     32  C   UNL     1      -2.022  -8.381   8.215  0.00  0.00    +0.140 C 
BRANCH  32  33
ATOM     33  C   UNL     1      -1.729  -9.400   7.144  0.00  0.00    -0.030 A 
ATOM     34  C   UNL     1      -2.445  -9.384   5.961  0.00  0.00    +0.008 A 
ATOM     35  C   UNL     1      -2.177 -10.317   4.978  0.00  0.00    +0.038 A 
ATOM     36  C   UNL     1      -1.191 -11.268   5.177  0.00  0.00    +0.123 A 
ATOM     37  C   UNL     1      -0.474 -11.283   6.362  0.00  0.00    +0.038 A 
ATOM     38  C   UNL     1      -0.740 -10.346   7.342  0.00  0.00    +0.008 A 
ATOM     39  F   UNL     1      -0.929 -12.181   4.217  0.00  0.00    -0.205 F 
ENDBRANCH  32  33
ENDBRANCH  30  32
ENDBRANCH  25  28
ENDBRANCH  22  23
ENDBRANCH   1  22
TORSDOF 10
