REMARK  Name = ZINC30660507
REMARK  7 active torsions:
REMARK  status: ('A' for Active; 'I' for Inactive)
REMARK    1  A    between atoms: C_1  and  C_2
REMARK    2  A    between atoms: C_3  and  C_9
REMARK    3  A    between atoms: N_5  and  C_7
REMARK    4  A    between atoms: C_9  and  N_10
REMARK    5  A    between atoms: N_10  and  C_11
REMARK    6  A    between atoms: C_11  and  C_12
REMARK    7  A    between atoms: N_21  and  C_24
REMARK                            x       y       z     vdW  Elec       q    Type
REMARK                         _______ _______ _______ _____ _____    ______ ____
ROOT
ATOM      1  C   UNL     1       2.773   0.476  -4.921  0.00  0.00    -0.046 A 
ATOM      2  C   UNL     1       3.495   1.610  -4.571  0.00  0.00    +0.006 A 
ATOM      3  C   UNL     1       4.795   1.731  -5.027  0.00  0.00    +0.044 A 
ATOM      4  C   UNL     1       5.333   0.719  -5.816  0.00  0.00    +0.121 A 
ATOM      5  N   UNL     1       4.612  -0.347  -6.128  0.00  0.00    -0.240 NA
ATOM      6  C   UNL     1       3.371  -0.492  -5.703  0.00  0.00    +0.114 A 
ATOM      7  N   UNL     1       6.638   0.828  -6.282  0.00  0.00    -0.319 N 
ATOM      8  C   UNL     1       7.309  -0.311  -6.926  0.00  0.00    +0.088 C 
ATOM      9  C   UNL     1       7.907   0.165  -8.254  0.00  0.00    -0.060 C 
ATOM     10  N   UNL     1       8.777   1.322  -8.011  0.00  0.00    +0.380 N 
ATOM     11  C   UNL     1       7.982   2.450  -7.510  0.00  0.00    -0.060 C 
ATOM     12  C   UNL     1       7.385   2.088  -6.150  0.00  0.00    +0.088 C 
ATOM     13  C   UNL     1       9.436   1.709  -9.266  0.00  0.00    -0.096 C 
ATOM     14  H   UNL     1       9.478   1.077  -7.328  0.00  0.00    -0.082 HD
ENDROOT
BRANCH   1  15
ATOM     15  C   UNL     1       1.354   0.302  -4.447  0.00  0.00    -0.045 C 
BRANCH  15  16
ATOM     16  N   UNL     1       1.352  -0.393  -3.152  0.00  0.00    +0.385 N 
ATOM     17  H   UNL     1       1.867   0.152  -2.478  0.00  0.00    -0.085 HD
ATOM     18  H   UNL     1       1.785  -1.298  -3.255  0.00  0.00    -0.085 HD
BRANCH  16  19
ATOM     19  C   UNL     1      -0.032  -0.563  -2.690  0.00  0.00    -0.041 C 
BRANCH  19  22
ATOM     20  C   UNL     1       0.093   0.813   0.162  0.00  0.00    +0.068 C 
ATOM     21  C   UNL     1       0.020  -0.669  -0.103  0.00  0.00    +0.063 A 
ATOM     22  C   UNL     1      -0.035  -1.275  -1.362  0.00  0.00    -0.005 A 
ATOM     23  C   UNL     1      -0.091  -2.616  -1.177  0.00  0.00    +0.128 A 
ATOM     24  N   UNL     1      -0.072  -2.847   0.153  0.00  0.00    -0.256 N 
ATOM     25  N   UNL     1       0.003  -1.610   0.805  0.00  0.00    -0.175 NA
ATOM     26  C   UNL     1      -0.117  -4.161   0.800  0.00  0.00    +0.174 C 
ATOM     27 CL   UNL     1      -0.173  -3.819  -2.425  0.00  0.00    -0.062 Cl
ENDBRANCH  19  22
ENDBRANCH  16  19
ENDBRANCH  15  16
ENDBRANCH   1  15
TORSDOF 4
