REMARK  Name = ZINC00674183
REMARK  5 active torsions:
REMARK  status: ('A' for Active; 'I' for Inactive)
REMARK    1  A    between atoms: C_1  and  C_2
REMARK    2  A    between atoms: C_9  and  C_21
REMARK    3  A    between atoms: C_15  and  C_19
REMARK    4  A    between atoms: C_15  and  C_20
REMARK    5  A    between atoms: C_24  and  N_27
REMARK                            x       y       z     vdW  Elec       q    Type
REMARK                         _______ _______ _______ _____ _____    ______ ____
ROOT
ATOM      1  C   UNL     1      -3.370  -1.692   1.950  0.00  0.00    +0.044 C 
ATOM      2  C   UNL     1      -3.719  -0.561   1.017  0.00  0.00    -0.049 A 
ATOM      3  C   UNL     1      -4.303  -0.836  -0.206  0.00  0.00    +0.005 A 
ATOM      4  C   UNL     1      -4.649   0.196  -1.062  0.00  0.00    +0.025 A 
ATOM      5  C   UNL     1      -4.406   1.504  -0.680  0.00  0.00    +0.052 A 
ATOM      6  C   UNL     1      -3.784   1.779   0.528  0.00  0.00    +0.050 A 
ATOM      7  C   UNL     1      -3.455   0.745   1.390  0.00  0.00    +0.028 A 
ATOM      8  N   UNL     1      -3.494   3.107   0.838  0.00  0.00    -0.331 N 
ATOM      9  C   UNL     1      -2.553   3.869   0.045  0.00  0.00    +0.136 C 
ATOM     10  C   UNL     1      -2.983   4.109  -1.381  0.00  0.00    +0.036 C 
ATOM     11  C   UNL     1      -4.012   3.510  -2.007  0.00  0.00    +0.017 C 
ATOM     12  N   UNL     1      -4.831   2.590  -1.437  0.00  0.00    -0.316 N 
ATOM     13  C   UNL     1      -4.346   3.855  -3.448  0.00  0.00    +0.058 C 
ATOM     14  C   UNL     1      -3.072   4.220  -4.207  0.00  0.00    -0.023 C 
ATOM     15  C   UNL     1      -2.436   5.424  -3.501  0.00  0.00    +0.086 C 
ATOM     16  C   UNL     1      -2.190   5.059  -2.068  0.00  0.00    +0.163 C 
ATOM     17  O   UNL     1      -1.278   5.600  -1.473  0.00  0.00    -0.292 OA
ATOM     18  C   UNL     1      -2.102   3.037  -4.191  0.00  0.00    +0.011 C 
ATOM     19  C   UNL     1      -3.416   4.588  -5.652  0.00  0.00    +0.011 C 
ATOM     20  H   UNL     1      -3.931   3.527   1.596  0.00  0.00    +0.147 HD
ATOM     21  H   UNL     1      -5.786   2.699  -1.567  0.00  0.00    +0.152 HD
ENDROOT
BRANCH   9  22
ATOM     22  C   UNL     1      -1.238   3.133   0.030  0.00  0.00    -0.023 A 
ATOM     23  C   UNL     1      -0.098   3.744   0.519  0.00  0.00    +0.008 A 
ATOM     24  C   UNL     1       1.109   3.071   0.501  0.00  0.00    +0.033 A 
ATOM     25  C   UNL     1       1.175   1.783   0.002  0.00  0.00    +0.126 A 
ATOM     26  C   UNL     1       0.034   1.170  -0.483  0.00  0.00    +0.033 A 
ATOM     27  C   UNL     1      -1.172   1.845  -0.469  0.00  0.00    +0.008 A 
BRANCH  25  28
ATOM     28  N   UNL     1       2.466   1.060  -0.013  0.00  0.00    +0.056 N 
ATOM     29  O   UNL     1       3.471   1.600   0.415  0.00  0.00    -0.126 OA
ATOM     30  O   UNL     1       2.525  -0.074  -0.452  0.00  0.00    -0.126 OA
ENDBRANCH  25  28
ENDBRANCH   9  22
TORSDOF 2
