REMARK  Name = ZINC13169304
REMARK  7 active torsions:
REMARK  status: ('A' for Active; 'I' for Inactive)
REMARK    1  A    between atoms: C_3  and  S_22
REMARK    2  A    between atoms: C_6  and  C_7
REMARK    3  A    between atoms: C_8  and  C_9
REMARK    4  A    between atoms: N_11  and  C_12
REMARK    5  A    between atoms: C_14  and  C_20
REMARK    6  A    between atoms: C_16  and  C_18
REMARK    7  A    between atoms: S_22  and  N_25
REMARK                            x       y       z     vdW  Elec       q    Type
REMARK                         _______ _______ _______ _____ _____    ______ ____
ROOT
ATOM      1  C   UNL     1       1.549  -4.667  -1.758  0.00  0.00    +0.013 C 
ATOM      2  C   UNL     1       2.478  -4.398  -2.697  0.00  0.00    +0.068 C 
ENDROOT
BRANCH   1   8
ATOM      3  C   UNL     1      -0.620  -4.101  -0.677  0.00  0.00    +0.010 A 
ATOM      4  C   UNL     1      -1.745  -3.309  -0.584  0.00  0.00    +0.029 A 
ATOM      5  C   UNL     1      -1.920  -2.243  -1.450  0.00  0.00    +0.106 A 
ATOM      6  C   UNL     1      -0.971  -1.968  -2.420  0.00  0.00    +0.029 A 
ATOM      7  C   UNL     1       0.162  -2.747  -2.522  0.00  0.00    +0.010 A 
ATOM      8  C   UNL     1       0.345  -3.825  -1.651  0.00  0.00    -0.025 A 
BRANCH   5   9
ATOM      9  S   UNL     1      -3.360  -1.237  -1.323  0.00  0.00    +0.061 S 
ATOM     10  O   UNL     1      -4.358  -2.033  -0.698  0.00  0.00    -0.153 OA
ATOM     11  O   UNL     1      -3.552  -0.639  -2.598  0.00  0.00    -0.153 OA
BRANCH   9  12
ATOM     12  N   UNL     1      -3.008  -0.008  -0.271  0.00  0.00    -0.177 NA
ATOM     13  C   UNL     1      -2.453   1.225  -0.751  0.00  0.00    +0.109 C 
ATOM     14  C   UNL     1      -0.908   1.285  -0.846  0.00  0.00    +0.017 C 
ATOM     15  C   UNL     1      -0.271   0.613   0.395  0.00  0.00    +0.001 C 
ATOM     16  C   UNL     1      -1.052   0.936   1.635  0.00  0.00    +0.001 C 
ATOM     17  C   UNL     1      -1.964  -0.264   1.865  0.00  0.00    +0.017 C 
ATOM     18  C   UNL     1      -3.263  -0.166   1.200  0.00  0.00    +0.109 C 
ENDBRANCH   9  12
ENDBRANCH   5   9
ENDBRANCH   1   8
BRANCH   2  19
ATOM     19  C   UNL     1       3.674  -5.234  -2.803  0.00  0.00    +0.241 C 
ATOM     20  O   UNL     1       3.831  -6.172  -2.044  0.00  0.00    -0.270 OA
ATOM     21  N   UNL     1       4.603  -4.966  -3.742  0.00  0.00    -0.282 N 
ATOM     22  H   UNL     1       4.444  -4.267  -4.396  0.00  0.00    +0.155 HD
BRANCH  21  23
ATOM     23  C   UNL     1       5.797  -5.694  -3.774  0.00  0.00    +0.035 A 
ATOM     24  C   UNL     1       6.367  -6.141  -2.591  0.00  0.00    +0.038 A 
ATOM     25  C   UNL     1       7.556  -6.872  -2.619  0.00  0.00    +0.066 A 
ATOM     26  C   UNL     1       8.175  -7.145  -3.837  0.00  0.00    +0.030 A 
ATOM     27  C   UNL     1       7.603  -6.690  -5.024  0.00  0.00    +0.066 A 
ATOM     28  C   UNL     1       6.411  -5.964  -4.988  0.00  0.00    +0.038 A 
BRANCH  27  29
ATOM     29  C   UNL     1       8.256  -6.978  -6.318  0.00  0.00    +0.387 C 
ATOM     30  O   UNL     1       7.756  -6.582  -7.351  0.00  0.00    -0.241 OA
ATOM     31  O   UNL     1       9.406  -7.679  -6.351  0.00  0.00    -0.241 OA
ENDBRANCH  27  29
BRANCH  25  32
ATOM     32  C   UNL     1       8.159  -7.352  -1.358  0.00  0.00    +0.387 C 
ATOM     33  O   UNL     1       7.619  -7.114  -0.297  0.00  0.00    -0.241 OA
ATOM     34  O   UNL     1       9.309  -8.053  -1.386  0.00  0.00    -0.241 OA
ENDBRANCH  25  32
ENDBRANCH  21  23
ENDBRANCH   2  19
TORSDOF 7
