REMARK  Name = ZINC35372634
REMARK  10 active torsions:
REMARK  status: ('A' for Active; 'I' for Inactive)
REMARK    1  A    between atoms: C_1  and  C_2
REMARK    2  A    between atoms: C_2  and  N_3
REMARK    3  A    between atoms: C_10  and  C_26
REMARK    4  A    between atoms: C_11  and  S_13
REMARK    5  A    between atoms: S_13  and  C_14
REMARK    6  A    between atoms: C_14  and  C_15
REMARK    7  A    between atoms: N_17  and  C_18
REMARK    8  A    between atoms: C_21  and  C_25
REMARK    9  A    between atoms: C_23  and  C_24
REMARK   10  A    between atoms: C_29  and  C_32
REMARK                            x       y       z     vdW  Elec       q    Type
REMARK                         _______ _______ _______ _____ _____    ______ ____
ROOT
ATOM      1  N   UNL     1       0.630  -0.579   1.289  0.00  0.00    +0.380 N 
ATOM      2  C   UNL     1       2.025  -0.129   1.209  0.00  0.00    -0.075 C 
ATOM      3  C   UNL     1       2.776  -0.557   2.473  0.00  0.00    +0.035 C 
ATOM      4  C   UNL     1       2.725  -2.080   2.598  0.00  0.00    +0.150 C 
ATOM      5  C   UNL     1       1.271  -2.552   2.595  0.00  0.00    +0.035 C 
ATOM      6  C   UNL     1       0.579  -2.046   1.326  0.00  0.00    -0.075 C 
ATOM      7  N   UNL     1       3.458  -2.700   1.490  0.00  0.00    -0.251 NA
ATOM      8  C   UNL     1       4.424  -3.397   2.010  0.00  0.00    +0.100 C 
ATOM      9  C   UNL     1       4.383  -3.276   3.487  0.00  0.00    +0.120 C 
ATOM     10  N   UNL     1       3.392  -2.507   3.831  0.00  0.00    -0.246 NA
ATOM     11  H   UNL     1       0.207  -0.208   2.127  0.00  0.00    -0.082 HD
ENDROOT
BRANCH   8  12
ATOM     12  C   UNL     1       5.413  -4.191   1.245  0.00  0.00    +0.003 A 
ATOM     13  C   UNL     1       6.048  -5.281   1.841  0.00  0.00    +0.010 A 
ATOM     14  C   UNL     1       6.968  -6.016   1.122  0.00  0.00    +0.004 A 
ATOM     15  C   UNL     1       7.263  -5.674  -0.185  0.00  0.00    -0.050 A 
ATOM     16  C   UNL     1       6.637  -4.593  -0.781  0.00  0.00    +0.004 A 
ATOM     17  C   UNL     1       5.710  -3.854  -0.076  0.00  0.00    +0.010 A 
ATOM     18  C   UNL     1       8.269  -6.481  -0.964  0.00  0.00    +0.044 C 
ENDBRANCH   8  12
BRANCH   1  20
ATOM     19  C   UNL     1      -0.162   1.434   0.142  0.00  0.00    -0.017 C 
ATOM     20  C   UNL     1      -0.107  -0.095   0.115  0.00  0.00    -0.082 C 
ENDBRANCH   1  20
BRANCH   9  21
ATOM     21  S   UNL     1       5.503  -4.053   4.603  0.00  0.00    -0.095 S 
BRANCH  21  22
ATOM     22  C   UNL     1       4.931  -3.522   6.240  0.00  0.00    +0.172 C 
BRANCH  22  23
ATOM     23  C   UNL     1       5.815  -4.124   7.301  0.00  0.00    +0.227 C 
ATOM     24  O   UNL     1       6.740  -4.841   6.984  0.00  0.00    -0.275 OA
ATOM     25  N   UNL     1       5.578  -3.865   8.603  0.00  0.00    -0.285 N 
ATOM     26  H   UNL     1       4.804  -3.340   8.859  0.00  0.00    +0.155 HD
BRANCH  25  27
ATOM     27  C   UNL     1       6.447  -4.355   9.583  0.00  0.00    +0.036 A 
ATOM     28  C   UNL     1       7.207  -5.491   9.335  0.00  0.00    +0.024 A 
ATOM     29  C   UNL     1       8.065  -5.972  10.304  0.00  0.00    +0.005 A 
ATOM     30  C   UNL     1       8.167  -5.324  11.522  0.00  0.00    -0.050 A 
ATOM     31  C   UNL     1       7.411  -4.194  11.773  0.00  0.00    +0.008 A 
ATOM     32  C   UNL     1       6.557  -3.704  10.804  0.00  0.00    -0.029 A 
ATOM     33  C   UNL     1       5.739  -2.467  11.076  0.00  0.00    +0.045 C 
ATOM     34  C   UNL     1       9.103  -5.852  12.578  0.00  0.00    +0.044 C 
ENDBRANCH  25  27
ENDBRANCH  22  23
ENDBRANCH  21  22
ENDBRANCH   9  21
TORSDOF 6
