REMARK  Name = ZINC34869014
REMARK  10 active torsions:
REMARK  status: ('A' for Active; 'I' for Inactive)
REMARK    1  A    between atoms: C_1  and  C_2
REMARK    2  A    between atoms: C_3  and  C_33
REMARK    3  A    between atoms: C_4  and  N_32
REMARK    4  A    between atoms: C_9  and  C_10
REMARK    5  A    between atoms: C_15  and  O_16
REMARK    6  A    between atoms: O_16  and  C_17
REMARK    7  A    between atoms: C_17  and  C_18
REMARK    8  A    between atoms: C_21  and  C_24
REMARK    9  A    between atoms: C_27  and  C_31
REMARK   10  A    between atoms: C_28  and  C_29
REMARK                            x       y       z     vdW  Elec       q    Type
REMARK                         _______ _______ _______ _____ _____    ______ ____
ROOT
ATOM      1  C   UNL     1      -1.387   0.954   0.338  0.00  0.00    +0.046 C 
ATOM      2  C   UNL     1      -0.196   0.062   0.097  0.00  0.00    -0.020 A 
ATOM      3  C   UNL     1      -0.067  -0.658  -1.096  0.00  0.00    +0.095 A 
ATOM      4  C   UNL     1       1.062  -1.480  -1.281  0.00  0.00    +0.135 A 
ATOM      5  N   UNL     1       1.993  -1.577  -0.349  0.00  0.00    -0.230 NA
ATOM      6  C   UNL     1       1.907  -0.908   0.798  0.00  0.00    +0.092 A 
ATOM      7  C   UNL     1       0.807  -0.061   1.050  0.00  0.00    +0.013 A 
ATOM      8  C   UNL     1       1.013   0.531   2.387  0.00  0.00    -0.011 C 
ATOM      9  C   UNL     1       0.166   1.418   3.026  0.00  0.00    +0.020 C 
ATOM     10  C   UNL     1       2.231   0.029   2.896  0.00  0.00    -0.023 C 
ATOM     11  C   UNL     1       2.786  -0.839   1.978  0.00  0.00    +0.081 C 
ATOM     12  C   UNL     1       2.825   0.377   4.237  0.00  0.00    +0.046 C 
ENDROOT
BRANCH   9  13
ATOM     13  C   UNL     1       0.361   1.724   4.442  0.00  0.00    +0.017 A 
ATOM     14  C   UNL     1       0.509   0.688   5.375  0.00  0.00    +0.011 A 
ATOM     15  C   UNL     1       0.693   0.986   6.706  0.00  0.00    +0.001 A 
ATOM     16  C   UNL     1       0.732   2.306   7.130  0.00  0.00    +0.004 A 
ATOM     17  C   UNL     1       0.587   3.338   6.224  0.00  0.00    +0.046 A 
ATOM     18  C   UNL     1       0.408   3.062   4.878  0.00  0.00    +0.128 A 
BRANCH  18  19
ATOM     19  O   UNL     1       0.272   4.075   3.986  0.00  0.00    -0.487 OA
BRANCH  19  20
ATOM     20  C   UNL     1       0.330   5.406   4.503  0.00  0.00    +0.264 C 
BRANCH  20  21
ATOM     21  C   UNL     1       0.162   6.390   3.375  0.00  0.00    -0.010 A 
ATOM     22  C   UNL     1       1.273   6.849   2.689  0.00  0.00    +0.008 A 
ATOM     23  C   UNL     1       1.127   7.750   1.655  0.00  0.00    +0.015 A 
ATOM     24  C   UNL     1      -0.148   8.200   1.301  0.00  0.00    +0.063 A 
ATOM     25  C   UNL     1      -1.265   7.733   1.998  0.00  0.00    +0.015 A 
ATOM     26  C   UNL     1      -1.104   6.828   3.025  0.00  0.00    +0.008 A 
BRANCH  24  27
ATOM     27  C   UNL     1      -0.313   9.165   0.197  0.00  0.00    +0.387 C 
ATOM     28  O   UNL     1       0.667   9.572  -0.410  0.00  0.00    -0.241 OA
ATOM     29  O   UNL     1      -1.429   9.557  -0.111  0.00  0.00    -0.241 OA
ENDBRANCH  24  27
ENDBRANCH  20  21
ENDBRANCH  19  20
ENDBRANCH  18  19
ENDBRANCH   9  13
BRANCH   4  30
ATOM     30  N   UNL     1       1.198  -2.197  -2.458  0.00  0.00    -0.342 N 
ATOM     31  H   UNL     1       0.519  -2.131  -3.147  0.00  0.00    +0.144 HD
ATOM     32  H   UNL     1       1.973  -2.764  -2.593  0.00  0.00    +0.144 HD
ENDBRANCH   4  30
BRANCH  11  33
ATOM     33  C   UNL     1       4.022  -1.544   2.139  0.00  0.00    +0.102 C 
ATOM     34  N   UNL     1       5.002  -2.103   2.267  0.00  0.00    -0.191 NA
ENDBRANCH  11  33
BRANCH   3  35
ATOM     35  C   UNL     1      -1.070  -0.562  -2.114  0.00  0.00    +0.103 C 
ATOM     36  N   UNL     1      -1.865  -0.486  -2.921  0.00  0.00    -0.191 NA
ENDBRANCH   3  35
TORSDOF 8
