REMARK  Name = ZINC46772785
REMARK  10 active torsions:
REMARK  status: ('A' for Active; 'I' for Inactive)
REMARK    1  A    between atoms: C_1  and  C_2
REMARK    2  A    between atoms: C_5  and  C_8
REMARK    3  A    between atoms: C_8  and  N_9
REMARK    4  A    between atoms: N_12  and  C_13
REMARK    5  A    between atoms: C_13  and  C_14
REMARK    6  A    between atoms: N_16  and  N_17
REMARK    7  A    between atoms: N_17  and  C_18
REMARK    8  A    between atoms: C_18  and  N_20
REMARK    9  A    between atoms: N_20  and  C_21
REMARK   10  A    between atoms: C_26  and  C_27
REMARK                            x       y       z     vdW  Elec       q    Type
REMARK                         _______ _______ _______ _____ _____    ______ ____
ROOT
ATOM      1  C   UNL     1       4.872  -8.109  -0.097  0.00  0.00    +0.246 C 
ATOM      2  O   UNL     1       5.592  -7.199   0.256  0.00  0.00    -0.273 OA
ATOM      3  N   UNL     1       5.337  -9.374  -0.103  0.00  0.00    -0.234 N 
ATOM      4  H   UNL     1       4.761 -10.102  -0.385  0.00  0.00    +0.173 HD
ENDROOT
BRANCH   3   5
ATOM      5  N   UNL     1       6.653  -9.638   0.300  0.00  0.00    -0.246 N 
ATOM      6  H   UNL     1       7.229  -8.910   0.583  0.00  0.00    +0.172 HD
BRANCH   5   7
ATOM      7  C   UNL     1       7.119 -10.903   0.295  0.00  0.00    +0.151 C 
ATOM      8  S   UNL     1       8.726 -11.225   0.787  0.00  0.00    -0.017 S 
BRANCH   7   9
ATOM      9  N   UNL     1       6.318 -11.914  -0.098  0.00  0.00    -0.295 N 
ATOM     10  H   UNL     1       5.385 -11.743  -0.300  0.00  0.00    +0.154 HD
BRANCH   9  11
ATOM     11  C   UNL     1       6.833 -13.209  -0.213  0.00  0.00    +0.044 A 
ATOM     12  C   UNL     1       8.062 -13.418  -0.827  0.00  0.00    +0.024 A 
ATOM     13  C   UNL     1       8.568 -14.697  -0.940  0.00  0.00    +0.002 A 
ATOM     14  C   UNL     1       7.852 -15.771  -0.442  0.00  0.00    +0.001 A 
ATOM     15  C   UNL     1       6.629 -15.568   0.169  0.00  0.00    +0.014 A 
ATOM     16  C   UNL     1       6.121 -14.289   0.291  0.00  0.00    +0.076 A 
BRANCH  16  17
ATOM     17  C   UNL     1       4.790 -14.067   0.963  0.00  0.00    +0.419 C 
ATOM     18  F   UNL     1       4.270 -15.295   1.384  0.00  0.00    -0.166 F 
ATOM     19  F   UNL     1       4.962 -13.229   2.071  0.00  0.00    -0.166 F 
ATOM     20  F   UNL     1       3.905 -13.470   0.060  0.00  0.00    -0.166 F 
ENDBRANCH  16  17
ENDBRANCH   9  11
ENDBRANCH   7   9
ENDBRANCH   5   7
ENDBRANCH   3   5
BRANCH   1  21
ATOM     21  C   UNL     1       3.457  -7.825  -0.530  0.00  0.00    +0.203 C 
BRANCH  21  25
ATOM     22  N   UNL     1       1.747  -4.574  -0.687  0.00  0.00    -0.295 N 
ATOM     23  C   UNL     1       1.987  -5.897  -0.774  0.00  0.00    +0.300 C 
ATOM     24  O   UNL     1       1.113  -6.649  -1.159  0.00  0.00    -0.253 OA
ATOM     25  N   UNL     1       3.196  -6.387  -0.435  0.00  0.00    -0.291 N 
ATOM     26  H   UNL     1       2.445  -3.974  -0.380  0.00  0.00    +0.151 HD
ATOM     27  H   UNL     1       3.894  -5.787  -0.129  0.00  0.00    +0.151 HD
BRANCH  22  28
ATOM     28  C   UNL     1       0.433  -4.042  -1.055  0.00  0.00    +0.141 C 
BRANCH  28  33
ATOM     29  C   UNL     1       0.405   1.693  -0.342  0.00  0.00    +0.044 C 
ATOM     30  C   UNL     1       0.412   0.197  -0.528  0.00  0.00    -0.050 A 
ATOM     31  C   UNL     1       0.790  -0.346  -1.741  0.00  0.00    +0.003 A 
ATOM     32  C   UNL     1       0.797  -1.718  -1.912  0.00  0.00    +0.005 A 
ATOM     33  C   UNL     1       0.426  -2.546  -0.869  0.00  0.00    -0.030 A 
ATOM     34  C   UNL     1       0.049  -2.002   0.345  0.00  0.00    +0.005 A 
ATOM     35  C   UNL     1       0.046  -0.631   0.517  0.00  0.00    +0.003 A 
ENDBRANCH  28  33
ENDBRANCH  22  28
ENDBRANCH  21  25
ENDBRANCH   1  21
TORSDOF 9
