REMARK  Name = ZINC09891887
REMARK  4 active torsions:
REMARK  status: ('A' for Active; 'I' for Inactive)
REMARK    1  A    between atoms: N_9  and  C_11
REMARK    2  A    between atoms: C_13  and  N_20
REMARK    3  A    between atoms: C_16  and  N_17
REMARK    4  A    between atoms: C_26  and  C_28
REMARK                            x       y       z     vdW  Elec       q    Type
REMARK                         _______ _______ _______ _____ _____    ______ ____
ROOT
ATOM      1  C   UNL     1       2.990  -0.094   2.210  0.00  0.00    +0.062 A 
ATOM      2  C   UNL     1       1.669  -0.244   1.811  0.00  0.00    +0.048 A 
ATOM      3  C   UNL     1       1.216  -1.480   1.370  0.00  0.00    +0.032 A 
ATOM      4  C   UNL     1       2.087  -2.563   1.329  0.00  0.00    +0.025 A 
ATOM      5  C   UNL     1       3.401  -2.410   1.726  0.00  0.00    +0.036 A 
ATOM      6  C   UNL     1       3.855  -1.181   2.166  0.00  0.00    +0.147 A 
ENDROOT
BRANCH   1  15
ATOM      7  C   UNL     1       4.423   6.046   3.020  0.00  0.00    +0.000 A 
ATOM      8  C   UNL     1       4.308   5.794   1.665  0.00  0.00    +0.000 A 
ATOM      9  C   UNL     1       3.940   4.537   1.230  0.00  0.00    +0.005 A 
ATOM     10  C   UNL     1       3.684   3.525   2.143  0.00  0.00    -0.027 A 
ATOM     11  C   UNL     1       3.803   3.776   3.493  0.00  0.00    -0.041 A 
ATOM     12  C   UNL     1       4.171   5.039   3.930  0.00  0.00    +0.004 A 
ATOM     13  C   UNL     1       3.541   2.707   4.523  0.00  0.00    +0.054 C 
ATOM     14  C   UNL     1       2.762   1.553   3.891  0.00  0.00    +0.110 C 
ATOM     15  N   UNL     1       3.449   1.148   2.654  0.00  0.00    -0.323 N 
ATOM     16  C   UNL     1       3.277   2.172   1.619  0.00  0.00    +0.140 C 
ENDBRANCH   1  15
BRANCH   3  17
ATOM     17  N   UNL     1      -0.112  -1.635   0.968  0.00  0.00    -0.327 N 
ATOM     18  C   UNL     1      -1.036  -1.221   2.032  0.00  0.00    +0.124 C 
ATOM     19  C   UNL     1      -2.470  -1.234   1.492  0.00  0.00    +0.127 C 
ATOM     20  N   UNL     1      -2.740  -2.559   0.915  0.00  0.00    -0.295 N 
ATOM     21  C   UNL     1      -1.782  -3.102  -0.060  0.00  0.00    +0.127 C 
ATOM     22  C   UNL     1      -0.375  -3.016   0.541  0.00  0.00    +0.124 C 
ATOM     23  C   UNL     1      -3.837  -3.257   1.269  0.00  0.00    +0.247 C 
ATOM     24  O   UNL     1      -4.076  -4.325   0.738  0.00  0.00    -0.270 OA
BRANCH  23  25
ATOM     25  C   UNL     1      -4.750  -2.725   2.303  0.00  0.00    +0.038 A 
ATOM     26  C   UNL     1      -4.942  -1.348   2.427  0.00  0.00    +0.013 A 
ATOM     27  C   UNL     1      -5.800  -0.858   3.389  0.00  0.00    +0.002 A 
ATOM     28  C   UNL     1      -6.461  -1.727   4.239  0.00  0.00    +0.015 A 
ATOM     29  C   UNL     1      -6.271  -3.094   4.126  0.00  0.00    +0.019 A 
ATOM     30  C   UNL     1      -5.420  -3.597   3.163  0.00  0.00    +0.028 A 
ATOM     31 BR   UNL     1      -7.179  -4.273   5.293  0.00  0.00    -0.050 Br
ENDBRANCH  23  25
ENDBRANCH   3  17
BRANCH   6  32
ATOM     32  N   UNL     1       5.264  -1.021   2.590  0.00  0.00    +0.058 N 
ATOM     33  O   UNL     1       6.046  -1.946   2.462  0.00  0.00    -0.126 OA
ATOM     34  O   UNL     1       5.640   0.034   3.067  0.00  0.00    -0.126 OA
ENDBRANCH   6  32
TORSDOF 4
