REMARK  Name = ZINC14237541
REMARK  6 active torsions:
REMARK  status: ('A' for Active; 'I' for Inactive)
REMARK    1  A    between atoms: C_1  and  C_2
REMARK    2  A    between atoms: C_5  and  O_27
REMARK    3  A    between atoms: C_10  and  C_11
REMARK    4  A    between atoms: C_19  and  S_23
REMARK    5  A    between atoms: S_23  and  N_26
REMARK    6  A    between atoms: O_27  and  C_28
REMARK                            x       y       z     vdW  Elec       q    Type
REMARK                         _______ _______ _______ _____ _____    ______ ____
ROOT
ATOM      1  C   UNL     1      -1.140   4.906   0.037  0.00  0.00    +0.285 C 
ATOM      2  O   UNL     1      -2.356   4.956   0.048  0.00  0.00    -0.266 OA
ATOM      3  N   UNL     1      -0.419   6.044   0.037  0.00  0.00    -0.258 N 
ATOM      4  C   UNL     1      -1.060   7.270   0.049  0.00  0.00    +0.166 A 
ATOM      5  N   UNL     1      -2.348   7.526   0.062  0.00  0.00    -0.225 NA
ATOM      6  C   UNL     1      -2.839   8.784   0.072  0.00  0.00    +0.080 A 
ATOM      7  C   UNL     1      -4.192   9.193   0.087  0.00  0.00    +0.031 A 
ATOM      8  C   UNL     1      -4.521  10.524   0.097  0.00  0.00    +0.030 A 
ATOM      9  C   UNL     1      -3.547  11.511   0.093  0.00  0.00    +0.106 A 
ATOM     10  C   UNL     1      -2.213  11.147   0.078  0.00  0.00    +0.045 A 
ATOM     11  C   UNL     1      -1.874   9.817   0.069  0.00  0.00    +0.043 A 
ATOM     12  S   UNL     1      -0.347   8.909   0.058  0.00  0.00    -0.052 S 
ATOM     13  H   UNL     1       0.550   6.004   0.028  0.00  0.00    +0.157 HD
ENDROOT
BRANCH   1  23
ATOM     14  C   UNL     1      -2.566   2.142   0.024  0.00  0.00    +0.048 C 
ATOM     15  C   UNL     1      -1.081   2.396   0.019  0.00  0.00    +0.008 A 
ATOM     16  C   UNL     1      -0.017   1.393   0.010  0.00  0.00    +0.027 A 
ATOM     17  C   UNL     1       0.002  -0.004   0.002  0.00  0.00    +0.057 A 
ATOM     18  C   UNL     1       1.212  -0.668  -0.013  0.00  0.00    +0.121 A 
ATOM     19  C   UNL     1       2.405   0.050  -0.021  0.00  0.00    +0.049 A 
ATOM     20  C   UNL     1       2.397   1.427  -0.014  0.00  0.00    +0.050 A 
ATOM     21  C   UNL     1       1.190   2.116   0.002  0.00  0.00    +0.136 A 
ATOM     22  O   UNL     1       0.879   3.428   0.011  0.00  0.00    -0.450 OA
ATOM     23  C   UNL     1      -0.459   3.604   0.025  0.00  0.00    +0.194 A 
BRANCH  18  24
ATOM     24  O   UNL     1       1.239  -2.028  -0.020  0.00  0.00    -0.495 OA
ATOM     25  C   UNL     1       2.525  -2.651  -0.036  0.00  0.00    +0.277 C 
ENDBRANCH  18  24
ENDBRANCH   1  23
BRANCH   9  26
ATOM     26  S   UNL     1      -4.005  13.213   0.106  0.00  0.00    +0.056 S 
ATOM     27  O   UNL     1      -5.307  13.278   0.670  0.00  0.00    -0.153 OA
ATOM     28  O   UNL     1      -2.902  13.926   0.651  0.00  0.00    -0.153 OA
BRANCH  26  29
ATOM     29  N   UNL     1      -4.146  13.694  -1.472  0.00  0.00    -0.204 NA
ATOM     30  H   UNL     1      -3.982  13.062  -2.188  0.00  0.00    +0.144 HD
ATOM     31  H   UNL     1      -4.394  14.609  -1.679  0.00  0.00    +0.144 HD
ENDBRANCH  26  29
ENDBRANCH   9  26
TORSDOF 4
