REMARK  Name = ZINC13576679
REMARK  9 active torsions:
REMARK  status: ('A' for Active; 'I' for Inactive)
REMARK    1  A    between atoms: C_1  and  C_2
REMARK    2  A    between atoms: C_2  and  C_3
REMARK    3  A    between atoms: C_3  and  C_4
REMARK    4  A    between atoms: C_4  and  N_5
REMARK    5  A    between atoms: C_7  and  C_13
REMARK    6  A    between atoms: N_26  and  C_30
REMARK    7  A    between atoms: C_30  and  C_31
REMARK    8  A    between atoms: C_31  and  C_32
REMARK    9  A    between atoms: C_32  and  C_33
REMARK                            x       y       z     vdW  Elec       q    Type
REMARK                         _______ _______ _______ _____ _____    ______ ____
ROOT
ATOM      1  C   UNL     1      -5.409  -3.547   2.513  0.00  0.00    +0.104 C 
ATOM      2  C   UNL     1      -5.786  -5.003   2.583  0.00  0.00    +0.010 A 
ATOM      3  C   UNL     1      -4.813  -5.942   2.877  0.00  0.00    +0.028 A 
ATOM      4  C   UNL     1      -5.139  -7.284   2.945  0.00  0.00    +0.043 A 
ATOM      5  C   UNL     1      -6.442  -7.692   2.719  0.00  0.00    +0.043 A 
ATOM      6  C   UNL     1      -7.416  -6.758   2.426  0.00  0.00    +0.085 A 
ATOM      7  C   UNL     1      -7.090  -5.407   2.356  0.00  0.00    +0.153 A 
ATOM      8  O   UNL     1      -8.061  -4.507   2.064  0.00  0.00    -0.436 OA
ATOM      9  C   UNL     1      -7.892  -3.204   2.368  0.00  0.00    +0.234 A 
ATOM     10  C   UNL     1      -6.638  -2.687   2.593  0.00  0.00    +0.091 A 
ATOM     11  C   UNL     1      -6.517  -1.325   2.901  0.00  0.00    +0.264 A 
ATOM     12  O   UNL     1      -5.421  -0.829   3.107  0.00  0.00    -0.267 OA
ATOM     13  N   UNL     1      -7.635  -0.572   2.966  0.00  0.00    -0.259 N 
ATOM     14  C   UNL     1      -8.849  -1.137   2.734  0.00  0.00    +0.354 A 
ATOM     15  N   UNL     1      -8.963  -2.402   2.449  0.00  0.00    -0.157 NA
ATOM     16  O   UNL     1      -9.957  -0.372   2.803  0.00  0.00    -0.244 OA
ATOM     17 CL   UNL     1      -9.050  -7.271   2.143  0.00  0.00    -0.080 Cl
ATOM     18 CL   UNL     1      -3.913  -8.457   3.313  0.00  0.00    -0.083 Cl
ENDROOT
BRANCH   1  21
ATOM     19  N   UNL     1      -2.787  -2.571   0.015  0.00  0.00    -0.261 N 
ATOM     20  C   UNL     1      -3.417  -2.808   1.210  0.00  0.00    +0.264 A 
ATOM     21  C   UNL     1      -4.696  -3.279   1.213  0.00  0.00    +0.094 A 
ATOM     22  C   UNL     1      -5.341  -3.512  -0.015  0.00  0.00    +0.262 A 
ATOM     23  O   UNL     1      -6.484  -3.933  -0.037  0.00  0.00    -0.267 OA
ATOM     24  N   UNL     1      -4.686  -3.266  -1.167  0.00  0.00    -0.274 N 
ATOM     25  C   UNL     1      -3.425  -2.796  -1.148  0.00  0.00    +0.332 A 
ATOM     26  O   UNL     1      -2.853  -2.575  -2.198  0.00  0.00    -0.246 OA
ATOM     27  O   UNL     1      -2.775  -2.576   2.375  0.00  0.00    -0.267 OA
ATOM     28  H   UNL     1      -5.128  -3.425  -2.015  0.00  0.00    +0.173 HD
BRANCH  19  29
ATOM     29  C   UNL     1      -1.413  -2.063   0.004  0.00  0.00    +0.130 C 
BRANCH  29  30
ATOM     30  C   UNL     1      -1.433  -0.534   0.013  0.00  0.00    +0.022 C 
BRANCH  30  32
ATOM     31  C   UNL     1      -0.019   1.526   0.010  0.00  0.00    +0.004 C 
ATOM     32  C   UNL     1       0.002  -0.004   0.002  0.00  0.00    -0.002 C 
ENDBRANCH  30  32
ENDBRANCH  29  30
ENDBRANCH  19  29
ENDBRANCH   1  21
BRANCH  13  33
ATOM     33  C   UNL     1      -7.541   0.854   3.287  0.00  0.00    +0.130 C 
BRANCH  33  34
ATOM     34  C   UNL     1      -7.382   1.658   1.994  0.00  0.00    +0.022 C 
BRANCH  34  35
ATOM     35  C   UNL     1      -7.283   3.148   2.329  0.00  0.00    -0.002 C 
ATOM     36  C   UNL     1      -7.125   3.951   1.036  0.00  0.00    +0.004 C 
ENDBRANCH  34  35
ENDBRANCH  33  34
ENDBRANCH  13  33
TORSDOF 7
