REMARK  Name = ZINC47962648
REMARK  8 active torsions:
REMARK  status: ('A' for Active; 'I' for Inactive)
REMARK    1  A    between atoms: C_1  and  C_2
REMARK    2  A    between atoms: C_2  and  C_27
REMARK    3  A    between atoms: C_4  and  N_10
REMARK    4  A    between atoms: C_6  and  C_8
REMARK    5  A    between atoms: C_6  and  C_9
REMARK    6  A    between atoms: C_11  and  C_13
REMARK    7  A    between atoms: N_15  and  C_16
REMARK    8  A    between atoms: C_17  and  C_25
REMARK                            x       y       z     vdW  Elec       q    Type
REMARK                         _______ _______ _______ _____ _____    ______ ____
ROOT
ATOM      1  N   UNL     1       2.615  -0.819  -2.626  0.00  0.00    -0.305 N 
ATOM      2  C   UNL     1       3.770  -0.334  -3.123  0.00  0.00    +0.300 C 
ATOM      3  O   UNL     1       4.375   0.530  -2.523  0.00  0.00    -0.265 OA
ATOM      4  H   UNL     1       2.133  -1.510  -3.106  0.00  0.00    +0.149 HD
ENDROOT
BRANCH   1   8
ATOM      5  C   UNL     1      -0.019   1.528   0.010  0.00  0.00    -0.010 C 
ATOM      6  C   UNL     1       0.002  -0.004   0.002  0.00  0.00    -0.072 C 
ATOM      7  C   UNL     1       0.573  -0.505  -1.321  0.00  0.00    +0.009 C 
ATOM      8  C   UNL     1       2.088  -0.301  -1.357  0.00  0.00    +0.071 C 
ATOM      9  C   UNL     1       2.703  -1.086  -0.198  0.00  0.00    +0.009 C 
ATOM     10  C   UNL     1       2.147  -0.590   1.133  0.00  0.00    -0.072 C 
ATOM     11  N   UNL     1       0.697  -0.529   1.164  0.00  0.00    +0.386 N 
ATOM     12  C   UNL     1       2.769   0.766   1.481  0.00  0.00    -0.010 C 
ATOM     13  C   UNL     1       2.600  -1.589   2.223  0.00  0.00    -0.010 C 
ATOM     14  C   UNL     1      -1.468  -0.478   0.079  0.00  0.00    -0.010 C 
ATOM     15  H   UNL     1       0.416   0.021   1.982  0.00  0.00    -0.084 HD
ATOM     16  H   UNL     1       0.341  -1.472   1.351  0.00  0.00    -0.084 HD
ENDBRANCH   1   8
BRANCH   2  17
ATOM     17  C   UNL     1       4.307  -0.861  -4.413  0.00  0.00    +0.304 C 
ATOM     18  O   UNL     1       3.702  -1.725  -5.014  0.00  0.00    -0.265 OA
ATOM     19  N   UNL     1       5.462  -0.376  -4.911  0.00  0.00    -0.271 N 
ATOM     20  H   UNL     1       5.944   0.315  -4.431  0.00  0.00    +0.156 HD
BRANCH  19  21
ATOM     21  C   UNL     1       5.959  -0.864  -6.108  0.00  0.00    +0.090 A 
ATOM     22  C   UNL     1       7.121  -0.506  -6.780  0.00  0.00    +0.084 A 
ATOM     23  C   UNL     1       7.415  -1.179  -8.032  0.00  0.00    -0.018 A 
ATOM     24  C   UNL     1       6.519  -2.107  -8.437  0.00  0.00    -0.004 A 
ATOM     25  S   UNL     1       5.275  -2.119  -7.175  0.00  0.00    -0.077 S 
ATOM     26  C   UNL     1       6.575  -2.942  -9.680  0.00  0.00    +0.043 C 
ATOM     27  C   UNL     1       7.618  -2.330 -10.627  0.00  0.00    +0.005 C 
ATOM     28  C   UNL     1       8.895  -2.043  -9.832  0.00  0.00    +0.005 C 
ATOM     29  C   UNL     1       8.657  -0.881  -8.868  0.00  0.00    +0.037 C 
BRANCH  22  30
ATOM     30  C   UNL     1       8.000   0.495  -6.255  0.00  0.00    +0.102 C 
ATOM     31  N   UNL     1       8.698   1.289  -5.838  0.00  0.00    -0.191 NA
ENDBRANCH  22  30
ENDBRANCH  19  21
ENDBRANCH   2  17
TORSDOF 4
