REMARK  Name = ZINC40010666
REMARK  8 active torsions:
REMARK  status: ('A' for Active; 'I' for Inactive)
REMARK    1  A    between atoms: C_1  and  C_2
REMARK    2  A    between atoms: C_7  and  C_15
REMARK    3  A    between atoms: C_13  and  C_14
REMARK    4  A    between atoms: C_19  and  O_36
REMARK    5  A    between atoms: C_20  and  O_34
REMARK    6  A    between atoms: C_26  and  C_28
REMARK    7  A    between atoms: O_34  and  C_35
REMARK    8  A    between atoms: O_36  and  C_37
REMARK                            x       y       z     vdW  Elec       q    Type
REMARK                         _______ _______ _______ _____ _____    ______ ____
ROOT
ATOM      1  C   UNL     1      -1.538  -6.188   1.168  0.00  0.00    +0.123 C 
ATOM      2  C   UNL     1      -1.770  -7.271   0.144  0.00  0.00    -0.019 A 
ATOM      3  C   UNL     1      -2.246  -6.889  -1.104  0.00  0.00    +0.055 A 
ATOM      4  C   UNL     1      -2.469  -7.832  -2.089  0.00  0.00    +0.162 A 
ATOM      5  C   UNL     1      -2.213  -9.175  -1.826  0.00  0.00    +0.162 A 
ATOM      6  C   UNL     1      -1.743  -9.550  -0.581  0.00  0.00    +0.053 A 
ATOM      7  C   UNL     1      -1.525  -8.600   0.409  0.00  0.00    -0.037 A 
ATOM      8  C   UNL     1      -1.038  -9.089   1.748  0.00  0.00    +0.054 C 
ATOM      9  C   UNL     1      -0.399  -7.952   2.544  0.00  0.00    +0.113 C 
ATOM     10  N   UNL     1      -1.305  -6.793   2.483  0.00  0.00    -0.289 N 
ATOM     11  C   UNL     1      -1.895  -6.308   3.593  0.00  0.00    +0.247 C 
ATOM     12  O   UNL     1      -1.592  -6.747   4.684  0.00  0.00    -0.270 OA
ENDROOT
BRANCH   1  19
ATOM     13  C   UNL     1      -0.294   1.020  -0.479  0.00  0.00    +0.044 C 
ATOM     14  C   UNL     1      -0.385  -0.484  -0.476  0.00  0.00    -0.046 A 
ATOM     15  C   UNL     1      -0.771  -1.134  -1.648  0.00  0.00    +0.004 A 
ATOM     16  C   UNL     1      -0.871  -2.487  -1.707  0.00  0.00    +0.010 A 
ATOM     17  C   UNL     1      -0.565  -3.270  -0.509  0.00  0.00    -0.007 A 
ATOM     18  C   UNL     1      -0.652  -4.630  -0.521  0.00  0.00    -0.003 C 
ATOM     19  C   UNL     1      -0.316  -5.360   0.765  0.00  0.00    +0.123 C 
ATOM     20  C   UNL     1       0.087  -4.519   1.956  0.00  0.00    +0.226 C 
ATOM     21  O   UNL     1       0.368  -5.053   3.012  0.00  0.00    -0.275 OA
ATOM     22  N   UNL     1       0.134  -3.203   1.844  0.00  0.00    -0.284 N 
ATOM     23  C   UNL     1      -0.160  -2.557   0.715  0.00  0.00    +0.043 A 
ATOM     24  C   UNL     1      -0.083  -1.153   0.668  0.00  0.00    -0.026 A 
ATOM     25  C   UNL     1       0.332  -0.385   1.896  0.00  0.00    +0.046 C 
ATOM     26  H   UNL     1       0.395  -2.682   2.619  0.00  0.00    +0.155 HD
ENDBRANCH   1  19
BRANCH  11  27
ATOM     27  C   UNL     1      -2.915  -5.239   3.482  0.00  0.00    +0.040 A 
ATOM     28  C   UNL     1      -2.767  -4.197   2.562  0.00  0.00    +0.033 A 
ATOM     29  C   UNL     1      -3.742  -3.221   2.492  0.00  0.00    +0.111 A 
ATOM     30  N   UNL     1      -4.801  -3.265   3.277  0.00  0.00    -0.263 NA
ATOM     31  C   UNL     1      -4.979  -4.229   4.157  0.00  0.00    +0.111 A 
ATOM     32  C   UNL     1      -4.056  -5.248   4.290  0.00  0.00    +0.033 A 
ENDBRANCH  11  27
BRANCH   5  33
ATOM     33  O   UNL     1      -2.424 -10.113  -2.788  0.00  0.00    -0.491 OA
ATOM     34  C   UNL     1      -2.138 -11.470  -2.445  0.00  0.00    +0.277 C 
ENDBRANCH   5  33
BRANCH   4  35
ATOM     35  O   UNL     1      -2.937  -7.451  -3.308  0.00  0.00    -0.491 OA
ATOM     36  C   UNL     1      -3.178  -6.056  -3.503  0.00  0.00    +0.277 C 
ENDBRANCH   4  35
TORSDOF 4
