REMARK  Name = ZINC09882936
REMARK  5 active torsions:
REMARK  status: ('A' for Active; 'I' for Inactive)
REMARK    1  A    between atoms: C_9  and  C_12
REMARK    2  A    between atoms: C_10  and  O_11
REMARK    3  A    between atoms: C_12  and  N_46
REMARK    4  A    between atoms: N_15  and  S_18
REMARK    5  A    between atoms: S_18  and  C_21
REMARK                            x       y       z     vdW  Elec       q    Type
REMARK                         _______ _______ _______ _____ _____    ______ ____
ROOT
ATOM      1  C   UNL     1      -4.468   4.791   1.997  0.00  0.00    -0.061 C 
ATOM      2  C   UNL     1      -4.809   4.965   3.480  0.00  0.00    +0.091 C 
ATOM      3  N   UNL     1      -5.923   5.918   3.595  0.00  0.00    -0.180 NA
ATOM      4  C   UNL     1      -5.808   7.210   2.903  0.00  0.00    +0.091 C 
ATOM      5  C   UNL     1      -5.427   6.948   1.442  0.00  0.00    -0.061 C 
ATOM      6  N   UNL     1      -4.200   6.122   1.411  0.00  0.00    +0.384 N 
ATOM      7  H   UNL     1      -3.472   6.589   1.964  0.00  0.00    -0.081 HD
ENDROOT
BRANCH   3   8
ATOM      8  S   UNL     1      -7.273   5.545   4.479  0.00  0.00    +0.067 S 
ATOM      9  O   UNL     1      -6.877   4.565   5.430  0.00  0.00    -0.152 OA
ATOM     10  O   UNL     1      -7.863   6.780   4.859  0.00  0.00    -0.152 OA
BRANCH   8  11
ATOM     11  C   UNL     1      -8.410   4.758   3.388  0.00  0.00    +0.143 A 
ATOM     12  C   UNL     1      -8.540   3.440   3.096  0.00  0.00    +0.036 A 
ATOM     13  C   UNL     1      -9.517   3.045   2.202  0.00  0.00    +0.010 A 
ATOM     14  C   UNL     1     -10.309   3.988   1.635  0.00  0.00    +0.047 A 
ATOM     15  S   UNL     1      -9.684   5.488   2.373  0.00  0.00    -0.077 S 
ENDBRANCH   8  11
ENDBRANCH   3   8
BRANCH   6  16
ATOM     16  C   UNL     1      -3.726   5.976   0.020  0.00  0.00    -0.039 C 
BRANCH  16  25
ATOM     17  C   UNL     1       2.617   4.803   0.445  0.00  0.00    +0.001 A 
ATOM     18  C   UNL     1       2.373   6.135   0.774  0.00  0.00    +0.001 A 
ATOM     19  C   UNL     1       1.108   6.638   0.766  0.00  0.00    +0.012 A 
ATOM     20  C   UNL     1       0.032   5.808   0.413  0.00  0.00    +0.025 A 
ATOM     21  C   UNL     1       0.280   4.454   0.078  0.00  0.00    +0.004 A 
ATOM     22  C   UNL     1       1.598   3.969   0.102  0.00  0.00    +0.010 A 
ATOM     23  C   UNL     1      -0.798   3.622  -0.272  0.00  0.00    +0.049 A 
ATOM     24  C   UNL     1      -2.064   4.125  -0.284  0.00  0.00    +0.026 A 
ATOM     25  C   UNL     1      -2.312   5.455   0.044  0.00  0.00    -0.020 A 
ATOM     26  C   UNL     1      -1.290   6.295   0.389  0.00  0.00    +0.126 A 
ATOM     27 CL   UNL     1      -0.517   1.959  -0.685  0.00  0.00    -0.083 Cl
BRANCH  26  28
ATOM     28  O   UNL     1      -1.548   7.590   0.707  0.00  0.00    -0.506 OA
ATOM     29  H   UNL     1      -1.465   8.202  -0.037  0.00  0.00    +0.292 HD
ENDBRANCH  26  28
ENDBRANCH  16  25
ENDBRANCH   6  16
TORSDOF 5
