REMARK  Name = ZINC44021601
REMARK  9 active torsions:
REMARK  status: ('A' for Active; 'I' for Inactive)
REMARK    1  A    between atoms: C_1  and  N_2
REMARK    2  A    between atoms: N_2  and  C_3
REMARK    3  A    between atoms: N_2  and  C_4
REMARK    4  A    between atoms: C_9  and  O_10
REMARK    5  A    between atoms: C_15  and  O_35
REMARK    6  A    between atoms: C_22  and  N_32
REMARK    7  A    between atoms: C_25  and  C_28
REMARK    8  A    between atoms: N_32  and  C_33
REMARK    9  A    between atoms: N_32  and  C_34
REMARK                            x       y       z     vdW  Elec       q    Type
REMARK                         _______ _______ _______ _____ _____    ______ ____
ROOT
ATOM      1  C   UNL     1      -2.340   2.848   1.289  0.00  0.00    +0.072 A 
ATOM      2  C   UNL     1      -3.259   3.489   0.472  0.00  0.00    +0.027 A 
ATOM      3  C   UNL     1      -4.361   2.807  -0.017  0.00  0.00    +0.006 A 
ATOM      4  C   UNL     1      -4.563   1.478   0.300  0.00  0.00    -0.033 A 
ATOM      5  C   UNL     1      -3.644   0.821   1.125  0.00  0.00    +0.064 A 
ATOM      6  C   UNL     1      -2.524   1.506   1.616  0.00  0.00    +0.148 A 
ATOM      7  C   UNL     1      -3.846  -0.594   1.480  0.00  0.00    +0.178 C 
ATOM      8  O   UNL     1      -3.189  -1.126   2.350  0.00  0.00    -0.291 OA
ATOM      9  C   UNL     1      -4.906  -1.358   0.714  0.00  0.00    +0.133 C 
ATOM     10  C   UNL     1      -5.307  -2.583   1.503  0.00  0.00    +0.183 C 
ATOM     11  C   UNL     1      -6.543  -3.342   1.073  0.00  0.00    +0.188 C 
ATOM     12  C   UNL     1      -7.700  -2.361   0.902  0.00  0.00    +0.030 C 
ATOM     13  C   UNL     1      -7.284  -1.209  -0.013  0.00  0.00    +0.011 C 
ATOM     14  C   UNL     1      -6.132  -0.437   0.607  0.00  0.00    +0.012 C 
ATOM     15  C   UNL     1      -5.772   0.771  -0.253  0.00  0.00    +0.040 C 
ATOM     16  C   UNL     1      -8.098  -1.795   2.271  0.00  0.00    +0.010 C 
ATOM     17  C   UNL     1      -8.585  -2.951   3.120  0.00  0.00    +0.159 C 
ATOM     18  C   UNL     1      -7.822  -4.202   3.070  0.00  0.00    +0.123 C 
ATOM     19  C   UNL     1      -6.866  -4.387   2.102  0.00  0.00    +0.210 C 
ATOM     20  O   UNL     1      -6.193  -5.547   2.074  0.00  0.00    -0.288 OA
ATOM     21  O   UNL     1      -9.572  -2.845   3.819  0.00  0.00    -0.294 OA
ATOM     22  O   UNL     1      -4.657  -2.947   2.454  0.00  0.00    -0.293 OA
ENDROOT
BRANCH  18  23
ATOM     23  C   UNL     1      -8.082  -5.261   4.058  0.00  0.00    +0.248 C 
ATOM     24  O   UNL     1      -7.376  -6.252   4.087  0.00  0.00    -0.270 OA
ATOM     25  N   UNL     1      -9.101  -5.133   4.931  0.00  0.00    -0.325 N 
ATOM     26  H   UNL     1      -9.712  -4.384   4.856  0.00  0.00    +0.145 HD
ATOM     27  H   UNL     1      -9.223  -5.791   5.633  0.00  0.00    +0.145 HD
ENDBRANCH  18  23
BRANCH  16  28
ATOM     28  N   UNL     1      -6.934  -1.164   2.906  0.00  0.00    +0.383 N 
ATOM     29  C   UNL     1      -7.233   0.248   3.183  0.00  0.00    -0.096 C 
ATOM     30  C   UNL     1      -6.628  -1.856   4.165  0.00  0.00    -0.096 C 
ATOM     31  H   UNL     1      -6.139  -1.224   2.288  0.00  0.00    -0.082 HD
ENDBRANCH  16  28
BRANCH   1  33
ATOM     32  C   UNL     1      -1.313   4.251   3.059  0.00  0.00    +0.129 C 
ATOM     33  N   UNL     1      -1.229   3.545   1.778  0.00  0.00    -0.333 N 
ATOM     34  C   UNL     1       0.017   3.569   1.009  0.00  0.00    +0.129 C 
ENDBRANCH   1  33
BRANCH   6  35
ATOM     35  O   UNL     1      -1.627   0.868   2.409  0.00  0.00    -0.504 OA
ATOM     36  H   UNL     1      -1.829   0.920   3.353  0.00  0.00    +0.292 HD
ENDBRANCH   6  35
BRANCH  11  37
ATOM     37  O   UNL     1      -6.287  -3.992  -0.173  0.00  0.00    -0.373 OA
ATOM     38  H   UNL     1      -5.557  -4.625  -0.144  0.00  0.00    +0.211 HD
ENDBRANCH  11  37
TORSDOF 5
