REMARK  Name = ZINC10253973
REMARK  4 active torsions:
REMARK  status: ('A' for Active; 'I' for Inactive)
REMARK    1  A    between atoms: C_1  and  C_2
REMARK    2  A    between atoms: C_7  and  N_8
REMARK    3  A    between atoms: C_13  and  N_17
REMARK    4  A    between atoms: N_20  and  C_23
REMARK                            x       y       z     vdW  Elec       q    Type
REMARK                         _______ _______ _______ _____ _____    ______ ____
ROOT
ATOM      1  N   UNL     1      -0.089   1.356  -0.465  0.00  0.00    -0.214 N 
ATOM      2  C   UNL     1       0.982   2.174  -0.691  0.00  0.00    +0.168 A 
ATOM      3  C   UNL     1       0.464   3.471  -0.871  0.00  0.00    +0.079 A 
ATOM      4  C   UNL     1      -0.939   3.379  -0.742  0.00  0.00    +0.148 A 
ATOM      5  N   UNL     1      -1.252   2.136  -0.509  0.00  0.00    -0.172 NA
ATOM      6  C   UNL     1       1.369   4.521  -1.123  0.00  0.00    +0.135 A 
ATOM      7  N   UNL     1       2.665   4.237  -1.179  0.00  0.00    -0.220 NA
ATOM      8  C   UNL     1       3.104   3.004  -1.004  0.00  0.00    +0.225 A 
ATOM      9  N   UNL     1       2.299   1.991  -0.766  0.00  0.00    -0.216 NA
ENDROOT
BRANCH   1  16
ATOM     10  C   UNL     1      -2.494   0.017   0.256  0.00  0.00    +0.046 C 
ATOM     11  C   UNL     1      -1.184  -0.717   0.120  0.00  0.00    -0.025 A 
ATOM     12  C   UNL     1      -1.128  -2.079   0.342  0.00  0.00    +0.007 A 
ATOM     13  C   UNL     1       0.073  -2.752   0.223  0.00  0.00    +0.020 A 
ATOM     14  C   UNL     1       1.224  -2.064  -0.125  0.00  0.00    +0.043 A 
ATOM     15  C   UNL     1       1.173  -0.702  -0.353  0.00  0.00    +0.048 A 
ATOM     16  C   UNL     1      -0.034  -0.024  -0.234  0.00  0.00    +0.072 A 
ATOM     17 CL   UNL     1       2.731  -2.913  -0.273  0.00  0.00    -0.083 Cl
ENDBRANCH   1  16
BRANCH   6  18
ATOM     18  N   UNL     1       0.918   5.814  -1.308  0.00  0.00    -0.312 N 
ATOM     19  C   UNL     1      -0.062   5.878  -2.401  0.00  0.00    +0.125 C 
ATOM     20  C   UNL     1      -0.594   7.308  -2.521  0.00  0.00    +0.124 C 
ATOM     21  N   UNL     1       0.527   8.226  -2.768  0.00  0.00    -0.327 N 
ATOM     22  C   UNL     1       1.507   8.161  -1.675  0.00  0.00    +0.124 C 
ATOM     23  C   UNL     1       2.039   6.731  -1.555  0.00  0.00    +0.125 C 
BRANCH  21  24
ATOM     24  C   UNL     1       0.071   9.534  -2.955  0.00  0.00    +0.031 A 
ATOM     25  C   UNL     1       0.549  10.559  -2.149  0.00  0.00    +0.024 A 
ATOM     26  C   UNL     1       0.102  11.852  -2.339  0.00  0.00    +0.023 A 
ATOM     27  C   UNL     1      -0.830  12.125  -3.325  0.00  0.00    +0.059 A 
ATOM     28  C   UNL     1      -1.313  11.105  -4.126  0.00  0.00    +0.061 A 
ATOM     29  C   UNL     1      -0.864   9.810  -3.944  0.00  0.00    +0.044 A 
ATOM     30 CL   UNL     1      -2.482  11.451  -5.362  0.00  0.00    -0.082 Cl
ATOM     31 CL   UNL     1      -1.394  13.751  -3.557  0.00  0.00    -0.082 Cl
ENDBRANCH  21  24
ENDBRANCH   6  18
TORSDOF 3
