REMARK  Name = ZINC00606503
REMARK  9 active torsions:
REMARK  status: ('A' for Active; 'I' for Inactive)
REMARK    1  A    between atoms: C_1  and  C_2
REMARK    2  A    between atoms: C_2  and  C_3
REMARK    3  A    between atoms: C_2  and  N_4
REMARK    4  A    between atoms: N_4  and  C_5
REMARK    5  A    between atoms: C_9  and  N_10
REMARK    6  A    between atoms: C_16  and  C_18
REMARK    7  A    between atoms: C_22  and  N_28
REMARK    8  A    between atoms: N_28  and  S_29
REMARK    9  A    between atoms: S_29  and  C_32
REMARK                            x       y       z     vdW  Elec       q    Type
REMARK                         _______ _______ _______ _____ _____    ______ ____
ROOT
ATOM      1  N   UNL     1      -0.110   4.892  -1.379  0.00  0.00    -0.312 N 
ATOM      2  C   UNL     1      -1.126   5.577  -2.190  0.00  0.00    +0.125 C 
ATOM      3  C   UNL     1      -1.381   6.972  -1.610  0.00  0.00    +0.127 C 
ATOM      4  N   UNL     1      -0.094   7.676  -1.500  0.00  0.00    -0.293 N 
ATOM      5  C   UNL     1       1.016   6.993  -0.819  0.00  0.00    +0.127 C 
ATOM      6  C   UNL     1       1.177   5.597  -1.430  0.00  0.00    +0.125 C 
ATOM      7  C   UNL     1       0.063   8.913  -2.011  0.00  0.00    +0.263 C 
ATOM      8  O   UNL     1      -0.869   9.468  -2.561  0.00  0.00    -0.268 OA
ENDROOT
BRANCH   7   9
ATOM      9  C   UNL     1       1.363   9.593  -1.902  0.00  0.00    +0.103 A 
ATOM     10  C   UNL     1       1.819  10.558  -2.743  0.00  0.00    +0.041 A 
ATOM     11  C   UNL     1       3.103  10.950  -2.293  0.00  0.00    +0.002 A 
ATOM     12  C   UNL     1       4.037  11.889  -2.753  0.00  0.00    +0.034 A 
ATOM     13  C   UNL     1       5.236  12.042  -2.087  0.00  0.00    +0.048 A 
ATOM     14  C   UNL     1       5.520  11.269  -0.961  0.00  0.00    +0.026 A 
ATOM     15  C   UNL     1       4.612  10.344  -0.499  0.00  0.00    +0.028 A 
ATOM     16  C   UNL     1       3.396  10.173  -1.156  0.00  0.00    +0.047 A 
ATOM     17  N   UNL     1       2.316   9.348  -0.934  0.00  0.00    -0.351 N 
ATOM     18  H   UNL     1       2.238   8.701  -0.215  0.00  0.00    +0.166 HD
BRANCH  13  19
ATOM     19  N   UNL     1       6.171  12.978  -2.543  0.00  0.00    -0.221 N 
ATOM     20  H   UNL     1       5.882  13.869  -2.796  0.00  0.00    +0.173 HD
BRANCH  19  21
ATOM     21  S   UNL     1       7.771  12.564  -2.652  0.00  0.00    +0.040 S 
ATOM     22  O   UNL     1       8.419  13.740  -3.118  0.00  0.00    -0.155 OA
ATOM     23  O   UNL     1       8.091  12.016  -1.380  0.00  0.00    -0.155 OA
ATOM     24  C   UNL     1       7.833  11.272  -3.923  0.00  0.00    +0.218 C 
ENDBRANCH  19  21
ENDBRANCH  13  19
ENDBRANCH   7   9
BRANCH   1  29
ATOM     25  C   UNL     1      -0.301   2.537  -0.887  0.00  0.00    +0.066 A 
ATOM     26  C   UNL     1      -0.158   1.219  -1.300  0.00  0.00    +0.028 A 
ATOM     27  C   UNL     1       0.322   0.975  -2.580  0.00  0.00    +0.019 A 
ATOM     28  C   UNL     1       0.631   2.040  -3.401  0.00  0.00    +0.084 A 
ATOM     29  C   UNL     1       0.032   3.564  -1.774  0.00  0.00    +0.120 A 
ATOM     30  N   UNL     1       0.499   3.344  -3.036  0.00  0.00    -0.348 N 
ATOM     31  H   UNL     1       0.737   4.115  -3.671  0.00  0.00    +0.167 HD
BRANCH  25  32
ATOM     32  N   UNL     1      -0.777   2.832   0.396  0.00  0.00    -0.339 N 
ATOM     33  H   UNL     1      -0.797   3.751   0.706  0.00  0.00    +0.146 HD
BRANCH  32  35
ATOM     34  C   UNL     1      -0.053   1.145   2.012  0.00  0.00    +0.027 C 
ATOM     35  C   UNL     1      -1.245   1.754   1.270  0.00  0.00    +0.064 C 
ATOM     36  C   UNL     1      -2.243   2.316   2.284  0.00  0.00    +0.027 C 
ENDBRANCH  32  35
ENDBRANCH  25  32
ENDBRANCH   1  29
TORSDOF 6
