REMARK  Name = ZINC36582278
REMARK  23 active torsions:
REMARK  status: ('A' for Active; 'I' for Inactive)
REMARK    1  A    between atoms: C_1  and  C_2
REMARK    2  A    between atoms: C_2  and  C_3
REMARK    3  A    between atoms: C_3  and  C_4
REMARK    4  A    between atoms: C_4  and  C_5
REMARK    5  A    between atoms: C_5  and  C_6
REMARK    6  A    between atoms: C_7  and  C_8
REMARK    7  A    between atoms: N_10  and  C_11
REMARK    8  A    between atoms: N_10  and  C_32
REMARK    9  A    between atoms: C_11  and  C_13
REMARK   10  A    between atoms: C_11  and  C_21
REMARK   11  A    between atoms: C_16  and  O_19
REMARK   12  A    between atoms: O_19  and  C_20
REMARK   13  A    between atoms: N_23  and  C_24
REMARK   14  A    between atoms: C_24  and  C_25
REMARK   15  A    between atoms: C_24  and  C_26
REMARK   16  A    between atoms: C_24  and  C_27
REMARK   17  A    between atoms: C_27  and  C_28
REMARK   18  A    between atoms: C_28  and  C_29
REMARK   19  A    between atoms: C_28  and  C_30
REMARK   20  A    between atoms: C_28  and  C_31
REMARK   21  A    between atoms: C_32  and  C_33
REMARK   22  A    between atoms: C_32  and  C_34
REMARK   23  A    between atoms: C_32  and  C_35
REMARK                            x       y       z     vdW  Elec       q    Type
REMARK                         _______ _______ _______ _____ _____    ______ ____
ROOT
ATOM      1  C   UNL     1      -4.707  -5.296   4.689  0.00  0.00    +0.193 C 
ENDROOT
BRANCH   1   2
ATOM      2  C   UNL     1      -6.080  -5.380   4.074  0.00  0.00    -0.018 A 
ATOM      3  C   UNL     1      -6.707  -6.607   3.949  0.00  0.00    +0.009 A 
ATOM      4  C   UNL     1      -7.965  -6.687   3.386  0.00  0.00    +0.046 A 
ATOM      5  C   UNL     1      -8.601  -5.535   2.945  0.00  0.00    +0.120 A 
ATOM      6  C   UNL     1      -7.970  -4.306   3.072  0.00  0.00    +0.046 A 
ATOM      7  C   UNL     1      -6.714  -4.231   3.641  0.00  0.00    +0.009 A 
BRANCH   5   8
ATOM      8  O   UNL     1      -9.839  -5.611   2.390  0.00  0.00    -0.495 OA
ATOM      9  C   UNL     1     -10.433  -4.385   1.958  0.00  0.00    +0.277 C 
ENDBRANCH   5   8
ENDBRANCH   1   2
BRANCH   1  10
ATOM     10  C   UNL     1      -4.813  -5.476   6.182  0.00  0.00    +0.239 C 
ATOM     11  O   UNL     1      -4.057  -6.229   6.758  0.00  0.00    -0.273 OA
ATOM     12  N   UNL     1      -5.748  -4.798   6.877  0.00  0.00    -0.308 N 
ATOM     13  H   UNL     1      -6.353  -4.196   6.416  0.00  0.00    +0.149 HD
BRANCH  12  14
ATOM     14  C   UNL     1      -5.852  -4.973   8.328  0.00  0.00    +0.030 C 
ATOM     15  C   UNL     1      -6.478  -6.335   8.635  0.00  0.00    +0.031 C 
ATOM     16  C   UNL     1      -4.456  -4.901   8.951  0.00  0.00    +0.031 C 
BRANCH  14  17
ATOM     17  C   UNL     1      -6.729  -3.864   8.913  0.00  0.00    +0.031 C 
BRANCH  17  18
ATOM     18  C   UNL     1      -6.340  -2.523   8.289  0.00  0.00    -0.036 C 
ATOM     19  C   UNL     1      -6.900  -2.439   6.868  0.00  0.00    +0.010 C 
ATOM     20  C   UNL     1      -6.915  -1.382   9.132  0.00  0.00    +0.010 C 
ATOM     21  C   UNL     1      -4.815  -2.404   8.244  0.00  0.00    +0.010 C 
ENDBRANCH  17  18
ENDBRANCH  14  17
ENDBRANCH  12  14
ENDBRANCH   1  10
BRANCH   1  24
ATOM     22  C   UNL     1      -3.951  -7.611   4.597  0.00  0.00    +0.240 C 
ATOM     23  O   UNL     1      -4.603  -7.842   5.597  0.00  0.00    -0.271 OA
ATOM     24  N   UNL     1      -3.856  -6.350   4.130  0.00  0.00    -0.277 N 
BRANCH  24  25
ATOM     25  C   UNL     1      -2.903  -6.033   3.064  0.00  0.00    +0.030 C 
ATOM     26  C   UNL     1      -3.283  -6.800   1.796  0.00  0.00    +0.031 C 
ATOM     27  C   UNL     1      -2.936  -4.530   2.780  0.00  0.00    +0.031 C 
ATOM     28  C   UNL     1      -1.494  -6.438   3.502  0.00  0.00    +0.031 C 
ENDBRANCH  24  25
BRANCH  22  30
ATOM     29  C   UNL     1      -3.475  -9.968   4.267  0.00  0.00    -0.022 C 
ATOM     30  C   UNL     1      -3.265  -8.708   3.897  0.00  0.00    +0.063 C 
BRANCH  29  31
ATOM     31  C   UNL     1      -4.618 -10.300   5.191  0.00  0.00    +0.027 C 
BRANCH  31  32
ATOM     32  C   UNL     1      -5.512 -11.356   4.537  0.00  0.00    +0.004 C 
BRANCH  32  33
ATOM     33  C   UNL     1      -6.672 -11.694   5.476  0.00  0.00    +0.000 C 
BRANCH  33  35
ATOM     34  C   UNL     1      -8.726 -13.088   5.760  0.00  0.00    +0.004 C 
ATOM     35  C   UNL     1      -7.566 -12.750   4.822  0.00  0.00    -0.003 C 
ENDBRANCH  33  35
ENDBRANCH  32  33
ENDBRANCH  31  32
ENDBRANCH  29  31
ENDBRANCH  22  30
ENDBRANCH   1  24
TORSDOF 13
