REMARK  Name = ZINC09803707
REMARK  4 active torsions:
REMARK  status: ('A' for Active; 'I' for Inactive)
REMARK    1  A    between atoms: C_4  and  C_7
REMARK    2  A    between atoms: N_9  and  C_10
REMARK    3  A    between atoms: C_13  and  C_16
REMARK    4  A    between atoms: C_22  and  C_24
REMARK                            x       y       z     vdW  Elec       q    Type
REMARK                         _______ _______ _______ _____ _____    ______ ____
ROOT
ATOM      1  C   UNL     1       8.531  -4.962  -0.476  0.00  0.00    +0.080 A 
ATOM      2  C   UNL     1       8.502  -6.324  -0.588  0.00  0.00    +0.076 A 
ATOM      3  S   UNL     1      10.251  -6.686  -0.686  0.00  0.00    -0.060 S 
ATOM      4  C   UNL     1      10.834  -5.001  -0.569  0.00  0.00    +0.165 A 
ATOM      5  N   UNL     1       9.698  -4.335  -0.475  0.00  0.00    -0.225 NA
ATOM      6  N   UNL     1      12.136  -4.519  -0.580  0.00  0.00    -0.261 N 
ATOM      7  C   UNL     1      13.171  -5.376  -0.692  0.00  0.00    +0.250 C 
ATOM      8  O   UNL     1      12.964  -6.570  -0.784  0.00  0.00    -0.270 OA
ATOM      9  H   UNL     1      12.302  -3.566  -0.507  0.00  0.00    +0.157 HD
ENDROOT
BRANCH   7  10
ATOM     10  C   UNL     1      14.556  -4.864  -0.704  0.00  0.00    +0.039 A 
ATOM     11  C   UNL     1      14.792  -3.485  -0.592  0.00  0.00    +0.015 A 
ATOM     12  C   UNL     1      16.065  -3.000  -0.602  0.00  0.00    +0.030 A 
ATOM     13  C   UNL     1      17.145  -3.871  -0.723  0.00  0.00    +0.086 A 
ATOM     14  C   UNL     1      16.928  -5.257  -0.836  0.00  0.00    +0.113 A 
ATOM     15  C   UNL     1      15.620  -5.749  -0.819  0.00  0.00    +0.044 A 
ATOM     16  N   UNL     1      18.139  -5.854  -0.939  0.00  0.00    -0.130 NA
ATOM     17  N   UNL     1      19.073  -4.970  -0.900  0.00  0.00    -0.067 NA
ATOM     18  N   UNL     1      18.506  -3.695  -0.765  0.00  0.00    -0.257 N 
ATOM     19  H   UNL     1      18.983  -2.852  -0.710  0.00  0.00    +0.191 HD
ENDBRANCH   7  10
BRANCH   1  23
ATOM     20  C   UNL     1       4.908  -2.757  -0.152  0.00  0.00    +0.034 A 
ATOM     21  C   UNL     1       6.128  -2.091  -0.149  0.00  0.00    +0.024 A 
ATOM     22  C   UNL     1       7.304  -2.804  -0.254  0.00  0.00    +0.012 A 
ATOM     23  C   UNL     1       7.268  -4.193  -0.363  0.00  0.00    +0.001 A 
ATOM     24  C   UNL     1       6.043  -4.859  -0.365  0.00  0.00    +0.012 A 
ATOM     25  C   UNL     1       4.870  -4.142  -0.255  0.00  0.00    +0.024 A 
BRANCH  20  28
ATOM     26  C   UNL     1       3.613  -0.819  -0.623  0.00  0.00    +0.248 C 
ATOM     27  O   UNL     1       4.579  -0.318  -1.165  0.00  0.00    -0.270 OA
ATOM     28  N   UNL     1       3.717  -2.032  -0.046  0.00  0.00    -0.282 N 
ATOM     29  H   UNL     1       2.966  -2.402   0.444  0.00  0.00    +0.155 HD
BRANCH  26  33
ATOM     30  C   UNL     1      -0.094   1.254  -0.555  0.00  0.00    +0.000 A 
ATOM     31  C   UNL     1       1.004   1.827  -1.171  0.00  0.00    +0.001 A 
ATOM     32  C   UNL     1       2.211   1.159  -1.196  0.00  0.00    +0.013 A 
ATOM     33  C   UNL     1       2.323  -0.097  -0.599  0.00  0.00    +0.037 A 
ATOM     34  C   UNL     1       1.211  -0.670   0.021  0.00  0.00    +0.013 A 
ATOM     35  C   UNL     1       0.010   0.009   0.039  0.00  0.00    +0.001 A 
ENDBRANCH  26  33
ENDBRANCH  20  28
ENDBRANCH   1  23
TORSDOF 4
