REMARK  Name = ZINC09389280
REMARK  6 active torsions:
REMARK  status: ('A' for Active; 'I' for Inactive)
REMARK    1  A    between atoms: C_3  and  C_15
REMARK    2  A    between atoms: C_5  and  N_7
REMARK    3  A    between atoms: C_8  and  C_10
REMARK    4  A    between atoms: N_17  and  C_18
REMARK    5  A    between atoms: C_22  and  S_24
REMARK    6  A    between atoms: S_24  and  N_27
REMARK                            x       y       z     vdW  Elec       q    Type
REMARK                         _______ _______ _______ _____ _____    ______ ____
ROOT
ATOM      1  C   UNL     1       5.088  -0.857  -4.178  0.00  0.00    +0.248 C 
ATOM      2  O   UNL     1       4.872  -0.155  -5.148  0.00  0.00    -0.270 OA
ATOM      3  N   UNL     1       4.550  -0.540  -2.984  0.00  0.00    -0.281 N 
ATOM      4  H   UNL     1       4.776  -1.060  -2.197  0.00  0.00    +0.155 HD
ENDROOT
BRANCH   1   7
ATOM      5  C   UNL     1       6.989  -3.983  -3.324  0.00  0.00    +0.003 A 
ATOM      6  C   UNL     1       6.196  -2.860  -3.197  0.00  0.00    +0.013 A 
ATOM      7  C   UNL     1       5.942  -2.057  -4.310  0.00  0.00    +0.039 A 
ATOM      8  C   UNL     1       6.500  -2.386  -5.545  0.00  0.00    +0.036 A 
ATOM      9  C   UNL     1       7.299  -3.513  -5.660  0.00  0.00    +0.034 A 
ATOM     10  C   UNL     1       7.542  -4.310  -4.548  0.00  0.00    +0.023 A 
BRANCH   9  11
ATOM     11  N   UNL     1       7.862  -3.848  -6.896  0.00  0.00    -0.281 N 
ATOM     12  C   UNL     1       8.261  -2.876  -7.741  0.00  0.00    +0.255 C 
ATOM     13  O   UNL     1       8.055  -1.708  -7.465  0.00  0.00    -0.269 OA
ATOM     14  H   UNL     1       7.965  -4.779  -7.146  0.00  0.00    +0.155 HD
BRANCH  12  15
ATOM     15  C   UNL     1       8.942  -3.224  -8.991  0.00  0.00    +0.074 A 
ATOM     16  C   UNL     1       9.427  -2.389  -9.985  0.00  0.00    +0.021 A 
ATOM     17  C   UNL     1      10.030  -2.985 -11.064  0.00  0.00    +0.008 A 
ATOM     18  C   UNL     1      10.122  -4.340 -11.107  0.00  0.00    +0.046 A 
ATOM     19  S   UNL     1       9.370  -4.836  -9.626  0.00  0.00    -0.092 S 
ENDBRANCH  12  15
ENDBRANCH   9  11
ENDBRANCH   1   7
BRANCH   3  20
ATOM     20  C   UNL     1       3.665   0.538  -2.879  0.00  0.00    +0.036 A 
ATOM     21  C   UNL     1       3.851   1.669  -3.664  0.00  0.00    +0.023 A 
ATOM     22  C   UNL     1       2.976   2.732  -3.558  0.00  0.00    +0.004 A 
ATOM     23  C   UNL     1       1.915   2.671  -2.672  0.00  0.00    +0.029 A 
ATOM     24  C   UNL     1       1.728   1.547  -1.889  0.00  0.00    +0.110 A 
ATOM     25  C   UNL     1       2.603   0.482  -1.987  0.00  0.00    +0.052 A 
BRANCH  24  26
ATOM     26  S   UNL     1       0.376   1.475  -0.762  0.00  0.00    +0.073 S 
ATOM     27  O   UNL     1       0.025   2.819  -0.463  0.00  0.00    -0.150 OA
ATOM     28  O   UNL     1       0.737   0.540   0.246  0.00  0.00    -0.150 OA
BRANCH  26  29
ATOM     29  N   UNL     1      -0.907   0.820  -1.577  0.00  0.00    -0.205 N 
ATOM     30  C   UNL     1      -0.849  -0.475  -2.021  0.00  0.00    +0.088 C 
ATOM     31  C   UNL     1      -0.065  -2.587  -2.433  0.00  0.00    +0.114 C 
ATOM     32  C   UNL     1      -1.265  -2.412  -3.393  0.00  0.00    +0.028 C 
ATOM     33  C   UNL     1      -1.961  -1.175  -2.769  0.00  0.00    +0.072 C 
ATOM     34  H   UNL     1      -1.700   1.354  -1.744  0.00  0.00    +0.175 HD
ATOM     35  N   UNL     1       0.174  -1.253  -1.843  0.00  0.00    -0.375 N 
ATOM     36  H   UNL     1       1.036  -0.978  -1.357  0.00  0.00    +0.161 HD
ENDBRANCH  26  29
ENDBRANCH  24  26
ENDBRANCH   3  20
TORSDOF 6
