REMARK  Name = ZINC61691928
REMARK  7 active torsions:
REMARK  status: ('A' for Active; 'I' for Inactive)
REMARK    1  A    between atoms: C_1  and  C_2
REMARK    2  A    between atoms: C_5  and  C_8
REMARK    3  A    between atoms: N_6  and  C_7
REMARK    4  A    between atoms: N_10  and  C_11
REMARK    5  A    between atoms: C_13  and  C_18
REMARK    6  A    between atoms: C_19  and  C_20
REMARK    7  A    between atoms: C_20  and  N_21
REMARK                            x       y       z     vdW  Elec       q    Type
REMARK                         _______ _______ _______ _____ _____    ______ ____
ROOT
ATOM      1  C   UNL     1      -0.657  -4.300   3.615  0.00  0.00    +0.053 A 
ATOM      2  C   UNL     1      -0.800  -5.547   3.028  0.00  0.00    +0.041 A 
ATOM      3  C   UNL     1      -0.931  -6.680   3.830  0.00  0.00    +0.027 A 
ATOM      4  C   UNL     1      -0.917  -6.551   5.220  0.00  0.00    +0.018 A 
ATOM      5  C   UNL     1      -0.774  -5.305   5.796  0.00  0.00    +0.023 A 
ATOM      6  C   UNL     1      -0.639  -4.182   5.001  0.00  0.00    +0.062 A 
ATOM      7 CL   UNL     1      -0.453  -2.619   5.734  0.00  0.00    -0.082 Cl
ENDROOT
BRANCH   1  10
ATOM      8  C   UNL     1      -0.696  -3.251   1.480  0.00  0.00    +0.265 C 
ATOM      9  O   UNL     1      -1.015  -4.313   0.978  0.00  0.00    -0.268 OA
ATOM     10  N   UNL     1      -0.526  -3.160   2.814  0.00  0.00    -0.279 N 
ATOM     11  H   UNL     1      -0.311  -2.305   3.219  0.00  0.00    +0.155 HD
BRANCH   8  16
ATOM     12  C   UNL     1      -0.260  -0.306  -2.587  0.00  0.00    +0.063 C 
ATOM     13  C   UNL     1      -0.304  -0.769  -1.153  0.00  0.00    +0.016 A 
ATOM     14  C   UNL     1      -0.123   0.018  -0.066  0.00  0.00    +0.023 A 
ATOM     15  C   UNL     1      -0.242  -0.787   1.071  0.00  0.00    +0.033 A 
ATOM     16  C   UNL     1      -0.498  -2.070   0.634  0.00  0.00    +0.105 A 
ATOM     17  N   UNL     1      -0.539  -2.039  -0.742  0.00  0.00    -0.344 N 
ATOM     18  C   UNL     1      -0.789  -3.188  -1.615  0.00  0.00    +0.149 C 
ENDBRANCH   8  16
ENDBRANCH   1  10
BRANCH   3  19
ATOM     19  C   UNL     1      -1.079  -7.972   3.231  0.00  0.00    -0.068 C 
ATOM     20  C   UNL     1      -1.200  -9.031   2.739  0.00  0.00    -0.117 C 
BRANCH  20  21
ATOM     21  C   UNL     1      -1.353 -10.359   2.122  0.00  0.00    +0.005 C 
BRANCH  21  22
ATOM     22  N   UNL     1      -1.471 -11.377   3.175  0.00  0.00    +0.385 N 
ATOM     23  H   UNL     1      -0.640 -11.365   3.748  0.00  0.00    -0.089 HD
ATOM     24  H   UNL     1      -2.277 -11.177   3.747  0.00  0.00    -0.089 HD
ATOM     25  H   UNL     1      -1.575 -12.287   2.752  0.00  0.00    -0.089 HD
ENDBRANCH  21  22
ENDBRANCH  20  21
ENDBRANCH   3  19
TORSDOF 5
