REMARK  Name = ZINC51429345
REMARK  10 active torsions:
REMARK  status: ('A' for Active; 'I' for Inactive)
REMARK    1  A    between atoms: C_1  and  C_2
REMARK    2  A    between atoms: C_5  and  S_8
REMARK    3  A    between atoms: S_8  and  C_9
REMARK    4  A    between atoms: C_9  and  C_10
REMARK    5  A    between atoms: C_10  and  C_11
REMARK    6  A    between atoms: C_13  and  C_14
REMARK    7  A    between atoms: C_13  and  C_16
REMARK    8  A    between atoms: N_18  and  C_19
REMARK    9  A    between atoms: C_22  and  N_25
REMARK   10  A    between atoms: C_26  and  C_28
REMARK                            x       y       z     vdW  Elec       q    Type
REMARK                         _______ _______ _______ _____ _____    ______ ____
ROOT
ATOM      1  C   UNL     1       0.062  -6.867   3.323  0.00  0.00    +0.179 C 
ATOM      2  O   UNL     1       1.231  -6.933   3.982  0.00  0.00    -0.291 OA
ATOM      3  C   UNL     1      -1.104  -7.146   3.972  0.00  0.00    +0.156 C 
ENDROOT
BRANCH   3   4
ATOM      4  C   UNL     1      -1.082  -7.519   5.393  0.00  0.00    +0.262 C 
ATOM      5  O   UNL     1      -0.024  -7.579   5.991  0.00  0.00    -0.269 OA
ATOM      6  N   UNL     1      -2.235  -7.796   6.035  0.00  0.00    -0.281 N 
ATOM      7  H   UNL     1      -3.083  -7.683   5.578  0.00  0.00    +0.155 HD
BRANCH   6   8
ATOM      8  C   UNL     1      -2.208  -8.245   7.361  0.00  0.00    +0.034 A 
ATOM      9  C   UNL     1      -1.248  -7.759   8.239  0.00  0.00    +0.025 A 
ATOM     10  C   UNL     1      -1.221  -8.203   9.546  0.00  0.00    +0.025 A 
ATOM     11  C   UNL     1      -2.154  -9.134   9.983  0.00  0.00    +0.033 A 
ATOM     12  C   UNL     1      -3.113  -9.620   9.104  0.00  0.00    +0.025 A 
ATOM     13  C   UNL     1      -3.144  -9.172   7.799  0.00  0.00    +0.025 A 
BRANCH  11  14
ATOM     14  N   UNL     1      -2.126  -9.584  11.309  0.00  0.00    -0.286 N 
ATOM     15  C   UNL     1      -2.450 -10.861  11.595  0.00  0.00    +0.214 C 
ATOM     16  O   UNL     1      -2.846 -11.597  10.716  0.00  0.00    -0.276 OA
ATOM     17  C   UNL     1      -2.321 -11.374  13.006  0.00  0.00    +0.109 C 
ATOM     18  H   UNL     1      -1.873  -8.977  12.022  0.00  0.00    +0.155 HD
ENDBRANCH  11  14
ENDBRANCH   6   8
ENDBRANCH   3   4
BRANCH   3  19
ATOM     19  C   UNL     1      -2.349  -7.076   3.269  0.00  0.00    +0.108 C 
ATOM     20  N   UNL     1      -3.337  -7.020   2.711  0.00  0.00    -0.191 NA
ENDBRANCH   3  19
BRANCH   1  21
ATOM     21  C   UNL     1       0.040  -6.484   1.865  0.00  0.00    +0.091 C 
BRANCH  21  22
ATOM     22  C   UNL     1       0.030  -4.959   1.739  0.00  0.00    +0.082 C 
BRANCH  22  23
ATOM     23  S   UNL     1       0.003  -4.498  -0.016  0.00  0.00    -0.125 S 
BRANCH  23  28
ATOM     24  C   UNL     1      -0.033   1.538   0.060  0.00  0.00    +0.044 C 
ATOM     25  C   UNL     1      -0.023   0.031   0.042  0.00  0.00    -0.050 A 
ATOM     26  C   UNL     1      -0.035  -0.644  -1.166  0.00  0.00    +0.004 A 
ATOM     27  C   UNL     1      -0.027  -2.025  -1.187  0.00  0.00    +0.015 A 
ATOM     28  C   UNL     1      -0.006  -2.736   0.007  0.00  0.00    +0.008 A 
ATOM     29  C   UNL     1       0.006  -2.055   1.218  0.00  0.00    +0.015 A 
ATOM     30  C   UNL     1       0.003  -0.674   1.231  0.00  0.00    +0.004 A 
ENDBRANCH  23  28
ENDBRANCH  22  23
ENDBRANCH  21  22
ENDBRANCH   1  21
TORSDOF 8
