REMARK  Name = ZINC20527577
REMARK  11 active torsions:
REMARK  status: ('A' for Active; 'I' for Inactive)
REMARK    1  A    between atoms: C_2  and  C_3
REMARK    2  A    between atoms: C_3  and  C_4
REMARK    3  A    between atoms: C_8  and  C_11
REMARK    4  A    between atoms: C_9  and  O_10
REMARK    5  A    between atoms: N_12  and  N_13
REMARK    6  A    between atoms: C_17  and  S_20
REMARK    7  A    between atoms: N_18  and  N_19
REMARK    8  A    between atoms: S_20  and  C_21
REMARK    9  A    between atoms: C_21  and  C_22
REMARK   10  A    between atoms: N_24  and  C_25
REMARK   11  A    between atoms: C_29  and  C_31
REMARK                            x       y       z     vdW  Elec       q    Type
REMARK                         _______ _______ _______ _____ _____    ______ ____
ROOT
ATOM      1  N   UNL     1      -3.815   5.859   0.603  0.00  0.00    -0.204 N 
ATOM      2  C   UNL     1      -3.822   7.244   0.513  0.00  0.00    +0.254 A 
ATOM      3  N   UNL     1      -2.774   8.009   0.326  0.00  0.00    -0.109 NA
ATOM      4  N   UNL     1      -3.210   9.340   0.293  0.00  0.00    -0.119 NA
ATOM      5  C   UNL     1      -4.510   9.345   0.470  0.00  0.00    +0.210 A 
ATOM      6  N   UNL     1      -4.922   8.050   0.611  0.00  0.00    -0.211 N 
ATOM      7  H   UNL     1      -4.757   5.314   0.767  0.00  0.00    +0.177 HD
ENDROOT
BRANCH   6   8
ATOM      8  N   UNL     1      -6.207   7.634   0.814  0.00  0.00    -0.294 N 
ATOM      9  H   UNL     1      -7.021   8.372   0.877  0.00  0.00    +0.163 HD
ATOM     10  H   UNL     1      -6.428   6.561   0.913  0.00  0.00    +0.163 HD
ENDBRANCH   6   8
BRANCH   1  12
ATOM     11  C   UNL     1      -2.604   3.860   0.567  0.00  0.00    +0.142 C 
ATOM     12  N   UNL     1      -2.610   5.156   0.484  0.00  0.00    -0.187 NA
BRANCH  11  17
ATOM     13  C   UNL     1       1.052   3.105   0.117  0.00  0.00    -0.002 A 
ATOM     14  C   UNL     1       1.050   1.725   0.208  0.00  0.00    +0.007 A 
ATOM     15  C   UNL     1      -0.134   1.039   0.415  0.00  0.00    +0.001 A 
ATOM     16  C   UNL     1      -1.325   1.725   0.527  0.00  0.00    +0.013 A 
ATOM     17  C   UNL     1      -1.336   3.119   0.442  0.00  0.00    +0.036 A 
ATOM     18  C   UNL     1      -0.134   3.810   0.233  0.00  0.00    +0.129 A 
BRANCH  18  19
ATOM     19  O   UNL     1      -0.133   5.165   0.144  0.00  0.00    -0.506 OA
ATOM     20  H   UNL     1      -1.076   5.723   0.236  0.00  0.00    +0.292 HD
ENDBRANCH  18  19
BRANCH  13  21
ATOM     21  C   UNL     1       2.347   3.842  -0.108  0.00  0.00    +0.065 C 
BRANCH  21  23
ATOM     22  C   UNL     1       4.128   3.951   1.558  0.00  0.00    +0.004 C 
ATOM     23  C   UNL     1       2.909   4.287   1.217  0.00  0.00    -0.030 C 
ENDBRANCH  21  23
ENDBRANCH  13  21
ENDBRANCH  11  17
ENDBRANCH   1  12
BRANCH   5  24
ATOM     24  S   UNL     1      -5.543  10.771   0.518  0.00  0.00    -0.075 S 
BRANCH  24  25
ATOM     25  C   UNL     1      -4.395  12.154   0.271  0.00  0.00    +0.173 C 
BRANCH  25  26
ATOM     26  C   UNL     1      -5.160  13.452   0.291  0.00  0.00    +0.227 C 
ATOM     27  O   UNL     1      -6.361  13.445   0.455  0.00  0.00    -0.275 OA
ATOM     28  N   UNL     1      -4.508  14.620   0.126  0.00  0.00    -0.285 N 
ATOM     29  H   UNL     1      -3.410  14.634   0.063  0.00  0.00    +0.155 HD
BRANCH  28  30
ATOM     30  C   UNL     1      -5.229  15.816   0.033  0.00  0.00    +0.034 A 
ATOM     31  C   UNL     1      -6.482  15.829  -0.567  0.00  0.00    +0.023 A 
ATOM     32  C   UNL     1      -7.193  17.010  -0.652  0.00  0.00    +0.002 A 
ATOM     33  C   UNL     1      -6.654  18.181  -0.150  0.00  0.00    +0.012 A 
ATOM     34  C   UNL     1      -5.405  18.172   0.443  0.00  0.00    +0.057 A 
ATOM     35  C   UNL     1      -4.691  16.993   0.536  0.00  0.00    +0.035 A 
BRANCH  34  36
ATOM     36  C   UNL     1      -4.822  19.450   0.988  0.00  0.00    +0.417 C 
ATOM     37  F   UNL     1      -4.085  20.091  -0.013  0.00  0.00    -0.166 F 
ATOM     38  F   UNL     1      -5.856  20.290   1.415  0.00  0.00    -0.166 F 
ATOM     39  F   UNL     1      -3.983  19.157   2.069  0.00  0.00    -0.166 F 
ENDBRANCH  34  36
ENDBRANCH  28  30
ENDBRANCH  25  26
ENDBRANCH  24  25
ENDBRANCH   5  24
TORSDOF 11
