REMARK  Name = ZINC22004764
REMARK  4 active torsions:
REMARK  status: ('A' for Active; 'I' for Inactive)
REMARK    1  A    between atoms: C_1  and  C_2
REMARK    2  A    between atoms: N_4  and  C_5
REMARK    3  A    between atoms: C_10  and  O_17
REMARK    4  A    between atoms: O_17  and  C_18
REMARK                            x       y       z     vdW  Elec       q    Type
REMARK                         _______ _______ _______ _____ _____    ______ ____
ROOT
ATOM      1  C   UNL     1      -0.138   7.733   2.498  0.00  0.00    +0.120 A 
ATOM      2  C   UNL     1      -1.132   7.087   1.826  0.00  0.00    +0.042 A 
ATOM      3  C   UNL     1      -1.017   5.639   1.639  0.00  0.00    +0.022 A 
ATOM      4  C   UNL     1      -2.012   4.929   0.955  0.00  0.00    +0.030 A 
ATOM      5  C   UNL     1      -1.892   3.579   0.788  0.00  0.00    +0.061 A 
ATOM      6  C   UNL     1      -0.784   2.902   1.294  0.00  0.00    +0.151 A 
ATOM      7  C   UNL     1       0.207   3.587   1.978  0.00  0.00    +0.103 A 
ATOM      8  C   UNL     1       0.103   4.962   2.152  0.00  0.00    +0.157 A 
ATOM      9  O   UNL     1       1.069   5.637   2.812  0.00  0.00    -0.420 OA
ATOM     10  C   UNL     1       0.997   6.963   3.002  0.00  0.00    +0.359 A 
ATOM     11  O   UNL     1       1.890   7.533   3.603  0.00  0.00    -0.243 OA
ATOM     12 BR   UNL     1       1.701   2.655   2.667  0.00  0.00    -0.043 Br
ATOM     13 BR   UNL     1      -3.236   2.623  -0.136  0.00  0.00    -0.046 Br
ENDROOT
BRANCH   1  17
ATOM     14  C   UNL     1      -1.461  11.246   2.799  0.00  0.00    +0.109 C 
ATOM     15  C   UNL     1      -1.397   9.743   2.705  0.00  0.00    +0.214 C 
ATOM     16  O   UNL     1      -2.421   9.096   2.632  0.00  0.00    -0.276 OA
ATOM     17  N   UNL     1      -0.203   9.118   2.702  0.00  0.00    -0.280 N 
ATOM     18  H   UNL     1       0.720   9.694   2.860  0.00  0.00    +0.155 HD
ENDBRANCH   1  17
BRANCH   6  19
ATOM     19  O   UNL     1      -0.677   1.559   1.121  0.00  0.00    -0.493 OA
ATOM     20  C   UNL     1      -0.009   1.109  -0.059  0.00  0.00    +0.277 C 
ENDBRANCH   6  19
TORSDOF 2
