REMARK  Name = ZINC13319711
REMARK  6 active torsions:
REMARK  status: ('A' for Active; 'I' for Inactive)
REMARK    1  A    between atoms: C_2  and  C_24
REMARK    2  A    between atoms: C_4  and  N_9
REMARK    3  A    between atoms: C_6  and  C_7
REMARK    4  A    between atoms: C_10  and  C_12
REMARK    5  A    between atoms: C_12  and  O_13
REMARK    6  A    between atoms: O_13  and  C_14
REMARK                            x       y       z     vdW  Elec       q    Type
REMARK                         _______ _______ _______ _____ _____    ______ ____
ROOT
ATOM      1  N   UNL     1      -0.242   1.246   2.466  0.00  0.00    -0.283 N 
ATOM      2  C   UNL     1      -0.816   1.434   1.261  0.00  0.00    +0.255 C 
ATOM      3  O   UNL     1      -1.894   1.985   1.183  0.00  0.00    -0.272 OA
ATOM      4  H   UNL     1       0.582   0.739   2.536  0.00  0.00    +0.155 HD
ENDROOT
BRANCH   1   8
ATOM      5  C   UNL     1      -2.012   2.850   5.904  0.00  0.00    +0.030 A 
ATOM      6  C   UNL     1      -1.324   1.639   5.972  0.00  0.00    +0.066 A 
ATOM      7  C   UNL     1      -0.735   1.107   4.823  0.00  0.00    +0.038 A 
ATOM      8  C   UNL     1      -0.834   1.782   3.615  0.00  0.00    +0.035 A 
ATOM      9  C   UNL     1      -1.512   2.990   3.545  0.00  0.00    +0.038 A 
ATOM     10  C   UNL     1      -2.108   3.525   4.689  0.00  0.00    +0.066 A 
BRANCH  10  11
ATOM     11  C   UNL     1      -2.836   4.809   4.612  0.00  0.00    +0.387 C 
ATOM     12  O   UNL     1      -2.920   5.397   3.552  0.00  0.00    -0.241 OA
ATOM     13  O   UNL     1      -3.407   5.327   5.717  0.00  0.00    -0.241 OA
ENDBRANCH  10  11
BRANCH   6  14
ATOM     14  C   UNL     1      -1.219   0.919   7.258  0.00  0.00    +0.387 C 
ATOM     15  O   UNL     1      -0.620  -0.136   7.317  0.00  0.00    -0.241 OA
ATOM     16  O   UNL     1      -1.788   1.433   8.366  0.00  0.00    -0.241 OA
ENDBRANCH   6  14
ENDBRANCH   1   8
BRANCH   2  17
ATOM     17  C   UNL     1      -0.120   0.961   0.012  0.00  0.00    +0.325 C 
BRANCH  17  18
ATOM     18  O   UNL     1      -0.923   1.273  -1.129  0.00  0.00    -0.477 OA
BRANCH  18  19
ATOM     19  C   UNL     1      -0.435   0.910  -2.345  0.00  0.00    +0.197 A 
ATOM     20  C   UNL     1       0.360   1.791  -3.066  0.00  0.00    +0.203 A 
ATOM     21  C   UNL     1       0.861   1.418  -4.302  0.00  0.00    +0.165 A 
ATOM     22  C   UNL     1       0.559   0.172  -4.825  0.00  0.00    +0.082 A 
ATOM     23  C   UNL     1      -0.238  -0.706  -4.110  0.00  0.00    +0.165 A 
ATOM     24  C   UNL     1      -0.736  -0.339  -2.871  0.00  0.00    +0.203 A 
ATOM     25  F   UNL     1      -1.514  -1.196  -2.174  0.00  0.00    -0.199 F 
ATOM     26  F   UNL     1      -0.530  -1.922  -4.622  0.00  0.00    -0.202 F 
ATOM     27  F   UNL     1       1.639   2.272  -5.001  0.00  0.00    -0.202 F 
ATOM     28  F   UNL     1       0.649   3.010  -2.559  0.00  0.00    -0.199 F 
ENDBRANCH  18  19
ENDBRANCH  17  18
ENDBRANCH   2  17
TORSDOF 6
