REMARK  Name = ZINC53993711
REMARK  1 active torsions:
REMARK  status: ('A' for Active; 'I' for Inactive)
REMARK    1  A    between atoms: C_6  and  C_7
REMARK                            x       y       z     vdW  Elec       q    Type
REMARK                         _______ _______ _______ _____ _____    ______ ____
ROOT
ATOM      1  C   UNL     1      -1.293  -0.775   0.010  0.00  0.00    +0.117 C 
ATOM      2  C   UNL     1      -1.593  -1.173   1.420  0.00  0.00    -0.004 A 
ATOM      3  C   UNL     1      -0.996  -0.394   2.411  0.00  0.00    +0.022 A 
ATOM      4  C   UNL     1      -1.189  -0.662   3.748  0.00  0.00    +0.018 A 
ATOM      5  C   UNL     1      -1.989  -1.729   4.119  0.00  0.00    +0.017 A 
ATOM      6  C   UNL     1      -2.583  -2.501   3.151  0.00  0.00    +0.025 A 
ATOM      7  C   UNL     1      -2.397  -2.232   1.784  0.00  0.00    +0.038 A 
ATOM      8  N   UNL     1      -3.069  -3.075   0.926  0.00  0.00    -0.284 N 
ATOM      9  C   UNL     1      -3.082  -3.263  -0.366  0.00  0.00    +0.231 C 
ATOM     10  O   UNL     1      -3.686  -4.235  -0.768  0.00  0.00    -0.274 OA
ATOM     11  C   UNL     1      -2.433  -2.407  -1.396  0.00  0.00    +0.178 C 
ATOM     12  N   UNL     1      -1.178  -1.858  -0.924  0.00  0.00    -0.298 NA
ATOM     13 BR   UNL     1      -0.366   0.416   5.065  0.00  0.00    -0.050 Br
ATOM     14  H   UNL     1      -3.676  -3.671   1.393  0.00  0.00    +0.155 HD
ATOM     15  H   UNL     1      -0.582  -1.606  -1.698  0.00  0.00    +0.123 HD
ENDROOT
BRANCH   1  21
ATOM     16  C   UNL     1      -0.017   1.378   0.010  0.00  0.00    +0.008 A 
ATOM     17  C   UNL     1       1.170   2.086   0.002  0.00  0.00    +0.038 A 
ATOM     18  C   UNL     1       2.379   1.410  -0.013  0.00  0.00    +0.123 A 
ATOM     19  C   UNL     1       2.396   0.026  -0.021  0.00  0.00    +0.038 A 
ATOM     20  C   UNL     1       1.208  -0.680  -0.013  0.00  0.00    +0.008 A 
ATOM     21  C   UNL     1       0.002  -0.004   0.002  0.00  0.00    -0.026 A 
ATOM     22  F   UNL     1       3.540   2.101  -0.021  0.00  0.00    -0.205 F 
ENDBRANCH   1  21
TORSDOF 1
