REMARK  Name = ZINC27641377
REMARK  6 active torsions:
REMARK  status: ('A' for Active; 'I' for Inactive)
REMARK    1  A    between atoms: C_1  and  C_2
REMARK    2  A    between atoms: C_5  and  C_25
REMARK    3  A    between atoms: C_7  and  N_8
REMARK    4  A    between atoms: C_9  and  C_11
REMARK    5  A    between atoms: C_12  and  C_13
REMARK    6  A    between atoms: C_16  and  N_19
REMARK                            x       y       z     vdW  Elec       q    Type
REMARK                         _______ _______ _______ _____ _____    ______ ____
ROOT
ATOM      1  N   UNL     1      -1.334  -2.221  -0.382  0.00  0.00    -0.282 N 
ATOM      2  C   UNL     1      -1.276  -1.073  -1.086  0.00  0.00    +0.241 C 
ATOM      3  O   UNL     1      -2.287  -0.614  -1.586  0.00  0.00    -0.270 OA
ATOM      4  H   UNL     1      -0.410  -2.683  -0.006  0.00  0.00    +0.155 HD
ENDROOT
BRANCH   1  11
ATOM      5  C   UNL     1      -1.382  -5.021   0.099  0.00  0.00    +0.045 C 
ATOM      6  C   UNL     1      -2.640  -4.191   0.111  0.00  0.00    -0.029 A 
ATOM      7  C   UNL     1      -3.859  -4.792   0.366  0.00  0.00    +0.006 A 
ATOM      8  C   UNL     1      -5.016  -4.039   0.374  0.00  0.00    +0.012 A 
ATOM      9  C   UNL     1      -4.957  -2.666   0.129  0.00  0.00    +0.021 A 
ATOM     10  C   UNL     1      -3.727  -2.060  -0.123  0.00  0.00    +0.035 A 
ATOM     11  C   UNL     1      -2.570  -2.824  -0.129  0.00  0.00    +0.037 A 
BRANCH   9  12
ATOM     12  C   UNL     1      -6.195  -1.857   0.137  0.00  0.00    +0.164 A 
ATOM     13  N   UNL     1      -6.278  -0.550   0.269  0.00  0.00    -0.129 NA
ATOM     14  N   UNL     1      -7.512  -0.185   0.222  0.00  0.00    -0.134 NA
ATOM     15  C   UNL     1      -8.278  -1.229   0.064  0.00  0.00    +0.134 A 
ATOM     16  N   UNL     1      -7.472  -2.322   0.015  0.00  0.00    -0.311 N 
ATOM     17  C   UNL     1      -7.900  -3.714  -0.126  0.00  0.00    +0.125 C 
ATOM     18  C   UNL     1      -9.228  -3.761  -0.887  0.00  0.00    +0.022 C 
ATOM     19  C   UNL     1     -10.391  -3.663   0.099  0.00  0.00    +0.002 C 
ATOM     20  C   UNL     1     -10.342  -2.340   0.857  0.00  0.00    +0.008 C 
ATOM     21  C   UNL     1      -9.780  -1.245  -0.055  0.00  0.00    +0.076 C 
ENDBRANCH   9  12
ENDBRANCH   1  11
BRANCH   2  22
ATOM     22  C   UNL     1       0.000  -0.379  -1.249  0.00  0.00    +0.068 C 
ATOM     23  C   UNL     1       0.058   0.771  -1.954  0.00  0.00    +0.013 C 
BRANCH  23  24
ATOM     24  C   UNL     1       1.342   1.468  -2.118  0.00  0.00    -0.025 A 
ATOM     25  C   UNL     1       2.504   0.946  -1.538  0.00  0.00    +0.010 A 
ATOM     26  C   UNL     1       3.704   1.599  -1.699  0.00  0.00    +0.024 A 
ATOM     27  C   UNL     1       3.762   2.784  -2.426  0.00  0.00    +0.036 A 
ATOM     28  C   UNL     1       2.608   3.311  -2.999  0.00  0.00    +0.024 A 
ATOM     29  C   UNL     1       1.404   2.661  -2.848  0.00  0.00    +0.010 A 
BRANCH  27  30
ATOM     30  N   UNL     1       4.979   3.447  -2.581  0.00  0.00    -0.271 N 
ATOM     31  C   UNL     1       5.175   4.634  -3.421  0.00  0.00    +0.114 C 
ATOM     32  C   UNL     1       6.702   4.743  -3.631  0.00  0.00    +0.029 C 
ATOM     33  C   UNL     1       7.245   4.013  -2.381  0.00  0.00    +0.098 C 
ATOM     34  C   UNL     1       6.123   3.083  -1.976  0.00  0.00    +0.220 C 
ATOM     35  O   UNL     1       6.239   2.143  -1.218  0.00  0.00    -0.275 OA
ENDBRANCH  27  30
ENDBRANCH  23  24
ENDBRANCH   2  22
TORSDOF 5
