REMARK  Name = ZINC19635354
REMARK  4 active torsions:
REMARK  status: ('A' for Active; 'I' for Inactive)
REMARK    1  A    between atoms: C_1  and  S_2
REMARK    2  A    between atoms: S_2  and  C_3
REMARK    3  A    between atoms: C_5  and  C_8
REMARK    4  A    between atoms: C_15  and  C_19
REMARK                            x       y       z     vdW  Elec       q    Type
REMARK                         _______ _______ _______ _____ _____    ______ ____
ROOT
ATOM      1  C   UNL     1      -1.578   6.720   2.540  0.00  0.00    +0.266 C 
ATOM      2  O   UNL     1      -1.167   5.825   1.825  0.00  0.00    -0.268 OA
ATOM      3  N   UNL     1      -2.112   6.430   3.743  0.00  0.00    -0.291 N 
ATOM      4  C   UNL     1      -2.216   5.038   4.205  0.00  0.00    +0.114 C 
ATOM      5  C   UNL     1      -1.330   4.851   5.443  0.00  0.00    +0.074 C 
ATOM      6  C   UNL     1      -1.552   6.010   6.381  0.00  0.00    +0.043 A 
ATOM      7  C   UNL     1      -2.114   7.190   6.022  0.00  0.00    +0.018 A 
ATOM      8  C   UNL     1      -2.147   8.018   7.153  0.00  0.00    +0.100 A 
ATOM      9  N   UNL     1      -1.623   7.346   8.159  0.00  0.00    -0.173 NA
ATOM     10  N   UNL     1      -1.246   6.080   7.690  0.00  0.00    -0.281 N 
ATOM     11  H   UNL     1      -0.779   5.220   8.192  0.00  0.00    +0.189 HD
ATOM     12  C   UNL     1      -2.599   7.501   4.631  0.00  0.00    +0.147 C 
ENDROOT
BRANCH   8  13
ATOM     13  C   UNL     1      -2.678   9.403   7.208  0.00  0.00    +0.038 A 
ATOM     14  C   UNL     1      -3.931   9.694   6.673  0.00  0.00    +0.013 A 
ATOM     15  C   UNL     1      -4.422  10.982   6.731  0.00  0.00    +0.001 A 
ATOM     16  C   UNL     1      -3.669  11.988   7.309  0.00  0.00    +0.003 A 
ATOM     17  C   UNL     1      -2.422  11.709   7.838  0.00  0.00    +0.039 A 
ATOM     18  C   UNL     1      -1.921  10.421   7.790  0.00  0.00    +0.133 A 
ATOM     19  F   UNL     1      -0.703  10.148   8.306  0.00  0.00    -0.205 F 
ENDBRANCH   8  13
BRANCH   1  22
ATOM     20  C   UNL     1      -2.019  10.349   2.396  0.00  0.00    +0.135 A 
ATOM     21  N   UNL     1      -2.087   9.091   2.786  0.00  0.00    -0.228 NA
ATOM     22  C   UNL     1      -1.492   8.119   2.091  0.00  0.00    +0.134 A 
ATOM     23  C   UNL     1      -0.800   8.443   0.951  0.00  0.00    +0.080 A 
ATOM     24  S   UNL     1      -1.042  10.214   0.906  0.00  0.00    -0.069 S 
BRANCH  20  26
ATOM     25  C   UNL     1      -2.148  13.050   1.982  0.00  0.00    +0.092 C 
ATOM     26  S   UNL     1      -2.715  11.784   3.144  0.00  0.00    -0.102 S 
ENDBRANCH  20  26
ENDBRANCH   1  22
TORSDOF 3
