REMARK  Name = ZINC12715497
REMARK  13 active torsions:
REMARK  status: ('A' for Active; 'I' for Inactive)
REMARK    1  A    between atoms: C_1  and  C_2
REMARK    2  A    between atoms: C_5  and  C_7
REMARK    3  A    between atoms: C_7  and  C_9
REMARK    4  A    between atoms: C_7  and  N_16
REMARK    5  A    between atoms: N_11  and  C_12
REMARK    6  A    between atoms: C_12  and  C_13
REMARK    7  A    between atoms: C_12  and  C_14
REMARK    8  A    between atoms: C_12  and  C_15
REMARK    9  A    between atoms: N_16  and  C_17
REMARK   10  A    between atoms: C_17  and  C_18
REMARK   11  A    between atoms: C_25  and  C_27
REMARK   12  A    between atoms: C_28  and  N_35
REMARK   13  A    between atoms: C_29  and  C_32
REMARK                            x       y       z     vdW  Elec       q    Type
REMARK                         _______ _______ _______ _____ _____    ______ ____
ROOT
ATOM      1  N   UNL     1      -5.002   3.471   2.651  0.00  0.00    -0.274 N 
ATOM      2  C   UNL     1      -5.068   4.795   2.403  0.00  0.00    +0.258 C 
ATOM      3  O   UNL     1      -4.440   5.575   3.095  0.00  0.00    -0.269 OA
ENDROOT
BRANCH   2   4
ATOM      4  C   UNL     1      -5.894   5.293   1.302  0.00  0.00    +0.115 A 
ATOM      5  C   UNL     1      -6.680   6.445   1.237  0.00  0.00    +0.076 A 
ATOM      6  C   UNL     1      -7.326   6.582   0.008  0.00  0.00    +0.155 A 
ATOM      7  N   UNL     1      -7.146   5.668  -0.919  0.00  0.00    -0.203 NA
ATOM      8  S   UNL     1      -6.160   4.597  -0.315  0.00  0.00    +0.019 S 
BRANCH   6   9
ATOM      9  C   UNL     1      -8.203   7.740  -0.248  0.00  0.00    +0.262 C 
ATOM     10  O   UNL     1      -8.365   8.582   0.615  0.00  0.00    -0.269 OA
ATOM     11  N   UNL     1      -8.823   7.865  -1.437  0.00  0.00    -0.324 N 
ATOM     12  H   UNL     1      -8.694   7.194  -2.125  0.00  0.00    +0.145 HD
ATOM     13  H   UNL     1      -9.400   8.627  -1.606  0.00  0.00    +0.145 HD
ENDBRANCH   6   9
BRANCH   5  14
ATOM     14  N   UNL     1      -6.805   7.354   2.279  0.00  0.00    -0.355 N 
ATOM     15  H   UNL     1      -6.330   7.205   3.112  0.00  0.00    +0.142 HD
ATOM     16  H   UNL     1      -7.367   8.138   2.175  0.00  0.00    +0.142 HD
ENDBRANCH   5  14
ENDBRANCH   2   4
BRANCH   1  17
ATOM     17  C   UNL     1      -4.273   2.981   3.823  0.00  0.00    +0.229 C 
BRANCH  17  22
ATOM     18  C   UNL     1      -2.757  -1.286   1.601  0.00  0.00    +0.086 C 
ATOM     19  C   UNL     1      -2.755  -0.048   2.459  0.00  0.00    +0.102 A 
ATOM     20  C   UNL     1      -1.739   0.369   3.236  0.00  0.00    +0.045 A 
ATOM     21  C   UNL     1      -2.164   1.565   3.859  0.00  0.00    +0.047 A 
ATOM     22  C   UNL     1      -3.414   1.808   3.425  0.00  0.00    +0.135 A 
ATOM     23  O   UNL     1      -3.764   0.831   2.573  0.00  0.00    -0.462 OA
ENDBRANCH  17  22
BRANCH  17  24
ATOM     24  C   UNL     1      -5.255   2.549   4.881  0.00  0.00    +0.242 C 
ATOM     25  O   UNL     1      -6.436   2.793   4.748  0.00  0.00    -0.273 OA
ATOM     26  N   UNL     1      -4.822   1.891   5.974  0.00  0.00    -0.309 N 
ATOM     27  H   UNL     1      -3.872   1.749   6.110  0.00  0.00    +0.149 HD
BRANCH  26  28
ATOM     28  C   UNL     1      -5.785   1.390   6.957  0.00  0.00    +0.026 C 
ATOM     29  C   UNL     1      -6.770   0.443   6.270  0.00  0.00    +0.031 C 
ATOM     30  C   UNL     1      -5.042   0.638   8.063  0.00  0.00    +0.031 C 
ATOM     31  C   UNL     1      -6.551   2.567   7.567  0.00  0.00    +0.031 C 
ENDBRANCH  26  28
ENDBRANCH  17  24
ENDBRANCH   1  17
BRANCH   1  32
ATOM     32  C   UNL     1      -5.659   2.524   1.747  0.00  0.00    +0.146 C 
BRANCH  32  33
ATOM     33  C   UNL     1      -6.859   1.925   2.434  0.00  0.00    -0.012 A 
ATOM     34  C   UNL     1      -6.826   0.611   2.864  0.00  0.00    +0.006 A 
ATOM     35  C   UNL     1      -7.925   0.063   3.498  0.00  0.00    +0.000 A 
ATOM     36  C   UNL     1      -9.062   0.825   3.694  0.00  0.00    +0.001 A 
ATOM     37  C   UNL     1      -9.098   2.137   3.260  0.00  0.00    +0.020 A 
ATOM     38  C   UNL     1      -7.996   2.687   2.630  0.00  0.00    +0.046 A 
ATOM     39 CL   UNL     1      -8.042   4.335   2.084  0.00  0.00    -0.083 Cl
ENDBRANCH  32  33
ENDBRANCH   1  32
TORSDOF 9
