REMARK  Name = ZINC25399145
REMARK  14 active torsions:
REMARK  status: ('A' for Active; 'I' for Inactive)
REMARK    1  A    between atoms: C_1  and  C_2
REMARK    2  A    between atoms: C_5  and  C_9
REMARK    3  A    between atoms: C_7  and  C_8
REMARK    4  A    between atoms: C_9  and  C_11
REMARK    5  A    between atoms: C_9  and  N_12
REMARK    6  A    between atoms: C_13  and  C_15
REMARK    7  A    between atoms: C_15  and  N_16
REMARK    8  A    between atoms: N_16  and  C_17
REMARK    9  A    between atoms: N_16  and  C_18
REMARK   10  A    between atoms: C_18  and  C_19
REMARK   11  A    between atoms: N_21  and  C_22
REMARK   12  A    between atoms: C_23  and  C_30
REMARK   13  A    between atoms: C_25  and  C_29
REMARK   14  A    between atoms: C_27  and  C_28
REMARK                            x       y       z     vdW  Elec       q    Type
REMARK                         _______ _______ _______ _____ _____    ______ ____
ROOT
ATOM      1  N   UNL     1       2.806  -7.905  -2.905  0.00  0.00    +0.389 N 
ATOM      2  C   UNL     1       2.163  -8.642  -4.001  0.00  0.00    -0.095 C 
ATOM      3  H   UNL     1       2.501  -8.283  -2.021  0.00  0.00    -0.081 HD
ENDROOT
BRANCH   1   4
ATOM      4  C   UNL     1       2.434  -6.486  -2.985  0.00  0.00    +0.019 C 
BRANCH   4   6
ATOM      5  N   UNL     1       0.383  -5.120  -2.774  0.00  0.00    -0.310 N 
ATOM      6  C   UNL     1       0.953  -6.341  -2.748  0.00  0.00    +0.197 C 
ATOM      7  O   UNL     1       0.274  -7.323  -2.534  0.00  0.00    -0.278 OA
ATOM      8  H   UNL     1       0.926  -4.335  -2.945  0.00  0.00    +0.149 HD
BRANCH   5   9
ATOM      9  C   UNL     1      -1.057  -4.979  -2.543  0.00  0.00    +0.100 C 
ATOM     10  C   UNL     1      -1.808  -5.196  -3.859  0.00  0.00    +0.033 C 
BRANCH   9  15
ATOM     11  C   UNL     1      -2.179   0.325  -0.542  0.00  0.00    +0.044 C 
ATOM     12  C   UNL     1      -1.887  -1.058  -1.064  0.00  0.00    -0.048 A 
ATOM     13  C   UNL     1      -0.949  -1.236  -2.064  0.00  0.00    +0.004 A 
ATOM     14  C   UNL     1      -0.680  -2.504  -2.543  0.00  0.00    +0.006 A 
ATOM     15  C   UNL     1      -1.349  -3.596  -2.021  0.00  0.00    -0.027 A 
ATOM     16  C   UNL     1      -2.286  -3.419  -1.020  0.00  0.00    +0.009 A 
ATOM     17  C   UNL     1      -2.551  -2.151  -0.538  0.00  0.00    -0.047 A 
ATOM     18  C   UNL     1      -3.569  -1.958   0.556  0.00  0.00    +0.044 C 
ENDBRANCH   9  15
ENDBRANCH   5   9
ENDBRANCH   4   6
ENDBRANCH   1   4
BRANCH   1  19
ATOM     19  C   UNL     1       4.265  -8.035  -3.017  0.00  0.00    +0.019 C 
BRANCH  19  20
ATOM     20  C   UNL     1       4.658  -9.476  -2.813  0.00  0.00    +0.201 C 
ATOM     21  O   UNL     1       3.806 -10.312  -2.595  0.00  0.00    -0.278 OA
ATOM     22  N   UNL     1       5.955  -9.836  -2.871  0.00  0.00    -0.287 N 
ATOM     23  H   UNL     1       6.629  -9.183  -3.117  0.00  0.00    +0.155 HD
BRANCH  22  24
ATOM     24  C   UNL     1       6.330 -11.152  -2.578  0.00  0.00    +0.039 A 
ATOM     25  C   UNL     1       7.082 -11.881  -3.490  0.00  0.00    -0.029 A 
ATOM     26  C   UNL     1       7.451 -13.179  -3.197  0.00  0.00    +0.008 A 
ATOM     27  C   UNL     1       7.072 -13.753  -1.998  0.00  0.00    -0.050 A 
ATOM     28  C   UNL     1       6.323 -13.030  -1.087  0.00  0.00    +0.008 A 
ATOM     29  C   UNL     1       5.956 -11.729  -1.371  0.00  0.00    -0.029 A 
ATOM     30  C   UNL     1       5.146 -10.939  -0.376  0.00  0.00    +0.045 C 
ATOM     31  C   UNL     1       7.476 -15.170  -1.681  0.00  0.00    +0.044 C 
ATOM     32  C   UNL     1       7.495 -11.256  -4.798  0.00  0.00    +0.045 C 
ENDBRANCH  22  24
ENDBRANCH  19  20
ENDBRANCH   1  19
TORSDOF 7
