REMARK  Name = ZINC38517544
REMARK  6 active torsions:
REMARK  status: ('A' for Active; 'I' for Inactive)
REMARK    1  A    between atoms: C_1  and  N_2
REMARK    2  A    between atoms: C_10  and  C_12
REMARK    3  A    between atoms: C_12  and  C_14
REMARK    4  A    between atoms: C_12  and  N_26
REMARK    5  A    between atoms: C_14  and  N_15
REMARK    6  A    between atoms: N_18  and  C_19
REMARK                            x       y       z     vdW  Elec       q    Type
REMARK                         _______ _______ _______ _____ _____    ______ ____
ROOT
ATOM      1  C   UNL     1       5.000  -2.804  -0.543  0.00  0.00    -0.020 C 
ENDROOT
BRANCH   1  11
ATOM      2  C   UNL     1       0.340   1.734  -0.013  0.00  0.00    +0.129 C 
ATOM      3  N   UNL     1       0.254   0.279  -0.158  0.00  0.00    -0.333 N 
ATOM      4  C   UNL     1      -1.054  -0.390  -0.212  0.00  0.00    +0.105 C 
ATOM      5  C   UNL     1      -0.986  -1.625   0.696  0.00  0.00    +0.024 C 
ATOM      6  C   UNL     1       0.059  -2.591   0.138  0.00  0.00    +0.038 C 
ATOM      7  C   UNL     1       1.361  -1.875  -0.108  0.00  0.00    -0.026 A 
ATOM      8  C   UNL     1       1.415  -0.496  -0.253  0.00  0.00    +0.033 A 
ATOM      9  C   UNL     1       2.631   0.133  -0.490  0.00  0.00    +0.023 A 
ATOM     10  C   UNL     1       3.789  -0.614  -0.584  0.00  0.00    +0.004 A 
ATOM     11  C   UNL     1       3.736  -1.988  -0.443  0.00  0.00    -0.059 A 
ATOM     12  C   UNL     1       2.526  -2.617  -0.197  0.00  0.00    +0.007 A 
ENDBRANCH   1  11
BRANCH   1  13
ATOM     13  N   UNL     1       6.094  -2.096   0.135  0.00  0.00    +0.385 N 
ATOM     14  C   UNL     1       5.835  -2.033   1.596  0.00  0.00    -0.078 C 
ATOM     15  C   UNL     1       7.245  -1.805   2.196  0.00  0.00    -0.020 C 
ATOM     16  C   UNL     1       8.151  -2.671   1.290  0.00  0.00    -0.020 C 
ATOM     17  C   UNL     1       7.359  -2.847  -0.019  0.00  0.00    -0.078 C 
ATOM     18  H   UNL     1       6.194  -1.166  -0.242  0.00  0.00    -0.081 HD
ENDBRANCH   1  13
BRANCH   1  19
ATOM     19  C   UNL     1       5.359  -3.006  -2.017  0.00  0.00    +0.095 C 
BRANCH  19  20
ATOM     20  N   UNL     1       4.325  -3.818  -2.664  0.00  0.00    -0.300 N 
ATOM     21  C   UNL     1       4.377  -4.039  -3.993  0.00  0.00    +0.304 C 
ATOM     22  O   UNL     1       5.281  -3.566  -4.654  0.00  0.00    -0.253 OA
ATOM     23  N   UNL     1       3.425  -4.786  -4.589  0.00  0.00    -0.269 N 
ATOM     24  H   UNL     1       3.604  -4.195  -2.137  0.00  0.00    +0.150 HD
ATOM     25  H   UNL     1       2.666  -5.103  -4.076  0.00  0.00    +0.156 HD
BRANCH  23  26
ATOM     26  C   UNL     1       3.534  -5.103  -5.949  0.00  0.00    +0.035 A 
ATOM     27  C   UNL     1       2.392  -5.214  -6.730  0.00  0.00    +0.026 A 
ATOM     28  C   UNL     1       2.501  -5.527  -8.071  0.00  0.00    +0.040 A 
ATOM     29  C   UNL     1       3.749  -5.729  -8.636  0.00  0.00    +0.124 A 
ATOM     30  C   UNL     1       4.889  -5.620  -7.858  0.00  0.00    +0.040 A 
ATOM     31  C   UNL     1       4.785  -5.302  -6.518  0.00  0.00    +0.026 A 
ATOM     32  F   UNL     1       3.854  -6.035  -9.948  0.00  0.00    -0.205 F 
ENDBRANCH  23  26
ENDBRANCH  19  20
ENDBRANCH   1  19
TORSDOF 5
