REMARK  Name = ZINC01603042
REMARK  4 active torsions:
REMARK  status: ('A' for Active; 'I' for Inactive)
REMARK    1  A    between atoms: C_3  and  C_8
REMARK    2  A    between atoms: C_5  and  N_7
REMARK    3  A    between atoms: C_18  and  S_22
REMARK    4  A    between atoms: C_20  and  O_21
REMARK                            x       y       z     vdW  Elec       q    Type
REMARK                         _______ _______ _______ _____ _____    ______ ____
ROOT
ATOM      1  C   UNL     1      -0.078   5.328   0.032  0.00  0.00    +0.110 A 
ATOM      2  N   UNL     1       0.930   6.174   0.033  0.00  0.00    -0.239 NA
ATOM      3  C   UNL     1       0.761   7.504   0.038  0.00  0.00    +0.079 A 
ATOM      4  C   UNL     1       1.774   8.510   0.035  0.00  0.00    +0.029 A 
ATOM      5  C   UNL     1       1.470   9.824   0.045  0.00  0.00    +0.014 A 
ATOM      6  C   UNL     1       0.134  10.268   0.060  0.00  0.00    +0.025 A 
ATOM      7  C   UNL     1      -0.910   9.306   0.064  0.00  0.00    +0.003 A 
ATOM      8  C   UNL     1      -0.573   7.951   0.053  0.00  0.00    +0.047 A 
ATOM      9  S   UNL     1      -1.487   6.428   0.051  0.00  0.00    -0.067 S 
ATOM     10  C   UNL     1      -2.243   9.743   0.080  0.00  0.00    +0.039 A 
ATOM     11  C   UNL     1      -2.526  11.076   0.091  0.00  0.00    +0.124 A 
ATOM     12  C   UNL     1      -1.509  12.025   0.088  0.00  0.00    +0.075 A 
ATOM     13  C   UNL     1      -0.187  11.636   0.071  0.00  0.00    +0.126 A 
ENDROOT
BRANCH   1  16
ATOM     14  C   UNL     1      -1.220   1.748   0.017  0.00  0.00    +0.002 A 
ATOM     15  C   UNL     1      -1.246   3.128   0.031  0.00  0.00    +0.010 A 
ATOM     16  C   UNL     1      -0.052   3.849   0.023  0.00  0.00    +0.009 A 
ATOM     17  C   UNL     1       1.167   3.171   0.008  0.00  0.00    +0.033 A 
ATOM     18  C   UNL     1       1.183   1.785   0.000  0.00  0.00    +0.025 A 
ATOM     19  C   UNL     1      -0.013   1.076   0.008  0.00  0.00    +0.023 A 
BRANCH  18  20
ATOM     20  N   UNL     1       2.401   1.101  -0.015  0.00  0.00    -0.358 N 
ATOM     21  H   UNL     1       2.413   0.131  -0.019  0.00  0.00    +0.142 HD
ATOM     22  H   UNL     1       3.235   1.596  -0.020  0.00  0.00    +0.142 HD
ENDBRANCH  18  20
ENDBRANCH   1  16
BRANCH  11  23
ATOM     23  S   UNL     1      -4.206  11.605   0.111  0.00  0.00    +0.140 S 
ATOM     24  O   UNL     1      -4.224  12.919  -0.432  0.00  0.00    -0.140 OA
ATOM     25  O   UNL     1      -4.973  10.543  -0.440  0.00  0.00    -0.140 OA
ATOM     26  O   UNL     1      -4.621  11.731   1.569  0.00  0.00    -0.043 OA
ENDBRANCH  11  23
BRANCH  13  27
ATOM     27  O   UNL     1       0.800  12.570   0.067  0.00  0.00    -0.506 OA
ATOM     28  H   UNL     1       1.078  12.845  -0.818  0.00  0.00    +0.292 HD
ENDBRANCH  13  27
TORSDOF 4
