REMARK  Name = ZINC13735014
REMARK  1 active torsions:
REMARK  status: ('A' for Active; 'I' for Inactive)
REMARK    1  A    between atoms: N_31  and  C_34
REMARK                            x       y       z     vdW  Elec       q    Type
REMARK                         _______ _______ _______ _____ _____    ______ ____
ROOT
ATOM      1  C   UNL     1      -0.220   0.578   1.019  0.00  0.00    +0.001 A 
ATOM      2  C   UNL     1       0.850   1.440   0.815  0.00  0.00    +0.002 A 
ATOM      3  C   UNL     1       2.119   0.951   0.607  0.00  0.00    +0.028 A 
ATOM      4  C   UNL     1       2.337  -0.428   0.599  0.00  0.00    +0.078 A 
ATOM      5  C   UNL     1       1.248  -1.302   0.807  0.00  0.00    +0.065 A 
ATOM      6  C   UNL     1      -0.030  -0.787   1.017  0.00  0.00    +0.015 A 
ATOM      7  C   UNL     1       1.512  -2.746   0.791  0.00  0.00    +0.266 A 
ATOM      8  O   UNL     1       0.615  -3.550   0.969  0.00  0.00    -0.267 OA
ATOM      9  N   UNL     1       2.788  -3.158   0.572  0.00  0.00    -0.262 N 
ATOM     10  C   UNL     1       3.778  -2.240   0.382  0.00  0.00    +0.143 A 
ATOM     11  N   UNL     1       3.568  -0.955   0.398  0.00  0.00    -0.231 NA
ATOM     12  C   UNL     1       5.052  -3.020   0.166  0.00  0.00    +0.120 C 
ATOM     13  C   UNL     1       4.652  -4.464   0.260  0.00  0.00    +0.005 A 
ATOM     14  C   UNL     1       3.284  -4.470   0.504  0.00  0.00    +0.057 A 
ATOM     15  C   UNL     1       2.626  -5.690   0.641  0.00  0.00    +0.026 A 
ATOM     16  C   UNL     1       3.329  -6.872   0.533  0.00  0.00    +0.002 A 
ATOM     17  C   UNL     1       4.690  -6.855   0.289  0.00  0.00    +0.000 A 
ATOM     18  C   UNL     1       5.351  -5.646   0.152  0.00  0.00    +0.008 A 
ATOM     19  C   UNL     1       5.672  -2.695  -1.198  0.00  0.00    +0.121 C 
ATOM     20  C   UNL     1       7.205  -2.732  -0.951  0.00  0.00    +0.107 C 
ATOM     21  C   UNL     1       7.364  -3.054   0.547  0.00  0.00    +0.071 C 
ATOM     22  N   UNL     1       6.068  -2.674   1.174  0.00  0.00    -0.282 NA
ATOM     23  C   UNL     1       6.155  -1.201   1.317  0.00  0.00    +0.086 C 
ATOM     24  C   UNL     1       7.624  -0.917   1.691  0.00  0.00    +0.017 C 
ATOM     25  C   UNL     1       8.435  -2.130   1.155  0.00  0.00    +0.021 C 
ATOM     26  C   UNL     1       7.665  -3.907  -1.784  0.00  0.00    +0.232 C 
ATOM     27  O   UNL     1       8.809  -4.297  -1.874  0.00  0.00    -0.274 OA
ATOM     28  N   UNL     1       6.612  -4.450  -2.406  0.00  0.00    -0.210 N 
ATOM     29  C   UNL     1       5.430  -3.841  -2.154  0.00  0.00    +0.233 C 
ATOM     30  O   UNL     1       4.353  -4.156  -2.612  0.00  0.00    -0.274 OA
ENDROOT
BRANCH  28  31
ATOM     31  C   UNL     1       6.723  -5.558  -3.257  0.00  0.00    +0.044 A 
ATOM     32  C   UNL     1       6.476  -5.419  -4.616  0.00  0.00    +0.025 A 
ATOM     33  C   UNL     1       6.585  -6.512  -5.453  0.00  0.00    +0.022 A 
ATOM     34  C   UNL     1       6.942  -7.746  -4.938  0.00  0.00    +0.041 A 
ATOM     35  C   UNL     1       7.188  -7.888  -3.583  0.00  0.00    +0.022 A 
ATOM     36  C   UNL     1       7.086  -6.796  -2.744  0.00  0.00    +0.025 A 
ATOM     37 CL   UNL     1       7.079  -9.119  -5.992  0.00  0.00    -0.084 Cl
ENDBRANCH  28  31
TORSDOF 1
