REMARK  Name = ZINC08557879
REMARK  7 active torsions:
REMARK  status: ('A' for Active; 'I' for Inactive)
REMARK    1  A    between atoms: C_1  and  C_2
REMARK    2  A    between atoms: C_5  and  C_8
REMARK    3  A    between atoms: C_15  and  N_37
REMARK    4  A    between atoms: C_16  and  C_35
REMARK    5  A    between atoms: N_24  and  C_27
REMARK    6  A    between atoms: C_27  and  C_28
REMARK    7  A    between atoms: C_28  and  C_29
REMARK                            x       y       z     vdW  Elec       q    Type
REMARK                         _______ _______ _______ _____ _____    ______ ____
ROOT
ATOM      1  C   UNL     1      -0.817  -4.514  -0.675  0.00  0.00    +0.074 A 
ATOM      2  C   UNL     1      -1.450  -5.281   0.245  0.00  0.00    +0.066 A 
ATOM      3  C   UNL     1      -1.401  -6.620  -0.195  0.00  0.00    +0.246 A 
ATOM      4  N   UNL     1      -0.764  -6.655  -1.330  0.00  0.00    -0.135 NA
ATOM      5  N   UNL     1      -0.385  -5.346  -1.669  0.00  0.00    -0.273 N 
ATOM      6  H   UNL     1       0.099  -5.080  -2.466  0.00  0.00    +0.189 HD
ATOM      7  O   UNL     1      -1.958  -7.633   0.523  0.00  0.00    -0.421 OA
ATOM      8  C   UNL     1      -2.788  -7.305   1.533  0.00  0.00    +0.201 C 
ATOM      9  C   UNL     1      -2.913  -6.060   2.045  0.00  0.00    +0.110 C 
ATOM     10  C   UNL     1      -2.119  -4.891   1.533  0.00  0.00    +0.145 C 
ATOM     11  C   UNL     1      -1.121  -4.423   2.543  0.00  0.00    -0.001 A 
ATOM     12  C   UNL     1      -0.053  -5.061   3.138  0.00  0.00    +0.007 A 
ATOM     13  C   UNL     1       0.690  -4.326   4.055  0.00  0.00    +0.000 A 
ATOM     14  C   UNL     1       0.370  -3.017   4.354  0.00  0.00    +0.002 A 
ATOM     15  C   UNL     1      -0.702  -2.369   3.761  0.00  0.00    +0.024 A 
ATOM     16  C   UNL     1      -1.457  -3.096   2.839  0.00  0.00    +0.041 A 
ATOM     17  N   UNL     1      -2.566  -2.706   2.109  0.00  0.00    -0.269 N 
ATOM     18  C   UNL     1      -3.023  -3.698   1.315  0.00  0.00    +0.240 C 
ATOM     19  O   UNL     1      -3.977  -3.642   0.568  0.00  0.00    -0.274 OA
ENDROOT
BRANCH   1  24
ATOM     20  C   UNL     1      -0.103   1.193  -0.449  0.00  0.00    +0.044 C 
ATOM     21  C   UNL     1      -0.290  -0.301  -0.508  0.00  0.00    -0.050 A 
ATOM     22  C   UNL     1      -0.931  -0.873  -1.592  0.00  0.00    +0.004 A 
ATOM     23  C   UNL     1      -1.106  -2.240  -1.652  0.00  0.00    +0.010 A 
ATOM     24  C   UNL     1      -0.633  -3.047  -0.617  0.00  0.00    +0.000 A 
ATOM     25  C   UNL     1       0.014  -2.465   0.473  0.00  0.00    +0.010 A 
ATOM     26  C   UNL     1       0.187  -1.096   0.519  0.00  0.00    +0.004 A 
ENDBRANCH   1  24
BRANCH   8  27
ATOM     27  N   UNL     1      -3.559  -8.301   2.077  0.00  0.00    -0.328 N 
ATOM     28  H   UNL     1      -3.495  -9.206   1.734  0.00  0.00    +0.145 HD
ATOM     29  H   UNL     1      -4.167  -8.101   2.806  0.00  0.00    +0.145 HD
ENDBRANCH   8  27
BRANCH   9  30
ATOM     30  C   UNL     1      -3.836  -5.847   3.119  0.00  0.00    +0.102 C 
ATOM     31  N   UNL     1      -4.568  -5.679   3.971  0.00  0.00    -0.191 NA
ENDBRANCH   9  30
BRANCH  17  32
ATOM     32  C   UNL     1      -3.172  -1.375   2.188  0.00  0.00    +0.118 C 
BRANCH  32  33
ATOM     33  C   UNL     1      -2.530  -0.460   1.144  0.00  0.00    +0.054 C 
BRANCH  33  34
ATOM     34  C   UNL     1      -3.254   0.862   1.122  0.00  0.00    -0.046 A 
ATOM     35  C   UNL     1      -4.339   1.042   0.284  0.00  0.00    +0.004 A 
ATOM     36  C   UNL     1      -5.003   2.255   0.264  0.00  0.00    +0.000 A 
ATOM     37  C   UNL     1      -4.582   3.287   1.082  0.00  0.00    +0.000 A 
ATOM     38  C   UNL     1      -3.498   3.106   1.920  0.00  0.00    +0.000 A 
ATOM     39  C   UNL     1      -2.837   1.892   1.943  0.00  0.00    +0.004 A 
ENDBRANCH  33  34
ENDBRANCH  32  33
ENDBRANCH  17  32
TORSDOF 6
