REMARK  Name = ZINC39479584
REMARK  6 active torsions:
REMARK  status: ('A' for Active; 'I' for Inactive)
REMARK    1  A    between atoms: C_1  and  N_2
REMARK    2  A    between atoms: C_6  and  S_10
REMARK    3  A    between atoms: C_8  and  O_9
REMARK    4  A    between atoms: S_10  and  C_11
REMARK    5  A    between atoms: C_13  and  C_22
REMARK    6  A    between atoms: C_27  and  O_28
REMARK                            x       y       z     vdW  Elec       q    Type
REMARK                         _______ _______ _______ _____ _____    ______ ____
ROOT
ATOM      1  C   UNL     1       0.292   1.490   0.083  0.00  0.00    +0.137 C 
ATOM      2  N   UNL     1       0.341   0.026   0.066  0.00  0.00    -0.283 N 
ATOM      3  C   UNL     1      -0.894  -0.583  -0.009  0.00  0.00    +0.080 A 
ATOM      4  C   UNL     1      -1.927   0.142   0.548  0.00  0.00    -0.016 A 
ATOM      5  C   UNL     1      -3.219   0.051   0.167  0.00  0.00    +0.020 A 
ATOM      6  C   UNL     1      -3.551  -1.070  -0.612  0.00  0.00    +0.011 A 
ATOM      7  C   UNL     1      -2.564  -1.993  -0.945  0.00  0.00    +0.062 A 
ATOM      8  C   UNL     1      -1.225  -1.764  -0.652  0.00  0.00    +0.139 A 
ATOM      9  C   UNL     1      -1.551   0.611   1.982  0.00  0.00    +0.093 C 
ATOM     10  C   UNL     1      -0.165   0.005   2.141  0.00  0.00    +0.057 C 
ATOM     11  N   UNL     1       0.984   0.599   2.056  0.00  0.00    -0.245 NA
ATOM     12  C   UNL     1       2.001  -0.106   1.495  0.00  0.00    +0.141 A 
ATOM     13  C   UNL     1       1.599  -0.494   0.122  0.00  0.00    +0.156 A 
ATOM     14  N   UNL     1       2.418  -1.152  -0.608  0.00  0.00    -0.218 NA
ATOM     15  C   UNL     1       3.615  -1.497  -0.142  0.00  0.00    +0.225 A 
ATOM     16  N   UNL     1       4.015  -1.183   1.075  0.00  0.00    -0.222 NA
ATOM     17  C   UNL     1       3.232  -0.492   1.924  0.00  0.00    +0.160 A 
ATOM     18 CL   UNL     1       3.778  -0.092   3.522  0.00  0.00    -0.060 Cl
ENDROOT
BRANCH  10  19
ATOM     19  C   UNL     1      -0.123  -1.437   2.427  0.00  0.00    +0.038 A 
ATOM     20  C   UNL     1       0.379  -2.329   1.474  0.00  0.00    +0.013 A 
ATOM     21  C   UNL     1       0.415  -3.679   1.748  0.00  0.00    +0.001 A 
ATOM     22  C   UNL     1      -0.043  -4.157   2.965  0.00  0.00    +0.004 A 
ATOM     23  C   UNL     1      -0.542  -3.287   3.916  0.00  0.00    +0.046 A 
ATOM     24  C   UNL     1      -0.582  -1.926   3.659  0.00  0.00    +0.126 A 
BRANCH  24  25
ATOM     25  O   UNL     1      -1.066  -1.070   4.595  0.00  0.00    -0.506 OA
ATOM     26  H   UNL     1      -2.029  -0.980   4.585  0.00  0.00    +0.292 HD
ENDBRANCH  24  25
ENDBRANCH  10  19
BRANCH   8  27
ATOM     27  O   UNL     1      -0.269  -2.671  -0.988  0.00  0.00    -0.505 OA
ATOM     28  H   UNL     1      -0.095  -3.331  -0.303  0.00  0.00    +0.292 HD
ENDBRANCH   8  27
BRANCH   6  29
ATOM     29  S   UNL     1      -5.208  -1.307  -1.164  0.00  0.00    -0.128 S 
ATOM     30  C   UNL     1      -5.139  -2.853  -2.109  0.00  0.00    +0.090 C 
ENDBRANCH   6  29
TORSDOF 4
