REMARK  Name = ZINC20152303
REMARK  10 active torsions:
REMARK  status: ('A' for Active; 'I' for Inactive)
REMARK    1  A    between atoms: C_1  and  C_2
REMARK    2  A    between atoms: C_4  and  N_15
REMARK    3  A    between atoms: C_7  and  C_8
REMARK    4  A    between atoms: C_11  and  C_13
REMARK    5  A    between atoms: C_13  and  O_14
REMARK    6  A    between atoms: N_15  and  C_16
REMARK    7  A    between atoms: C_16  and  N_18
REMARK    8  A    between atoms: C_19  and  C_21
REMARK    9  A    between atoms: C_30  and  O_31
REMARK   10  A    between atoms: O_31  and  C_32
REMARK                            x       y       z     vdW  Elec       q    Type
REMARK                         _______ _______ _______ _____ _____    ______ ____
ROOT
ATOM      1  C   UNL     1       0.148  -4.110  -2.432  0.00  0.00    +0.141 C 
ATOM      2  S   UNL     1       0.167  -4.981  -0.959  0.00  0.00    -0.018 S 
ENDROOT
BRANCH   1   3
ATOM      3  N   UNL     1       0.253  -4.766  -3.605  0.00  0.00    -0.263 N 
ATOM      4  C   UNL     1       0.373  -6.108  -3.618  0.00  0.00    +0.253 C 
ATOM      5  O   UNL     1       0.386  -6.727  -2.571  0.00  0.00    -0.270 OA
ATOM      6  H   UNL     1       0.242  -4.272  -4.439  0.00  0.00    +0.157 HD
BRANCH   4   7
ATOM      7  C   UNL     1       0.488  -6.826  -4.901  0.00  0.00    +0.079 A 
ATOM      8  C   UNL     1       0.478  -6.116  -6.091  0.00  0.00    +0.025 A 
ATOM      9  C   UNL     1       0.588  -6.804  -7.307  0.00  0.00    -0.017 A 
ATOM     10  C   UNL     1       0.581  -6.114  -8.534  0.00  0.00    +0.008 A 
ATOM     11  C   UNL     1       0.690  -6.810  -9.698  0.00  0.00    +0.001 A 
ATOM     12  C   UNL     1       0.808  -8.199  -9.695  0.00  0.00    +0.001 A 
ATOM     13  C   UNL     1       0.817  -8.900  -8.529  0.00  0.00    +0.008 A 
ATOM     14  C   UNL     1       0.708  -8.218  -7.305  0.00  0.00    -0.014 A 
ATOM     15  C   UNL     1       0.715  -8.915  -6.085  0.00  0.00    +0.055 A 
ATOM     16  C   UNL     1       0.613  -8.232  -4.909  0.00  0.00    +0.133 A 
BRANCH  16  17
ATOM     17  O   UNL     1       0.627  -8.912  -3.734  0.00  0.00    -0.494 OA
ATOM     18  C   UNL     1       0.756 -10.333  -3.809  0.00  0.00    +0.277 C 
ENDBRANCH  16  17
ENDBRANCH   4   7
ENDBRANCH   1   3
BRANCH   1  19
ATOM     19  N   UNL     1       0.028  -2.767  -2.419  0.00  0.00    -0.297 N 
ATOM     20  H   UNL     1      -0.063  -2.281  -3.253  0.00  0.00    +0.154 HD
BRANCH  19  24
ATOM     21  C   UNL     1       1.923  -2.146   2.071  0.00  0.00    +0.044 C 
ATOM     22  C   UNL     1       0.947  -1.756   0.991  0.00  0.00    -0.038 A 
ATOM     23  C   UNL     1       0.936  -2.435  -0.208  0.00  0.00    +0.027 A 
ATOM     24  C   UNL     1       0.036  -2.076  -1.204  0.00  0.00    +0.033 A 
ATOM     25  C   UNL     1      -0.857  -1.031  -0.995  0.00  0.00    +0.024 A 
ATOM     26  C   UNL     1      -0.852  -0.348   0.202  0.00  0.00    +0.013 A 
ATOM     27  C   UNL     1       0.047  -0.710   1.207  0.00  0.00    +0.020 A 
BRANCH  27  28
ATOM     28  C   UNL     1       0.051   0.016   2.494  0.00  0.00    +0.136 A 
ATOM     29  C   UNL     1       0.082   1.367   2.648  0.00  0.00    +0.050 A 
ATOM     30  C   UNL     1       0.072   1.618   4.035  0.00  0.00    +0.047 A 
ATOM     31  C   UNL     1       0.037   0.421   4.652  0.00  0.00    +0.131 A 
ATOM     32  O   UNL     1       0.019  -0.544   3.718  0.00  0.00    -0.457 OA
BRANCH  31  33
ATOM     33  C   UNL     1       0.016   0.202   6.143  0.00  0.00    +0.230 C 
BRANCH  33  34
ATOM     34  O   UNL     1      -1.337   0.165   6.600  0.00  0.00    -0.387 OA
ATOM     35  H   UNL     1      -1.427   0.026   7.553  0.00  0.00    +0.210 HD
ENDBRANCH  33  34
ENDBRANCH  31  33
ENDBRANCH  27  28
ENDBRANCH  19  24
ENDBRANCH   1  19
TORSDOF 8
