REMARK  Name = ZINC35956839
REMARK  12 active torsions:
REMARK  status: ('A' for Active; 'I' for Inactive)
REMARK    1  A    between atoms: C_1  and  C_2
REMARK    2  A    between atoms: C_2  and  C_3
REMARK    3  A    between atoms: C_2  and  C_4
REMARK    4  A    between atoms: C_4  and  N_5
REMARK    5  A    between atoms: C_6  and  C_8
REMARK    6  A    between atoms: C_12  and  N_18
REMARK    7  A    between atoms: C_19  and  C_21
REMARK    8  A    between atoms: C_21  and  C_22
REMARK    9  A    between atoms: C_22  and  C_23
REMARK   10  A    between atoms: C_23  and  C_24
REMARK   11  A    between atoms: C_24  and  C_25
REMARK   12  A    between atoms: C_25  and  N_26
REMARK                            x       y       z     vdW  Elec       q    Type
REMARK                         _______ _______ _______ _____ _____    ______ ____
ROOT
ATOM      1  C   UNL     1      -2.537  -4.152  -0.241  0.00  0.00    +0.103 A 
ATOM      2  C   UNL     1      -3.638  -4.948  -0.281  0.00  0.00    +0.041 A 
ATOM      3  C   UNL     1      -3.197  -6.288  -0.413  0.00  0.00    +0.002 A 
ATOM      4  C   UNL     1      -3.867  -7.515  -0.504  0.00  0.00    +0.033 A 
ATOM      5  C   UNL     1      -3.141  -8.682  -0.628  0.00  0.00    +0.034 A 
ATOM      6  C   UNL     1      -1.747  -8.643  -0.663  0.00  0.00    +0.025 A 
ATOM      7  C   UNL     1      -1.077  -7.445  -0.575  0.00  0.00    +0.028 A 
ATOM      8  C   UNL     1      -1.789  -6.256  -0.449  0.00  0.00    +0.047 A 
ATOM      9  N   UNL     1      -1.406  -4.938  -0.348  0.00  0.00    -0.351 N 
ATOM     10  H   UNL     1      -0.492  -4.614  -0.349  0.00  0.00    +0.166 HD
ENDROOT
BRANCH   1  12
ATOM     11  N   UNL     1      -1.388  -2.004  -0.086  0.00  0.00    -0.310 N 
ATOM     12  C   UNL     1      -2.549  -2.688  -0.110  0.00  0.00    +0.260 C 
ATOM     13  O   UNL     1      -3.607  -2.093  -0.022  0.00  0.00    -0.269 OA
ATOM     14  H   UNL     1      -0.544  -2.478  -0.156  0.00  0.00    +0.149 HD
BRANCH  11  15
ATOM     15  C   UNL     1      -1.399  -0.545   0.044  0.00  0.00    +0.107 C 
BRANCH  15  17
ATOM     16  C   UNL     1       0.024   1.509   0.055  0.00  0.00    +0.009 C 
ATOM     17  C   UNL     1       0.038  -0.021   0.044  0.00  0.00    -0.000 C 
ATOM     18  C   UNL     1       0.767  -0.533   1.288  0.00  0.00    +0.009 C 
ENDBRANCH  15  17
ENDBRANCH  11  15
ENDBRANCH   1  12
BRANCH   5  19
ATOM     19  N   UNL     1      -3.807  -9.911  -0.719  0.00  0.00    -0.285 N 
ATOM     20  C   UNL     1      -3.307 -10.893  -1.495  0.00  0.00    +0.217 C 
ATOM     21  O   UNL     1      -2.238 -10.743  -2.048  0.00  0.00    -0.275 OA
ATOM     22  H   UNL     1      -4.628 -10.055  -0.224  0.00  0.00    +0.155 HD
BRANCH  20  23
ATOM     23  C   UNL     1      -4.075 -12.177  -1.675  0.00  0.00    +0.096 C 
BRANCH  23  24
ATOM     24  C   UNL     1      -3.292 -13.115  -2.595  0.00  0.00    +0.009 C 
BRANCH  24  25
ATOM     25  C   UNL     1      -4.073 -14.418  -2.778  0.00  0.00    -0.001 C 
BRANCH  25  26
ATOM     26  C   UNL     1      -3.290 -15.357  -3.698  0.00  0.00    -0.020 C 
BRANCH  26  27
ATOM     27  C   UNL     1      -4.070 -16.660  -3.881  0.00  0.00    -0.086 C 
BRANCH  27  28
ATOM     28  N   UNL     1      -3.318 -17.561  -4.765  0.00  0.00    +0.378 N 
ATOM     29  H   UNL     1      -3.833 -18.421  -4.885  0.00  0.00    -0.090 HD
ATOM     30  H   UNL     1      -3.186 -17.119  -5.662  0.00  0.00    -0.090 HD
ATOM     31  H   UNL     1      -2.419 -17.762  -4.354  0.00  0.00    -0.090 HD
ENDBRANCH  27  28
ENDBRANCH  26  27
ENDBRANCH  25  26
ENDBRANCH  24  25
ENDBRANCH  23  24
ENDBRANCH  20  23
ENDBRANCH   5  19
TORSDOF 10
