REMARK  Name = ZINC65284513
REMARK  8 active torsions:
REMARK  status: ('A' for Active; 'I' for Inactive)
REMARK    1  A    between atoms: C_1  and  C_2
REMARK    2  A    between atoms: C_2  and  C_3
REMARK    3  A    between atoms: N_5  and  C_6
REMARK    4  A    between atoms: C_6  and  C_7
REMARK    5  A    between atoms: N_11  and  C_12
REMARK    6  A    between atoms: C_17  and  C_19
REMARK    7  A    between atoms: C_19  and  C_20
REMARK    8  A    between atoms: C_23  and  C_26
REMARK                            x       y       z     vdW  Elec       q    Type
REMARK                         _______ _______ _______ _____ _____    ______ ____
ROOT
ATOM      1  C   UNL     1       1.603  -3.820   2.606  0.00  0.00    +0.105 A 
ATOM      2  N   UNL     1       2.575  -4.566   2.149  0.00  0.00    -0.345 N 
ATOM      3  C   UNL     1       2.250  -5.853   2.303  0.00  0.00    +0.040 A 
ATOM      4  C   UNL     1       1.031  -5.906   2.880  0.00  0.00    +0.057 A 
ATOM      5  N   UNL     1       0.621  -4.624   3.076  0.00  0.00    -0.333 N 
ATOM      6  C   UNL     1      -0.643  -4.195   3.678  0.00  0.00    +0.150 C 
ATOM      7  C   UNL     1       0.314  -7.186   3.229  0.00  0.00    +0.162 C 
ATOM      8  N   UNL     1       1.051  -8.289   2.586  0.00  0.00    -0.295 N 
ATOM      9  C   UNL     1       2.519  -8.286   2.665  0.00  0.00    +0.114 C 
ATOM     10  C   UNL     1       3.061  -7.064   1.913  0.00  0.00    +0.074 C 
ATOM     11  C   UNL     1       0.395  -9.276   1.943  0.00  0.00    +0.220 C 
ATOM     12  O   UNL     1      -0.816  -9.264   1.887  0.00  0.00    -0.275 OA
ATOM     13  H   UNL     1       3.400  -4.237   1.759  0.00  0.00    +0.167 HD
ENDROOT
BRANCH   1  14
ATOM     14  C   UNL     1       1.583  -2.313   2.615  0.00  0.00    +0.176 C 
BRANCH  14  17
ATOM     15  C   UNL     1       0.731  -0.503   1.223  0.00  0.00    +0.213 C 
ATOM     16  O   UNL     1       1.189   0.287   2.021  0.00  0.00    -0.276 OA
ATOM     17  N   UNL     1       0.874  -1.828   1.428  0.00  0.00    -0.308 N 
ATOM     18  H   UNL     1       0.508  -2.459   0.789  0.00  0.00    +0.149 HD
BRANCH  15  20
ATOM     19  C   UNL     1      -0.019   1.526   0.010  0.00  0.00    +0.013 C 
ATOM     20  C   UNL     1       0.002  -0.004   0.002  0.00  0.00    +0.092 C 
ENDBRANCH  15  20
ENDBRANCH  14  17
ENDBRANCH   1  14
BRANCH  11  21
ATOM     21  C   UNL     1       1.168 -10.394   1.292  0.00  0.00    +0.131 C 
BRANCH  21  22
ATOM     22  C   UNL     1       0.207 -11.359   0.646  0.00  0.00    -0.039 A 
ATOM     23  C   UNL     1      -0.290 -12.427   1.369  0.00  0.00    +0.004 A 
ATOM     24  C   UNL     1      -1.171 -13.312   0.776  0.00  0.00    +0.003 A 
ATOM     25  C   UNL     1      -1.555 -13.129  -0.539  0.00  0.00    -0.050 A 
ATOM     26  C   UNL     1      -1.058 -12.060  -1.262  0.00  0.00    +0.003 A 
ATOM     27  C   UNL     1      -0.180 -11.173  -0.668  0.00  0.00    +0.004 A 
ATOM     28  C   UNL     1      -2.515 -14.094  -1.185  0.00  0.00    +0.044 C 
ENDBRANCH  21  22
ENDBRANCH  11  21
TORSDOF 5
