REMARK  Name = ZINC36029689
REMARK  12 active torsions:
REMARK  status: ('A' for Active; 'I' for Inactive)
REMARK    1  A    between atoms: C_1  and  C_2
REMARK    2  A    between atoms: C_2  and  C_3
REMARK    3  A    between atoms: C_2  and  C_4
REMARK    4  A    between atoms: C_4  and  C_5
REMARK    5  A    between atoms: N_9  and  C_23
REMARK    6  A    between atoms: C_17  and  C_19
REMARK    7  A    between atoms: C_23  and  C_24
REMARK    8  A    between atoms: C_24  and  C_25
REMARK    9  A    between atoms: C_28  and  O_33
REMARK   10  A    between atoms: C_29  and  O_31
REMARK   11  A    between atoms: O_31  and  C_32
REMARK   12  A    between atoms: O_33  and  C_34
REMARK                            x       y       z     vdW  Elec       q    Type
REMARK                         _______ _______ _______ _____ _____    ______ ____
ROOT
ATOM      1  C   UNL     1      -1.176  -2.221  -0.452  0.00  0.00    +0.019 C 
ATOM      2  C   UNL     1      -2.606  -2.673  -0.247  0.00  0.00    +0.200 C 
ATOM      3  O   UNL     1      -3.365  -2.260   0.605  0.00  0.00    -0.277 OA
ATOM      4  N   UNL     1      -2.895  -3.611  -1.172  0.00  0.00    -0.313 N 
ATOM      5  C   UNL     1      -1.721  -3.843  -2.018  0.00  0.00    +0.006 C 
ATOM      6  N   UNL     1      -0.823  -2.684  -1.815  0.00  0.00    +0.401 N 
ATOM      7  C   UNL     1      -2.134  -3.926  -3.486  0.00  0.00    +0.025 C 
ATOM      8  C   UNL     1      -3.093  -5.107  -3.678  0.00  0.00    +0.108 C 
ATOM      9  N   UNL     1      -2.457  -6.322  -3.150  0.00  0.00    -0.301 N 
ATOM     10  C   UNL     1      -1.958  -6.316  -1.768  0.00  0.00    +0.108 C 
ATOM     11  C   UNL     1      -1.009  -5.125  -1.593  0.00  0.00    +0.025 C 
ATOM     12  C   UNL     1      -2.335  -7.422  -3.919  0.00  0.00    +0.219 C 
ATOM     13  O   UNL     1      -2.752  -7.414  -5.058  0.00  0.00    -0.275 OA
ATOM     14  H   UNL     1      -1.011  -1.964  -2.497  0.00  0.00    -0.082 HD
ATOM     15  H   UNL     1       0.144  -2.970  -1.855  0.00  0.00    -0.082 HD
ENDROOT
BRANCH  12  16
ATOM     16  C   UNL     1      -1.681  -8.661  -3.364  0.00  0.00    +0.075 C 
ATOM     17  C   UNL     1      -0.145  -8.627  -3.428  0.00  0.00    +0.013 C 
ATOM     18  C   UNL     1      -0.208 -10.112  -3.826  0.00  0.00    +0.001 C 
ATOM     19  C   UNL     1      -1.619  -9.826  -4.365  0.00  0.00    +0.013 C 
ENDBRANCH  12  16
BRANCH   1  20
ATOM     20  C   UNL     1      -1.082  -0.697  -0.366  0.00  0.00    -0.004 C 
BRANCH  20  22
ATOM     21  C   UNL     1       0.458   1.261  -0.564  0.00  0.00    +0.007 C 
ATOM     22  C   UNL     1       0.378  -0.266  -0.525  0.00  0.00    -0.018 C 
ATOM     23  C   UNL     1       1.196  -0.790   0.657  0.00  0.00    +0.007 C 
ENDBRANCH  20  22
ENDBRANCH   1  20
BRANCH   4  24
ATOM     24  C   UNL     1      -4.184  -4.294  -1.311  0.00  0.00    +0.110 C 
BRANCH  24  25
ATOM     25  C   UNL     1      -5.099  -3.475  -2.224  0.00  0.00    +0.054 C 
BRANCH  25  26
ATOM     26  C   UNL     1      -6.406  -4.203  -2.409  0.00  0.00    -0.042 A 
ATOM     27  C   UNL     1      -6.553  -5.106  -3.446  0.00  0.00    +0.007 A 
ATOM     28  C   UNL     1      -7.749  -5.775  -3.619  0.00  0.00    +0.049 A 
ATOM     29  C   UNL     1      -8.805  -5.543  -2.752  0.00  0.00    +0.161 A 
ATOM     30  C   UNL     1      -8.657  -4.635  -1.708  0.00  0.00    +0.162 A 
ATOM     31  C   UNL     1      -7.454  -3.971  -1.537  0.00  0.00    +0.053 A 
BRANCH  30  32
ATOM     32  O   UNL     1      -9.691  -4.404  -0.855  0.00  0.00    -0.491 OA
ATOM     33  C   UNL     1      -9.467  -3.459   0.194  0.00  0.00    +0.277 C 
ENDBRANCH  30  32
BRANCH  29  34
ATOM     34  O   UNL     1      -9.983  -6.201  -2.922  0.00  0.00    -0.491 OA
ATOM     35  C   UNL     1     -10.063  -7.118  -4.015  0.00  0.00    +0.277 C 
ENDBRANCH  29  34
ENDBRANCH  25  26
ENDBRANCH  24  25
ENDBRANCH   4  24
TORSDOF 8
