REMARK  Name = ZINC22429370
REMARK  10 active torsions:
REMARK  status: ('A' for Active; 'I' for Inactive)
REMARK    1  A    between atoms: C_1  and  C_2
REMARK    2  A    between atoms: C_7  and  N_8
REMARK    3  A    between atoms: N_8  and  C_9
REMARK    4  A    between atoms: N_8  and  S_26
REMARK    5  A    between atoms: C_9  and  C_10
REMARK    6  A    between atoms: N_12  and  C_13
REMARK    7  A    between atoms: C_13  and  C_14
REMARK    8  A    between atoms: C_17  and  N_20
REMARK    9  A    between atoms: C_24  and  C_25
REMARK   10  A    between atoms: S_26  and  C_29
REMARK                            x       y       z     vdW  Elec       q    Type
REMARK                         _______ _______ _______ _____ _____    ______ ____
ROOT
ATOM      1  C   UNL     1       5.028  -0.373  -1.749  0.00  0.00    +0.227 C 
ENDROOT
BRANCH   1   2
ATOM      2  C   UNL     1       6.407  -0.908  -1.461  0.00  0.00    +0.232 C 
ATOM      3  O   UNL     1       6.539  -1.968  -0.887  0.00  0.00    -0.274 OA
ATOM      4  N   UNL     1       7.494  -0.207  -1.840  0.00  0.00    -0.310 N 
ATOM      5  H   UNL     1       7.375   0.754  -2.361  0.00  0.00    +0.149 HD
BRANCH   4   6
ATOM      6  C   UNL     1       8.835  -0.727  -1.560  0.00  0.00    +0.139 C 
BRANCH   6   7
ATOM      7  C   UNL     1       9.867   0.239  -2.083  0.00  0.00    -0.030 A 
ATOM      8  C   UNL     1      10.344   0.107  -3.374  0.00  0.00    +0.007 A 
ATOM      9  C   UNL     1      11.286   0.993  -3.858  0.00  0.00    +0.026 A 
ATOM     10  C   UNL     1      11.763   2.010  -3.042  0.00  0.00    +0.048 A 
ATOM     11  C   UNL     1      11.287   2.137  -1.745  0.00  0.00    +0.026 A 
ATOM     12  C   UNL     1      10.341   1.251  -1.268  0.00  0.00    +0.007 A 
BRANCH  10  13
ATOM     13  N   UNL     1      12.724   2.909  -3.529  0.00  0.00    -0.305 N 
ATOM     14  C   UNL     1      12.667   4.277  -3.463  0.00  0.00    +0.110 A 
ATOM     15  C   UNL     1      13.789   4.742  -4.046  0.00  0.00    +0.102 A 
ATOM     16  N   UNL     1      14.514   3.691  -4.457  0.00  0.00    -0.350 N 
ATOM     17  C   UNL     1      13.889   2.588  -4.149  0.00  0.00    +0.088 A 
ATOM     18  C   UNL     1      14.377   1.191  -4.436  0.00  0.00    +0.084 C 
ATOM     19  H   UNL     1      15.475   3.852  -4.967  0.00  0.00    +0.166 HD
ENDBRANCH  10  13
ENDBRANCH   6   7
ENDBRANCH   4   6
ENDBRANCH   1   2
BRANCH   1  20
ATOM     20  N   UNL     1       4.024  -1.312  -1.241  0.00  0.00    -0.194 N 
BRANCH  20  27
ATOM     21  C   UNL     1       1.759  -0.980  -2.929  0.00  0.00    +0.046 C 
ATOM     22  C   UNL     1       2.522  -2.279  -2.863  0.00  0.00    -0.028 A 
ATOM     23  C   UNL     1       2.126  -3.352  -3.637  0.00  0.00    +0.006 A 
ATOM     24  C   UNL     1       2.825  -4.544  -3.578  0.00  0.00    +0.020 A 
ATOM     25  C   UNL     1       3.923  -4.665  -2.743  0.00  0.00    +0.043 A 
ATOM     26  C   UNL     1       4.326  -3.593  -1.970  0.00  0.00    +0.045 A 
ATOM     27  C   UNL     1       3.622  -2.396  -2.024  0.00  0.00    +0.056 A 
ATOM     28 CL   UNL     1       4.798  -6.163  -2.673  0.00  0.00    -0.083 Cl
ENDBRANCH  20  27
BRANCH  20  29
ATOM     29  S   UNL     1       3.367  -1.087   0.262  0.00  0.00    +0.075 S 
ATOM     30  O   UNL     1       4.270  -0.259   0.981  0.00  0.00    -0.150 OA
ATOM     31  O   UNL     1       2.973  -2.370   0.729  0.00  0.00    -0.150 OA
BRANCH  29  32
ATOM     32  C   UNL     1       1.888  -0.153   0.049  0.00  0.00    +0.109 A 
ATOM     33  C   UNL     1       0.664  -0.795   0.017  0.00  0.00    +0.029 A 
ATOM     34  C   UNL     1      -0.496  -0.062  -0.150  0.00  0.00    +0.002 A 
ATOM     35  C   UNL     1      -0.433   1.312  -0.284  0.00  0.00    +0.000 A 
ATOM     36  C   UNL     1       0.791   1.954  -0.251  0.00  0.00    +0.002 A 
ATOM     37  C   UNL     1       1.952   1.221  -0.084  0.00  0.00    +0.029 A 
ENDBRANCH  29  32
ENDBRANCH  20  29
ENDBRANCH   1  20
TORSDOF 8
