REMARK  Name = ZINC20291654
REMARK  9 active torsions:
REMARK  status: ('A' for Active; 'I' for Inactive)
REMARK    1  A    between atoms: C_1  and  C_2
REMARK    2  A    between atoms: N_4  and  C_5
REMARK    3  A    between atoms: C_9  and  N_11
REMARK    4  A    between atoms: C_12  and  C_14
REMARK    5  A    between atoms: C_14  and  S_15
REMARK    6  A    between atoms: S_15  and  C_16
REMARK    7  A    between atoms: N_20  and  N_21
REMARK    8  A    between atoms: N_22  and  N_23
REMARK    9  A    between atoms: C_24  and  C_25
REMARK                            x       y       z     vdW  Elec       q    Type
REMARK                         _______ _______ _______ _____ _____    ______ ____
ROOT
ATOM      1  C   UNL     1      -5.681  -9.742   0.603  0.00  0.00    +0.210 A 
ATOM      2  N   UNL     1      -6.849  -9.153   0.504  0.00  0.00    -0.119 NA
ATOM      3  N   UNL     1      -7.840 -10.137   0.611  0.00  0.00    -0.109 NA
ATOM      4  C   UNL     1      -7.246 -11.295   0.773  0.00  0.00    +0.254 A 
ATOM      5  N   UNL     1      -5.896 -11.081   0.766  0.00  0.00    -0.211 N 
ATOM      6  N   UNL     1      -7.877 -12.522   0.919  0.00  0.00    -0.204 N 
ATOM      7  H   UNL     1      -7.349 -13.328   1.034  0.00  0.00    +0.177 HD
ENDROOT
BRANCH   5   8
ATOM      8  N   UNL     1      -4.930 -12.038   0.901  0.00  0.00    -0.294 N 
ATOM      9  H   UNL     1      -4.691 -12.176   1.872  0.00  0.00    +0.163 HD
ATOM     10  H   UNL     1      -5.219 -12.906   0.474  0.00  0.00    +0.163 HD
ENDBRANCH   5   8
BRANCH   6  11
ATOM     11  N   UNL     1      -9.275 -12.597   0.901  0.00  0.00    -0.188 NA
ATOM     12  C   UNL     1      -9.866 -13.746   1.038  0.00  0.00    +0.138 C 
BRANCH  12  13
ATOM     13  C   UNL     1     -11.338 -13.825   1.018  0.00  0.00    -0.005 A 
ATOM     14  C   UNL     1     -12.101 -12.667   0.847  0.00  0.00    +0.009 A 
ATOM     15  C   UNL     1     -13.478 -12.749   0.830  0.00  0.00    +0.001 A 
ATOM     16  C   UNL     1     -14.103 -13.973   0.982  0.00  0.00    +0.000 A 
ATOM     17  C   UNL     1     -13.354 -15.124   1.152  0.00  0.00    +0.001 A 
ATOM     18  C   UNL     1     -11.977 -15.059   1.165  0.00  0.00    +0.009 A 
ENDBRANCH  12  13
ENDBRANCH   6  11
BRANCH   1  19
ATOM     19  S   UNL     1      -4.110  -8.946   0.531  0.00  0.00    -0.075 S 
BRANCH  19  20
ATOM     20  C   UNL     1      -4.517  -7.193   0.306  0.00  0.00    +0.173 C 
BRANCH  20  22
ATOM     21  N   UNL     1      -3.302  -5.052   0.060  0.00  0.00    -0.285 N 
ATOM     22  C   UNL     1      -3.245  -6.388   0.228  0.00  0.00    +0.227 C 
ATOM     23  O   UNL     1      -2.170  -6.943   0.316  0.00  0.00    -0.275 OA
ATOM     24  H   UNL     1      -4.158  -4.617  -0.077  0.00  0.00    +0.155 HD
BRANCH  21  29
ATOM     25  C   UNL     1      -0.968  -2.267   0.650  0.00  0.00    +0.035 A 
ATOM     26  C   UNL     1       0.206  -2.797   0.128  0.00  0.00    +0.023 A 
ATOM     27  C   UNL     1       0.211  -4.069  -0.412  0.00  0.00    +0.004 A 
ATOM     28  C   UNL     1      -0.950  -4.817  -0.435  0.00  0.00    +0.023 A 
ATOM     29  C   UNL     1      -2.127  -4.293   0.085  0.00  0.00    +0.035 A 
ATOM     30  C   UNL     1      -2.134  -3.019   0.633  0.00  0.00    +0.046 A 
BRANCH  25  34
ATOM     31  C   UNL     1      -1.676   0.652   2.918  0.00  0.00    +0.109 C 
ATOM     32  C   UNL     1      -1.748  -0.704   2.264  0.00  0.00    +0.214 C 
ATOM     33  O   UNL     1      -2.505  -1.546   2.698  0.00  0.00    -0.276 OA
ATOM     34  N   UNL     1      -0.972  -0.980   1.197  0.00  0.00    -0.286 N 
ATOM     35  H   UNL     1      -0.417  -0.285   0.809  0.00  0.00    +0.155 HD
ENDBRANCH  25  34
ENDBRANCH  21  29
ENDBRANCH  20  22
ENDBRANCH  19  20
ENDBRANCH   1  19
TORSDOF 8
