REMARK  Name = ZINC17216045
REMARK  9 active torsions:
REMARK  status: ('A' for Active; 'I' for Inactive)
REMARK    1  A    between atoms: C_1  and  C_2
REMARK    2  A    between atoms: C_2  and  C_4
REMARK    3  A    between atoms: C_8  and  N_10
REMARK    4  A    between atoms: C_11  and  C_13
REMARK    5  A    between atoms: C_13  and  C_20
REMARK    6  A    between atoms: N_14  and  N_15
REMARK    7  A    between atoms: N_15  and  C_16
REMARK    8  A    between atoms: C_16  and  N_18
REMARK    9  A    between atoms: N_18  and  N_19
REMARK                            x       y       z     vdW  Elec       q    Type
REMARK                         _______ _______ _______ _____ _____    ______ ____
ROOT
ATOM      1  C   UNL     1      -3.151   4.984  -0.191  0.00  0.00    +0.145 C 
ATOM      2  N   UNL     1      -2.538   4.088  -0.909  0.00  0.00    -0.179 NA
ENDROOT
BRANCH   1   3
ATOM      3  C   UNL     1      -2.432   6.243   0.217  0.00  0.00    +0.224 C 
ATOM      4  C   UNL     1      -1.915   6.098   1.625  0.00  0.00    +0.239 C 
ATOM      5  O   UNL     1      -2.564   6.578   2.531  0.00  0.00    -0.274 OA
ATOM      6  N   UNL     1      -0.782   5.471   1.922  0.00  0.00    -0.283 N 
ATOM      7  C   UNL     1       0.145   4.959   1.022  0.00  0.00    +0.049 A 
ATOM      8  C   UNL     1       1.080   4.027   1.470  0.00  0.00    +0.024 A 
ATOM      9  C   UNL     1       1.997   3.487   0.593  0.00  0.00    +0.002 A 
ATOM     10  C   UNL     1       1.997   3.865  -0.738  0.00  0.00    +0.001 A 
ATOM     11  C   UNL     1       1.076   4.793  -1.189  0.00  0.00    +0.019 A 
ATOM     12  C   UNL     1       0.159   5.336  -0.314  0.00  0.00    +0.061 A 
ATOM     13  S   UNL     1      -1.014   6.525  -0.888  0.00  0.00    +0.074 S 
ATOM     14  O   UNL     1      -0.415   7.776  -0.580  0.00  0.00    -0.251 OA
ATOM     15  H   UNL     1      -0.499   5.313   2.974  0.00  0.00    +0.155 HD
ENDBRANCH   1   3
BRANCH   1  17
ATOM     16  N   UNL     1      -5.227   5.758   0.824  0.00  0.00    -0.280 N 
ATOM     17  C   UNL     1      -4.541   4.768   0.220  0.00  0.00    +0.266 C 
ATOM     18  O   UNL     1      -5.076   3.694   0.017  0.00  0.00    -0.268 OA
ATOM     19  H   UNL     1      -4.788   6.764   0.901  0.00  0.00    +0.155 HD
BRANCH  16  24
ATOM     20  C   UNL     1      -8.727   6.251   1.875  0.00  0.00    +0.019 A 
ATOM     21  C   UNL     1      -9.016   4.990   2.407  0.00  0.00    +0.011 A 
ATOM     22  C   UNL     1      -8.050   4.005   2.407  0.00  0.00    +0.002 A 
ATOM     23  C   UNL     1      -6.796   4.259   1.883  0.00  0.00    +0.023 A 
ATOM     24  C   UNL     1      -6.498   5.508   1.352  0.00  0.00    +0.034 A 
ATOM     25  C   UNL     1      -7.457   6.508   1.351  0.00  0.00    +0.034 A 
BRANCH  20  27
ATOM     26  C   UNL     1     -11.121   7.026   2.445  0.00  0.00    +0.091 C 
ATOM     27  C   UNL     1      -9.755   7.305   1.873  0.00  0.00    +0.160 C 
ATOM     28  O   UNL     1      -9.502   8.398   1.412  0.00  0.00    -0.292 OA
ENDBRANCH  20  27
ENDBRANCH  16  24
ENDBRANCH   1  17
BRANCH   2  29
ATOM     29  N   UNL     1      -3.247   2.988  -1.411  0.00  0.00    -0.217 N 
ATOM     30  H   UNL     1      -4.300   2.838  -1.131  0.00  0.00    +0.176 HD
BRANCH  29  31
ATOM     31  C   UNL     1      -2.638   2.115  -2.237  0.00  0.00    +0.164 C 
ATOM     32  S   UNL     1      -3.522   0.809  -2.905  0.00  0.00    -0.016 S 
BRANCH  31  33
ATOM     33  N   UNL     1      -1.334   2.272  -2.542  0.00  0.00    -0.264 N 
ATOM     34  H   UNL     1      -0.809   1.502  -3.127  0.00  0.00    +0.168 HD
BRANCH  33  35
ATOM     35  N   UNL     1      -0.665   3.387  -2.125  0.00  0.00    -0.255 NA
ATOM     36  H   UNL     1       0.379   3.337  -2.466  0.00  0.00    +0.140 HD
ATOM     37  H   UNL     1      -1.146   4.282  -2.546  0.00  0.00    +0.140 HD
ENDBRANCH  33  35
ENDBRANCH  31  33
ENDBRANCH  29  31
ENDBRANCH   2  29
TORSDOF 8
