REMARK  Name = ZINC13066358
REMARK  12 active torsions:
REMARK  status: ('A' for Active; 'I' for Inactive)
REMARK    1  A    between atoms: C_1  and  C_2
REMARK    2  A    between atoms: C_2  and  C_13
REMARK    3  A    between atoms: N_3  and  N_4
REMARK    4  A    between atoms: N_4  and  C_5
REMARK    5  A    between atoms: C_8  and  C_11
REMARK    6  A    between atoms: C_16  and  S_19
REMARK    7  A    between atoms: S_19  and  N_22
REMARK    8  A    between atoms: N_22  and  C_23
REMARK    9  A    between atoms: N_22  and  C_24
REMARK   10  A    between atoms: C_24  and  C_25
REMARK   11  A    between atoms: C_25  and  C_26
REMARK   12  A    between atoms: C_26  and  C_27
REMARK                            x       y       z     vdW  Elec       q    Type
REMARK                         _______ _______ _______ _____ _____    ______ ____
ROOT
ATOM      1  C   UNL     1      -2.406   5.573   0.044  0.00  0.00    -0.002 A 
ATOM      2  C   UNL     1      -3.624   6.257   0.047  0.00  0.00    +0.011 A 
ATOM      3  C   UNL     1      -3.637   7.636   0.060  0.00  0.00    +0.029 A 
ATOM      4  C   UNL     1      -2.447   8.342   0.058  0.00  0.00    +0.106 A 
ATOM      5  C   UNL     1      -1.236   7.672   0.049  0.00  0.00    +0.029 A 
ATOM      6  C   UNL     1      -1.208   6.293   0.042  0.00  0.00    +0.011 A 
ENDROOT
BRANCH   1   8
ATOM      7  C   UNL     1      -3.678   3.326   0.037  0.00  0.00    +0.068 C 
ATOM      8  C   UNL     1      -2.384   4.099   0.036  0.00  0.00    +0.063 C 
ATOM      9  N   UNL     1      -1.250   3.466   0.027  0.00  0.00    -0.187 NA
BRANCH   9  10
ATOM     10  N   UNL     1      -1.230   2.066   0.019  0.00  0.00    -0.238 N 
ATOM     11  H   UNL     1      -2.063   1.568   0.020  0.00  0.00    +0.174 HD
BRANCH  10  12
ATOM     12  C   UNL     1      -0.017   1.389   0.010  0.00  0.00    +0.048 A 
ATOM     13  C   UNL     1       1.178   2.105   0.002  0.00  0.00    +0.025 A 
ATOM     14  C   UNL     1       2.377   1.440  -0.013  0.00  0.00    +0.017 A 
ATOM     15  C   UNL     1       2.399   0.041  -0.020  0.00  0.00    +0.063 A 
ATOM     16  C   UNL     1       1.198  -0.675  -0.013  0.00  0.00    +0.017 A 
ATOM     17  C   UNL     1       0.002  -0.004   0.002  0.00  0.00    +0.025 A 
BRANCH  15  18
ATOM     18  C   UNL     1       3.686  -0.677  -0.035  0.00  0.00    +0.387 C 
ATOM     19  O   UNL     1       3.704  -1.892  -0.041  0.00  0.00    -0.241 OA
ATOM     20  O   UNL     1       4.843   0.014  -0.043  0.00  0.00    -0.241 OA
ENDBRANCH  15  18
ENDBRANCH  10  12
ENDBRANCH   9  10
ENDBRANCH   1   8
BRANCH   4  21
ATOM     21  S   UNL     1      -2.473  10.104   0.068  0.00  0.00    +0.061 S 
ATOM     22  O   UNL     1      -3.722  10.489   0.626  0.00  0.00    -0.153 OA
ATOM     23  O   UNL     1      -1.231  10.526   0.615  0.00  0.00    -0.153 OA
BRANCH  21  24
ATOM     24  N   UNL     1      -2.487  10.602  -1.512  0.00  0.00    -0.180 NA
ATOM     25  C   UNL     1      -3.762  10.804  -2.205  0.00  0.00    +0.131 C 
BRANCH  24  26
ATOM     26  C   UNL     1      -1.224  10.841  -2.216  0.00  0.00    +0.109 C 
BRANCH  26  27
ATOM     27  C   UNL     1      -0.831   9.586  -2.997  0.00  0.00    +0.028 C 
BRANCH  27  28
ATOM     28  C   UNL     1       0.488   9.836  -3.732  0.00  0.00    +0.126 C 
BRANCH  28  29
ATOM     29  C   UNL     1       0.876   8.600  -4.501  0.00  0.00    +0.356 C 
ATOM     30  O   UNL     1       0.171   7.619  -4.465  0.00  0.00    -0.246 OA
ATOM     31  O   UNL     1       2.006   8.587  -5.226  0.00  0.00    -0.246 OA
ENDBRANCH  28  29
ENDBRANCH  27  28
ENDBRANCH  26  27
ENDBRANCH  24  26
ENDBRANCH  21  24
ENDBRANCH   4  21
TORSDOF 10
