REMARK  Name = ZINC00714140
REMARK  9 active torsions:
REMARK  status: ('A' for Active; 'I' for Inactive)
REMARK    1  A    between atoms: C_1  and  C_2
REMARK    2  A    between atoms: C_2  and  C_33
REMARK    3  A    between atoms: C_6  and  C_21
REMARK    4  A    between atoms: C_8  and  C_19
REMARK    5  A    between atoms: C_9  and  N_18
REMARK    6  A    between atoms: N_10  and  C_11
REMARK    7  A    between atoms: C_24  and  O_28
REMARK    8  A    between atoms: C_25  and  O_27
REMARK    9  A    between atoms: O_28  and  C_29
REMARK                            x       y       z     vdW  Elec       q    Type
REMARK                         _______ _______ _______ _____ _____    ______ ____
ROOT
ATOM      1  C   UNL     1       1.128   0.522   1.542  0.00  0.00    +0.011 C 
ATOM      2  C   UNL     1       0.723  -0.895   1.133  0.00  0.00    -0.023 C 
ATOM      3  C   UNL     1      -0.761  -0.918   0.759  0.00  0.00    +0.058 C 
ATOM      4  C   UNL     1      -1.149  -2.305   0.308  0.00  0.00    +0.025 C 
ATOM      5  C   UNL     1      -0.256  -3.113  -0.301  0.00  0.00    +0.025 C 
ATOM      6  C   UNL     1      -0.644  -4.500  -0.747  0.00  0.00    +0.097 C 
ATOM      7  C   UNL     1      -2.135  -4.647  -0.825  0.00  0.00    +0.077 C 
ATOM      8  C   UNL     1      -2.960  -3.773  -0.193  0.00  0.00    +0.107 C 
ATOM      9  N   UNL     1      -2.434  -2.725   0.528  0.00  0.00    -0.260 N 
ATOM     10  C   UNL     1       1.065  -2.689  -0.533  0.00  0.00    +0.162 C 
ATOM     11  O   UNL     1       1.839  -3.433  -1.102  0.00  0.00    -0.292 OA
ATOM     12  C   UNL     1       1.540  -1.333  -0.087  0.00  0.00    +0.086 C 
ATOM     13  C   UNL     1       0.976  -1.858   2.294  0.00  0.00    +0.011 C 
ENDROOT
BRANCH   9  14
ATOM     14  C   UNL     1      -3.220  -2.083   1.494  0.00  0.00    +0.040 A 
ATOM     15  C   UNL     1      -4.013  -1.001   1.138  0.00  0.00    +0.026 A 
ATOM     16  C   UNL     1      -4.790  -0.373   2.091  0.00  0.00    +0.040 A 
ATOM     17  C   UNL     1      -4.770  -0.815   3.404  0.00  0.00    +0.124 A 
ATOM     18  C   UNL     1      -3.976  -1.891   3.762  0.00  0.00    +0.040 A 
ATOM     19  C   UNL     1      -3.201  -2.525   2.811  0.00  0.00    +0.026 A 
ATOM     20  F   UNL     1      -5.527  -0.195   4.336  0.00  0.00    -0.205 F 
ENDBRANCH   9  14
BRANCH   6  21
ATOM     21  C   UNL     1      -0.099  -5.506   0.234  0.00  0.00    -0.031 A 
ATOM     22  C   UNL     1      -0.486  -5.455   1.560  0.00  0.00    +0.008 A 
ATOM     23  C   UNL     1       0.011  -6.375   2.465  0.00  0.00    +0.050 A 
ATOM     24  C   UNL     1       0.899  -7.351   2.042  0.00  0.00    +0.161 A 
ATOM     25  C   UNL     1       1.288  -7.403   0.707  0.00  0.00    +0.159 A 
ATOM     26  C   UNL     1       0.783  -6.481  -0.195  0.00  0.00    +0.053 A 
BRANCH  25  27
ATOM     27  O   UNL     1       2.159  -8.359   0.287  0.00  0.00    -0.503 OA
ATOM     28  H   UNL     1       1.734  -9.175  -0.010  0.00  0.00    +0.292 HD
ENDBRANCH  25  27
BRANCH  24  29
ATOM     29  O   UNL     1       1.389  -8.258   2.930  0.00  0.00    -0.491 OA
ATOM     30  C   UNL     1       0.945  -8.144   4.284  0.00  0.00    +0.277 C 
ENDBRANCH  24  29
ENDBRANCH   6  21
BRANCH   8  31
ATOM     31  N   UNL     1      -4.322  -3.936  -0.273  0.00  0.00    -0.345 N 
ATOM     32  H   UNL     1      -4.696  -4.623  -0.847  0.00  0.00    +0.144 HD
ATOM     33  H   UNL     1      -4.910  -3.364   0.245  0.00  0.00    +0.144 HD
ENDBRANCH   8  31
BRANCH   7  34
ATOM     34  C   UNL     1      -2.697  -5.727  -1.578  0.00  0.00    +0.099 C 
ATOM     35  N   UNL     1      -3.143  -6.584  -2.176  0.00  0.00    -0.191 NA
ENDBRANCH   7  34
TORSDOF 6
