REMARK  Name = ZINC10065033
REMARK  7 active torsions:
REMARK  status: ('A' for Active; 'I' for Inactive)
REMARK    1  A    between atoms: C_1  and  C_2
REMARK    2  A    between atoms: C_5  and  C_31
REMARK    3  A    between atoms: N_8  and  C_30
REMARK    4  A    between atoms: N_10  and  C_11
REMARK    5  A    between atoms: C_11  and  C_13
REMARK    6  A    between atoms: N_18  and  S_20
REMARK    7  A    between atoms: S_20  and  C_23
REMARK                            x       y       z     vdW  Elec       q    Type
REMARK                         _______ _______ _______ _____ _____    ______ ____
ROOT
ATOM      1  C   UNL     1       1.748  -2.546  -0.175  0.00  0.00    +0.243 C 
ATOM      2  O   UNL     1       0.532  -2.561  -0.148  0.00  0.00    -0.273 OA
ENDROOT
BRANCH   1  12
ATOM      3  C   UNL     1       3.082   3.894  -0.625  0.00  0.00    +0.046 C 
ATOM      4  C   UNL     1       1.641   3.458  -0.567  0.00  0.00    -0.026 A 
ATOM      5  C   UNL     1       0.643   4.402  -0.608  0.00  0.00    +0.006 A 
ATOM      6  C   UNL     1      -0.692   4.039  -0.556  0.00  0.00    +0.005 A 
ATOM      7  C   UNL     1      -1.024   2.699  -0.456  0.00  0.00    -0.035 A 
ATOM      8  C   UNL     1      -0.028   1.754  -0.420  0.00  0.00    +0.042 A 
ATOM      9  C   UNL     1       1.333   2.092  -0.471  0.00  0.00    +0.060 A 
ATOM     10  N   UNL     1       2.202   1.018  -0.418  0.00  0.00    -0.324 N 
ATOM     11  C   UNL     1       1.717  -0.248  -0.325  0.00  0.00    +0.166 A 
ATOM     12  N   UNL     1       2.397  -1.391  -0.265  0.00  0.00    -0.156 NA
ATOM     13  S   UNL     1      -0.002  -0.018  -0.304  0.00  0.00    -0.052 S 
ATOM     14  C   UNL     1       3.649   1.245  -0.463  0.00  0.00    +0.151 C 
ATOM     15  C   UNL     1      -2.470   2.279  -0.393  0.00  0.00    +0.045 C 
ENDBRANCH   1  12
BRANCH   1  16
ATOM     16  C   UNL     1       2.518  -3.840  -0.106  0.00  0.00    +0.093 C 
ATOM     17  C   UNL     1       3.423  -3.831   1.128  0.00  0.00    +0.015 C 
ATOM     18  C   UNL     1       4.230  -5.130   1.181  0.00  0.00    +0.018 C 
ATOM     19  C   UNL     1       3.270  -6.319   1.293  0.00  0.00    +0.109 C 
ATOM     20  N   UNL     1       2.304  -6.253   0.188  0.00  0.00    -0.175 NA
ATOM     21  C   UNL     1       1.539  -5.014  -0.008  0.00  0.00    +0.122 C 
BRANCH  20  22
ATOM     22  S   UNL     1       2.082  -7.550  -0.817  0.00  0.00    +0.067 S 
ATOM     23  O   UNL     1       2.485  -8.702  -0.089  0.00  0.00    -0.152 OA
ATOM     24  O   UNL     1       0.780  -7.416  -1.371  0.00  0.00    -0.152 OA
BRANCH  22  25
ATOM     25  C   UNL     1       3.218  -7.375  -2.152  0.00  0.00    +0.144 A 
ATOM     26  C   UNL     1       4.491  -7.829  -2.254  0.00  0.00    +0.038 A 
ATOM     27  C   UNL     1       5.203  -7.575  -3.412  0.00  0.00    +0.030 A 
ATOM     28  C   UNL     1       4.610  -6.868  -4.406  0.00  0.00    +0.080 A 
ATOM     29  S   UNL     1       2.994  -6.547  -3.718  0.00  0.00    -0.057 S 
ATOM     30 CL   UNL     1       5.254  -6.398  -5.948  0.00  0.00    -0.076 Cl
ENDBRANCH  22  25
ENDBRANCH  20  22
ENDBRANCH   1  16
TORSDOF 4
