REMARK  Name = ZINC14429678
REMARK  2 active torsions:
REMARK  status: ('A' for Active; 'I' for Inactive)
REMARK    1  A    between atoms: C_10  and  C_12
REMARK    2  A    between atoms: N_14  and  C_15
REMARK                            x       y       z     vdW  Elec       q    Type
REMARK                         _______ _______ _______ _____ _____    ______ ____
ROOT
ATOM      1  C   UNL     1       1.185   1.780  -0.050  0.00  0.00    +0.001 A 
ATOM      2  C   UNL     1      -0.012   1.078  -0.036  0.00  0.00    +0.004 A 
ATOM      3  C   UNL     1      -1.219   1.742  -0.017  0.00  0.00    +0.047 A 
ATOM      4  C   UNL     1      -1.244   3.133   0.001  0.00  0.00    +0.139 A 
ATOM      5  C   UNL     1      -0.028   3.837  -0.013  0.00  0.00    +0.064 A 
ATOM      6  C   UNL     1       1.184   3.148  -0.039  0.00  0.00    +0.015 A 
ATOM      7  C   UNL     1      -0.071   5.312  -0.001  0.00  0.00    +0.193 A 
ATOM      8  O   UNL     1       0.948   5.981  -0.012  0.00  0.00    -0.287 OA
ATOM      9  C   UNL     1      -1.402   5.936   0.025  0.00  0.00    +0.103 A 
ATOM     10  C   UNL     1      -2.497   5.138   0.036  0.00  0.00    +0.194 A 
ATOM     11  O   UNL     1      -2.414   3.800   0.025  0.00  0.00    -0.450 OA
ENDROOT
BRANCH  10  12
ATOM     12  C   UNL     1      -3.837   5.768   0.063  0.00  0.00    +0.284 C 
ATOM     13  O   UNL     1      -3.939   6.979   0.074  0.00  0.00    -0.266 OA
ATOM     14  N   UNL     1      -4.943   4.998   0.075  0.00  0.00    -0.278 N 
ATOM     15  H   UNL     1      -4.864   4.035   0.000  0.00  0.00    +0.155 HD
BRANCH  14  16
ATOM     16  C   UNL     1      -6.205   5.589   0.195  0.00  0.00    +0.047 A 
ATOM     17  C   UNL     1      -6.453   6.825  -0.388  0.00  0.00    +0.024 A 
ATOM     18  C   UNL     1      -7.701   7.404  -0.271  0.00  0.00    +0.002 A 
ATOM     19  C   UNL     1      -8.701   6.760   0.434  0.00  0.00    +0.001 A 
ATOM     20  C   UNL     1      -8.456   5.532   1.021  0.00  0.00    +0.016 A 
ATOM     21  C   UNL     1      -7.211   4.944   0.903  0.00  0.00    +0.035 A 
ATOM     22  I   UNL     1      -6.841   3.084   1.793  0.00  0.00    -0.042 I 
ENDBRANCH  14  16
ENDBRANCH  10  12
TORSDOF 2
