REMARK  Name = ZINC66169447
REMARK  11 active torsions:
REMARK  status: ('A' for Active; 'I' for Inactive)
REMARK    1  A    between atoms: C_4  and  C_7
REMARK    2  A    between atoms: C_7  and  O_8
REMARK    3  A    between atoms: O_8  and  C_9
REMARK    4  A    between atoms: C_13  and  N_15
REMARK    5  A    between atoms: N_15  and  C_16
REMARK    6  A    between atoms: C_16  and  C_17
REMARK    7  A    between atoms: C_22  and  O_23
REMARK    8  A    between atoms: O_23  and  C_24
REMARK    9  A    between atoms: C_24  and  C_25
REMARK   10  A    between atoms: C_25  and  O_26
REMARK   11  A    between atoms: O_26  and  C_27
REMARK                            x       y       z     vdW  Elec       q    Type
REMARK                         _______ _______ _______ _____ _____    ______ ____
ROOT
ATOM      1  C   UNL     1       8.745  -3.533   4.356  0.00  0.00    +0.140 C 
ENDROOT
BRANCH   1   2
ATOM      2  C   UNL     1       9.034  -3.700   5.825  0.00  0.00    +0.011 A 
ATOM      3  C   UNL     1       9.914  -2.844   6.460  0.00  0.00    +0.009 A 
ATOM      4  C   UNL     1      10.179  -2.998   7.807  0.00  0.00    +0.001 A 
ATOM      5  C   UNL     1       9.565  -4.008   8.525  0.00  0.00    +0.004 A 
ATOM      6  C   UNL     1       8.685  -4.867   7.895  0.00  0.00    +0.046 A 
ATOM      7  C   UNL     1       8.413  -4.711   6.544  0.00  0.00    +0.125 A 
BRANCH   7   8
ATOM      8  O   UNL     1       7.543  -5.551   5.924  0.00  0.00    -0.488 OA
BRANCH   8   9
ATOM      9  C   UNL     1       6.940  -6.569   6.726  0.00  0.00    +0.270 C 
BRANCH   9  10
ATOM     10  C   UNL     1       5.998  -7.409   5.861  0.00  0.00    +0.270 C 
BRANCH  10  11
ATOM     11  O   UNL     1       6.756  -8.107   4.871  0.00  0.00    -0.489 OA
BRANCH  11  12
ATOM     12  C   UNL     1       6.066  -8.905   4.014  0.00  0.00    +0.121 A 
ATOM     13  C   UNL     1       4.687  -9.008   4.120  0.00  0.00    +0.045 A 
ATOM     14  C   UNL     1       3.987  -9.819   3.247  0.00  0.00    +0.004 A 
ATOM     15  C   UNL     1       4.661 -10.528   2.269  0.00  0.00    +0.000 A 
ATOM     16  C   UNL     1       6.036 -10.426   2.162  0.00  0.00    +0.004 A 
ATOM     17  C   UNL     1       6.739  -9.612   3.028  0.00  0.00    +0.045 A 
ENDBRANCH  11  12
ENDBRANCH  10  11
ENDBRANCH   9  10
ENDBRANCH   8   9
ENDBRANCH   7   8
ENDBRANCH   1   2
BRANCH   1  18
ATOM     18  N   UNL     1       7.476  -2.822   4.186  0.00  0.00    -0.340 N 
ATOM     19  H   UNL     1       6.968  -2.542   4.964  0.00  0.00    +0.146 HD
BRANCH  18  24
ATOM     20  C   UNL     1       5.319  -1.605   1.466  0.00  0.00    +0.123 A 
ATOM     21  C   UNL     1       6.048  -2.007   0.356  0.00  0.00    +0.046 A 
ATOM     22  C   UNL     1       7.246  -2.677   0.520  0.00  0.00    +0.005 A 
ATOM     23  C   UNL     1       7.721  -2.949   1.788  0.00  0.00    +0.023 A 
ATOM     24  C   UNL     1       6.995  -2.548   2.903  0.00  0.00    +0.031 A 
ATOM     25  C   UNL     1       5.795  -1.870   2.741  0.00  0.00    +0.068 A 
BRANCH  20  26
ATOM     26  O   UNL     1       4.141  -0.946   1.304  0.00  0.00    -0.487 OA
BRANCH  26  27
ATOM     27  C   UNL     1       3.711  -0.707  -0.038  0.00  0.00    +0.264 C 
BRANCH  27  31
ATOM     28  C   UNL     1      -0.017   1.378   0.010  0.00  0.00    +0.000 A 
ATOM     29  C   UNL     1       1.171   2.086   0.002  0.00  0.00    +0.000 A 
ATOM     30  C   UNL     1       2.377   1.411  -0.013  0.00  0.00    +0.007 A 
ATOM     31  C   UNL     1       2.396   0.029  -0.020  0.00  0.00    -0.010 A 
ATOM     32  C   UNL     1       1.208  -0.679  -0.012  0.00  0.00    +0.007 A 
ATOM     33  C   UNL     1       0.002  -0.004   0.002  0.00  0.00    +0.000 A 
ENDBRANCH  27  31
ENDBRANCH  26  27
ENDBRANCH  20  26
ENDBRANCH  18  24
ENDBRANCH   1  18
TORSDOF 11
