REMARK  Name = ZINC22325967
REMARK  10 active torsions:
REMARK  status: ('A' for Active; 'I' for Inactive)
REMARK    1  A    between atoms: C_1  and  C_2
REMARK    2  A    between atoms: C_5  and  S_8
REMARK    3  A    between atoms: S_8  and  N_11
REMARK    4  A    between atoms: N_11  and  C_12
REMARK    5  A    between atoms: N_11  and  C_29
REMARK    6  A    between atoms: C_12  and  C_13
REMARK    7  A    between atoms: N_15  and  C_16
REMARK    8  A    between atoms: C_19  and  N_23
REMARK    9  A    between atoms: C_20  and  C_22
REMARK   10  A    between atoms: C_32  and  C_36
REMARK                            x       y       z     vdW  Elec       q    Type
REMARK                         _______ _______ _______ _____ _____    ______ ____
ROOT
ATOM      1  N   UNL     1       5.943   3.145   0.249  0.00  0.00    -0.194 N 
ENDROOT
BRANCH   1   2
ATOM      2  C   UNL     1       6.431   2.595   1.437  0.00  0.00    +0.053 A 
ATOM      3  C   UNL     1       7.716   2.069   1.484  0.00  0.00    +0.025 A 
ATOM      4  C   UNL     1       8.197   1.532   2.661  0.00  0.00    +0.006 A 
ATOM      5  C   UNL     1       7.399   1.506   3.790  0.00  0.00    -0.032 A 
ATOM      6  C   UNL     1       6.116   2.024   3.745  0.00  0.00    +0.046 A 
ATOM      7  C   UNL     1       5.630   2.569   2.571  0.00  0.00    +0.045 A 
ATOM      8 CL   UNL     1       5.117   1.990   5.164  0.00  0.00    -0.083 Cl
ATOM      9  C   UNL     1       7.926   0.912   5.071  0.00  0.00    +0.045 C 
ENDBRANCH   1   2
BRANCH   1  10
ATOM     10  S   UNL     1       6.548   2.639  -1.207  0.00  0.00    +0.075 S 
ATOM     11  O   UNL     1       7.013   1.310  -1.015  0.00  0.00    -0.150 OA
ATOM     12  O   UNL     1       5.576   2.972  -2.189  0.00  0.00    -0.150 OA
BRANCH  10  17
ATOM     13  C   UNL     1      11.411   6.012  -2.385  0.00  0.00    +0.044 C 
ATOM     14  C   UNL     1      10.197   5.169  -2.091  0.00  0.00    -0.050 A 
ATOM     15  C   UNL     1      10.345   3.917  -1.524  0.00  0.00    +0.005 A 
ATOM     16  C   UNL     1       9.231   3.145  -1.254  0.00  0.00    +0.029 A 
ATOM     17  C   UNL     1       7.969   3.624  -1.551  0.00  0.00    +0.109 A 
ATOM     18  C   UNL     1       7.821   4.874  -2.123  0.00  0.00    +0.029 A 
ATOM     19  C   UNL     1       8.935   5.649  -2.388  0.00  0.00    +0.005 A 
ENDBRANCH  10  17
ENDBRANCH   1  10
BRANCH   1  20
ATOM     20  C   UNL     1       4.896   4.168   0.291  0.00  0.00    +0.227 C 
BRANCH  20  21
ATOM     21  C   UNL     1       3.546   3.503   0.368  0.00  0.00    +0.236 C 
ATOM     22  O   UNL     1       3.466   2.293   0.386  0.00  0.00    -0.274 OA
ATOM     23  N   UNL     1       2.427   4.253   0.417  0.00  0.00    -0.284 N 
ATOM     24  H   UNL     1       2.493   5.346   0.320  0.00  0.00    +0.155 HD
BRANCH  23  25
ATOM     25  C   UNL     1       1.180   3.639   0.592  0.00  0.00    +0.034 A 
ATOM     26  C   UNL     1       0.193   4.271   1.338  0.00  0.00    +0.025 A 
ATOM     27  C   UNL     1      -1.036   3.666   1.510  0.00  0.00    +0.025 A 
ATOM     28  C   UNL     1      -1.284   2.424   0.941  0.00  0.00    +0.039 A 
ATOM     29  C   UNL     1      -0.300   1.795   0.190  0.00  0.00    -0.027 A 
ATOM     30  C   UNL     1       0.930   2.400   0.019  0.00  0.00    +0.028 A 
ATOM     31  C   UNL     1      -0.571   0.450  -0.432  0.00  0.00    +0.046 C 
BRANCH  28  32
ATOM     32  N   UNL     1      -2.529   1.808   1.120  0.00  0.00    -0.271 N 
ATOM     33  C   UNL     1      -2.851   0.898   2.226  0.00  0.00    +0.114 C 
ATOM     34  C   UNL     1      -4.396   0.830   2.264  0.00  0.00    +0.029 C 
ATOM     35  C   UNL     1      -4.761   1.167   0.799  0.00  0.00    +0.098 C 
ATOM     36  C   UNL     1      -3.580   1.970   0.299  0.00  0.00    +0.220 C 
ATOM     37  O   UNL     1      -3.583   2.659  -0.699  0.00  0.00    -0.275 OA
ENDBRANCH  28  32
ENDBRANCH  23  25
ENDBRANCH  20  21
ENDBRANCH   1  20
TORSDOF 7
