REMARK  Name = ZINC66169093
REMARK  17 active torsions:
REMARK  status: ('A' for Active; 'I' for Inactive)
REMARK    1  A    between atoms: C_1  and  C_2
REMARK    2  A    between atoms: C_2  and  C_3
REMARK    3  A    between atoms: C_3  and  C_5
REMARK    4  A    between atoms: C_3  and  C_6
REMARK    5  A    between atoms: C_11  and  O_12
REMARK    6  A    between atoms: O_12  and  C_13
REMARK    7  A    between atoms: C_13  and  C_15
REMARK    8  A    between atoms: C_13  and  C_17
REMARK    9  A    between atoms: C_15  and  C_16
REMARK   10  A    between atoms: C_17  and  N_18
REMARK   11  A    between atoms: N_18  and  C_19
REMARK   12  A    between atoms: C_22  and  O_25
REMARK   13  A    between atoms: O_25  and  C_26
REMARK   14  A    between atoms: C_26  and  C_27
REMARK   15  A    between atoms: C_27  and  O_28
REMARK   16  A    between atoms: O_28  and  C_29
REMARK   17  A    between atoms: C_29  and  C_30
REMARK                            x       y       z     vdW  Elec       q    Type
REMARK                         _______ _______ _______ _____ _____    ______ ____
ROOT
ATOM      1  C   UNL     1      -4.378  -1.763  -3.846  0.00  0.00    +0.146 C 
ENDROOT
BRANCH   1   2
ATOM      2  N   UNL     1      -5.425  -1.602  -2.834  0.00  0.00    -0.340 N 
ATOM      3  H   UNL     1      -5.310  -1.988  -1.952  0.00  0.00    +0.146 HD
BRANCH   2   4
ATOM      4  C   UNL     1      -6.590  -0.890  -3.140  0.00  0.00    +0.027 A 
ATOM      5  C   UNL     1      -6.757  -0.342  -4.405  0.00  0.00    +0.026 A 
ATOM      6  C   UNL     1      -7.908   0.360  -4.707  0.00  0.00    +0.047 A 
ATOM      7  C   UNL     1      -8.896   0.517  -3.746  0.00  0.00    +0.121 A 
ATOM      8  C   UNL     1      -8.730  -0.030  -2.483  0.00  0.00    +0.047 A 
ATOM      9  C   UNL     1      -7.583  -0.737  -2.182  0.00  0.00    +0.026 A 
BRANCH   7  10
ATOM     10  O   UNL     1     -10.029   1.208  -4.044  0.00  0.00    -0.490 OA
BRANCH  10  11
ATOM     11  C   UNL     1     -11.006   1.331  -3.008  0.00  0.00    +0.257 C 
BRANCH  11  12
ATOM     12  C   UNL     1     -12.200   2.135  -3.525  0.00  0.00    +0.200 C 
BRANCH  12  13
ATOM     13  O   UNL     1     -12.848   1.406  -4.570  0.00  0.00    -0.377 OA
BRANCH  13  14
ATOM     14  C   UNL     1     -13.983   2.072  -5.126  0.00  0.00    +0.156 C 
ATOM     15  C   UNL     1     -14.594   1.206  -6.229  0.00  0.00    +0.034 C 
ENDBRANCH  13  14
ENDBRANCH  12  13
ENDBRANCH  11  12
ENDBRANCH  10  11
ENDBRANCH   7  10
ENDBRANCH   2   4
ENDBRANCH   1   2
BRANCH   1  16
ATOM     16  C   UNL     1      -3.221  -2.575  -3.259  0.00  0.00    +0.190 C 
BRANCH  16  17
ATOM     17  C   UNL     1      -2.128  -2.743  -4.316  0.00  0.00    +0.043 C 
ATOM     18  C   UNL     1      -1.029  -3.658  -3.772  0.00  0.00    +0.007 C 
ENDBRANCH  16  17
BRANCH  16  19
ATOM     19  O   UNL     1      -2.686  -1.889  -2.125  0.00  0.00    -0.487 OA
BRANCH  19  25
ATOM     20  C   UNL     1      -1.638  -2.058   0.004  0.00  0.00    -0.003 A 
ATOM     21  C   UNL     1      -1.171  -2.840   1.043  0.00  0.00    +0.007 A 
ATOM     22  C   UNL     1      -1.276  -4.216   0.976  0.00  0.00    +0.001 A 
ATOM     23  C   UNL     1      -1.851  -4.815  -0.130  0.00  0.00    +0.004 A 
ATOM     24  C   UNL     1      -2.321  -4.038  -1.172  0.00  0.00    +0.046 A 
ATOM     25  C   UNL     1      -2.220  -2.656  -1.105  0.00  0.00    +0.124 A 
BRANCH  20  26
ATOM     26  C   UNL     1      -1.522  -0.557   0.077  0.00  0.00    +0.019 C 
ATOM     27  C   UNL     1      -2.283  -0.046   1.302  0.00  0.00    +0.012 C 
BRANCH  26  29
ATOM     28  C   UNL     1       0.081   1.359   0.141  0.00  0.00    +0.004 C 
ATOM     29  C   UNL     1      -0.047  -0.165   0.192  0.00  0.00    +0.004 C 
ENDBRANCH  26  29
ENDBRANCH  20  26
ENDBRANCH  19  25
ENDBRANCH  16  19
ENDBRANCH   1  16
TORSDOF 13
