REMARK  Name = ZINC16256324
REMARK  6 active torsions:
REMARK  status: ('A' for Active; 'I' for Inactive)
REMARK    1  A    between atoms: C_1  and  C_2
REMARK    2  A    between atoms: C_2  and  C_21
REMARK    3  A    between atoms: N_5  and  C_9
REMARK    4  A    between atoms: C_9  and  C_10
REMARK    5  A    between atoms: N_15  and  C_16
REMARK    6  A    between atoms: C_16  and  C_17
REMARK                            x       y       z     vdW  Elec       q    Type
REMARK                         _______ _______ _______ _____ _____    ______ ____
ROOT
ATOM      1  C   UNL     1       2.900   4.890   1.432  0.00  0.00    +0.047 C 
ATOM      2  C   UNL     1       2.442   4.593   0.003  0.00  0.00    +0.135 C 
ATOM      3  C   UNL     1       2.293   5.876  -0.791  0.00  0.00    +0.251 C 
ATOM      4  O   UNL     1       1.542   6.799  -0.557  0.00  0.00    -0.272 OA
ATOM      5  N   UNL     1       3.169   5.778  -1.810  0.00  0.00    -0.215 N 
ATOM      6  C   UNL     1       3.844   4.623  -1.772  0.00  0.00    +0.310 C 
ATOM      7  O   UNL     1       4.689   4.307  -2.586  0.00  0.00    -0.252 OA
ATOM      8  N   UNL     1       3.482   3.852  -0.731  0.00  0.00    -0.281 N 
ATOM      9  H   UNL     1       3.837   2.977  -0.507  0.00  0.00    +0.152 HD
ENDROOT
BRANCH   2  10
ATOM     10  C   UNL     1       1.148   3.822   0.011  0.00  0.00    -0.014 A 
ATOM     11  C   UNL     1      -0.059   4.497   0.026  0.00  0.00    +0.008 A 
ATOM     12  C   UNL     1      -1.247   3.791   0.034  0.00  0.00    +0.022 A 
ATOM     13  C   UNL     1      -1.230   2.408   0.021  0.00  0.00    +0.059 A 
ATOM     14  C   UNL     1      -0.021   1.732   0.012  0.00  0.00    +0.060 A 
ATOM     15  C   UNL     1       1.167   2.440   0.004  0.00  0.00    +0.027 A 
ATOM     16 CL   UNL     1       0.002  -0.004   0.002  0.00  0.00    -0.082 Cl
ATOM     17 CL   UNL     1      -2.722   1.521   0.023  0.00  0.00    -0.082 Cl
ENDBRANCH   2  10
BRANCH   5  18
ATOM     18  C   UNL     1       3.360   6.809  -2.834  0.00  0.00    +0.214 C 
BRANCH  18  19
ATOM     19  C   UNL     1       2.424   6.551  -3.986  0.00  0.00    +0.238 C 
ATOM     20  O   UNL     1       1.672   5.601  -3.956  0.00  0.00    -0.274 OA
ATOM     21  N   UNL     1       2.423   7.378  -5.051  0.00  0.00    -0.239 N 
ATOM     22  C   UNL     1       1.586   7.148  -6.082  0.00  0.00    +0.306 C 
ATOM     23  O   UNL     1       0.832   6.195  -6.052  0.00  0.00    -0.252 OA
ATOM     24  N   UNL     1       1.585   7.974  -7.147  0.00  0.00    -0.291 N 
ATOM     25  H   UNL     1       3.025   8.138  -5.075  0.00  0.00    +0.159 HD
ATOM     26  H   UNL     1       2.186   8.735  -7.171  0.00  0.00    +0.151 HD
BRANCH  24  27
ATOM     27  C   UNL     1       0.675   7.724  -8.267  0.00  0.00    +0.219 C 
BRANCH  27  28
ATOM     28  C   UNL     1       0.874   8.800  -9.336  0.00  0.00    +0.405 C 
ATOM     29  F   UNL     1       2.196   8.766  -9.792  0.00  0.00    -0.169 F 
ATOM     30  F   UNL     1       0.005   8.561 -10.406  0.00  0.00    -0.169 F 
ATOM     31  F   UNL     1       0.603  10.058  -8.787  0.00  0.00    -0.169 F 
ENDBRANCH  27  28
ENDBRANCH  24  27
ENDBRANCH  18  19
ENDBRANCH   5  18
TORSDOF 5
