REMARK  Name = ZINC16039531
REMARK  4 active torsions:
REMARK  status: ('A' for Active; 'I' for Inactive)
REMARK    1  A    between atoms: C_12  and  C_30
REMARK    2  A    between atoms: N_20  and  C_23
REMARK    3  A    between atoms: N_32  and  C_33
REMARK    4  A    between atoms: C_36  and  N_39
REMARK                            x       y       z     vdW  Elec       q    Type
REMARK                         _______ _______ _______ _____ _____    ______ ____
ROOT
ATOM      1  C   UNL     1      -1.840   3.547   3.068  0.00  0.00    +0.001 A 
ATOM      2  C   UNL     1      -2.062   2.187   2.932  0.00  0.00    +0.002 A 
ATOM      3  C   UNL     1      -1.456   1.475   1.913  0.00  0.00    +0.024 A 
ATOM      4  C   UNL     1      -0.621   2.122   1.023  0.00  0.00    +0.038 A 
ATOM      5  C   UNL     1      -0.395   3.510   1.158  0.00  0.00    -0.004 A 
ATOM      6  C   UNL     1      -1.009   4.211   2.187  0.00  0.00    +0.010 A 
ATOM      7  C   UNL     1       0.500   4.180   0.186  0.00  0.00    +0.007 C 
ATOM      8  C   UNL     1       1.418   3.422  -0.441  0.00  0.00    -0.003 C 
ATOM      9  C   UNL     1       1.432   1.966  -0.085  0.00  0.00    +0.110 C 
ATOM     10  N   UNL     1       0.025   1.491  -0.013  0.00  0.00    -0.310 N 
ATOM     11  C   UNL     1       0.152   0.030   0.019  0.00  0.00    +0.173 C 
ATOM     12  C   UNL     1       1.243  -0.261  -1.045  0.00  0.00    +0.119 C 
ATOM     13  C   UNL     1       2.072   1.057  -1.137  0.00  0.00    +0.114 C 
ATOM     14  C   UNL     1       3.445   0.630  -0.666  0.00  0.00    +0.232 C 
ATOM     15  O   UNL     1       4.420   1.349  -0.610  0.00  0.00    -0.274 OA
ATOM     16  N   UNL     1       3.418  -0.662  -0.323  0.00  0.00    -0.210 N 
ATOM     17  C   UNL     1       2.231  -1.256  -0.485  0.00  0.00    +0.232 C 
ATOM     18  O   UNL     1       1.986  -2.414  -0.224  0.00  0.00    -0.274 OA
ENDROOT
BRANCH  16  19
ATOM     19  C   UNL     1       4.544  -1.340   0.169  0.00  0.00    +0.044 A 
ATOM     20  C   UNL     1       5.104  -2.378  -0.562  0.00  0.00    +0.027 A 
ATOM     21  C   UNL     1       6.216  -3.041  -0.079  0.00  0.00    +0.040 A 
ATOM     22  C   UNL     1       6.765  -2.676   1.138  0.00  0.00    +0.124 A 
ATOM     23  C   UNL     1       6.205  -1.644   1.871  0.00  0.00    +0.040 A 
ATOM     24  C   UNL     1       5.096  -0.976   1.389  0.00  0.00    +0.027 A 
ATOM     25  F   UNL     1       7.849  -3.329   1.612  0.00  0.00    -0.205 F 
ENDBRANCH  16  19
BRANCH  11  26
ATOM     26  C   UNL     1      -1.151  -0.624  -0.364  0.00  0.00    +0.238 C 
ATOM     27  O   UNL     1      -1.997   0.011  -0.957  0.00  0.00    -0.273 OA
ATOM     28  N   UNL     1      -1.375  -1.915  -0.048  0.00  0.00    -0.284 N 
ATOM     29  H   UNL     1      -0.580  -2.512   0.422  0.00  0.00    +0.155 HD
BRANCH  28  30
ATOM     30  C   UNL     1      -2.619  -2.495  -0.318  0.00  0.00    +0.034 A 
ATOM     31  C   UNL     1      -3.145  -3.448   0.545  0.00  0.00    +0.025 A 
ATOM     32  C   UNL     1      -4.376  -4.014   0.279  0.00  0.00    +0.034 A 
ATOM     33  C   UNL     1      -5.080  -3.643  -0.852  0.00  0.00    +0.126 A 
ATOM     34  C   UNL     1      -4.557  -2.699  -1.716  0.00  0.00    +0.034 A 
ATOM     35  C   UNL     1      -3.329  -2.124  -1.452  0.00  0.00    +0.025 A 
BRANCH  33  36
ATOM     36  N   UNL     1      -6.396  -4.257  -1.137  0.00  0.00    +0.056 N 
ATOM     37  O   UNL     1      -7.017  -3.930  -2.133  0.00  0.00    -0.126 OA
ATOM     38  O   UNL     1      -6.858  -5.088  -0.377  0.00  0.00    -0.126 OA
ENDBRANCH  33  36
ENDBRANCH  28  30
ENDBRANCH  11  26
TORSDOF 4
