REMARK  Name = ZINC26479942
REMARK  5 active torsions:
REMARK  status: ('A' for Active; 'I' for Inactive)
REMARK    1  A    between atoms: C_1  and  C_2
REMARK    2  A    between atoms: C_2  and  C_4
REMARK    3  A    between atoms: C_2  and  N_14
REMARK    4  A    between atoms: N_6  and  C_7
REMARK    5  A    between atoms: C_23  and  C_26
REMARK                            x       y       z     vdW  Elec       q    Type
REMARK                         _______ _______ _______ _____ _____    ______ ____
ROOT
ATOM      1  N   UNL     1      -0.832   1.585  -1.132  0.00  0.00    +0.389 N 
ATOM      2  C   UNL     1      -0.891   3.054  -1.141  0.00  0.00    -0.059 C 
ATOM      3  C   UNL     1      -1.597   3.525  -2.415  0.00  0.00    +0.088 C 
ATOM      4  N   UNL     1      -2.947   2.946  -2.467  0.00  0.00    -0.318 N 
ATOM      5  C   UNL     1      -2.888   1.477  -2.457  0.00  0.00    +0.088 C 
ATOM      6  C   UNL     1      -2.182   1.006  -1.183  0.00  0.00    -0.059 C 
ATOM      7  C   UNL     1      -3.646   3.409  -3.576  0.00  0.00    +0.140 A 
ATOM      8  C   UNL     1      -4.737   4.256  -3.401  0.00  0.00    +0.081 A 
ATOM      9  C   UNL     1      -5.420   4.713  -4.514  0.00  0.00    +0.037 A 
ATOM     10  C   UNL     1      -4.993   4.298  -5.769  0.00  0.00    +0.074 A 
ATOM     11  C   UNL     1      -3.907   3.453  -5.869  0.00  0.00    +0.125 A 
ATOM     12  N   UNL     1      -3.271   3.037  -4.790  0.00  0.00    -0.238 NA
ATOM     13 CL   UNL     1      -5.231   4.736  -1.807  0.00  0.00    -0.080 Cl
ATOM     14  H   UNL     1      -0.289   1.261  -2.031  0.00  0.00    -0.081 HD
ENDROOT
BRANCH  10  15
ATOM     15  C   UNL     1      -5.710   4.767  -7.010  0.00  0.00    +0.419 C 
ATOM     16  F   UNL     1      -5.095   4.216  -8.139  0.00  0.00    -0.166 F 
ATOM     17  F   UNL     1      -7.046   4.357  -6.959  0.00  0.00    -0.166 F 
ATOM     18  F   UNL     1      -5.653   6.163  -7.082  0.00  0.00    -0.166 F 
ENDBRANCH  10  15
BRANCH   1  20
ATOM     19  C   UNL     1      -0.777   1.593   1.317  0.00  0.00    -0.004 C 
ATOM     20  C   UNL     1      -0.094   1.096   0.041  0.00  0.00    +0.017 C 
BRANCH  20  21
ATOM     21  C   UNL     1       1.321   1.612  -0.006  0.00  0.00    +0.203 C 
ATOM     22  O   UNL     1       1.679   2.318  -0.925  0.00  0.00    -0.277 OA
ATOM     23  N   UNL     1       2.188   1.289   0.974  0.00  0.00    -0.284 N 
ATOM     24  H   UNL     1       1.845   0.708   1.842  0.00  0.00    +0.155 HD
BRANCH  23  25
ATOM     25  C   UNL     1       3.526   1.694   0.886  0.00  0.00    +0.071 A 
ATOM     26  C   UNL     1       3.858   2.910   0.297  0.00  0.00    +0.028 A 
ATOM     27  C   UNL     1       5.195   3.270   0.238  0.00  0.00    +0.022 A 
ATOM     28  C   UNL     1       6.149   2.412   0.753  0.00  0.00    +0.112 A 
ATOM     29  N   UNL     1       5.802   1.263   1.301  0.00  0.00    -0.242 NA
ATOM     30  C   UNL     1       4.541   0.885   1.382  0.00  0.00    +0.150 A 
ATOM     31 CL   UNL     1       4.147  -0.639   2.114  0.00  0.00    -0.060 Cl
ENDBRANCH  23  25
ENDBRANCH  20  21
ENDBRANCH   1  20
TORSDOF 4
