REMARK  Name = ZINC03235277
REMARK  5 active torsions:
REMARK  status: ('A' for Active; 'I' for Inactive)
REMARK    1  A    between atoms: C_4  and  C_7
REMARK    2  A    between atoms: C_7  and  N_59
REMARK    3  A    between atoms: C_16  and  C_18
REMARK    4  A    between atoms: C_22  and  S_24
REMARK    5  A    between atoms: S_24  and  N_27
REMARK                            x       y       z     vdW  Elec       q    Type
REMARK                         _______ _______ _______ _____ _____    ______ ____
ROOT
ATOM      1  C   UNL     1       3.982   5.141  -1.440  0.00  0.00    -0.072 C 
ATOM      2  C   UNL     1       4.635   5.116  -2.825  0.00  0.00    +0.038 C 
ATOM      3  C   UNL     1       3.542   5.313  -3.870  0.00  0.00    +0.050 A 
ATOM      4  C   UNL     1       2.243   5.107  -3.523  0.00  0.00    -0.002 A 
ATOM      5  S   UNL     1       1.379   5.454  -5.029  0.00  0.00    -0.059 S 
ATOM      6  C   UNL     1       2.776   5.838  -5.991  0.00  0.00    +0.165 A 
ATOM      7  N   UNL     1       3.759   5.681  -5.127  0.00  0.00    -0.229 NA
ATOM      8  N   UNL     1       2.839   6.215  -7.326  0.00  0.00    -0.261 N 
ATOM      9  C   UNL     1       4.032   6.474  -7.898  0.00  0.00    +0.250 C 
ATOM     10  O   UNL     1       5.053   6.378  -7.244  0.00  0.00    -0.270 OA
ATOM     11  C   UNL     1       1.722   4.690  -2.190  0.00  0.00    -0.033 C 
ATOM     12  H   UNL     1       2.025   6.292  -7.848  0.00  0.00    +0.157 HD
ATOM     13  N   UNL     1       2.867   4.172  -1.400  0.00  0.00    +0.386 N 
ATOM     14  H   UNL     1       3.181   3.284  -1.809  0.00  0.00    -0.081 HD
ENDROOT
BRANCH   9  15
ATOM     15  C   UNL     1       4.099   6.875  -9.319  0.00  0.00    +0.039 A 
ATOM     16  C   UNL     1       2.929   6.987 -10.072  0.00  0.00    +0.013 A 
ATOM     17  C   UNL     1       2.999   7.362 -11.398  0.00  0.00    +0.003 A 
ATOM     18  C   UNL     1       4.225   7.627 -11.981  0.00  0.00    +0.028 A 
ATOM     19  C   UNL     1       5.389   7.518 -11.241  0.00  0.00    +0.106 A 
ATOM     20  C   UNL     1       5.332   7.149  -9.912  0.00  0.00    +0.041 A 
BRANCH  19  21
ATOM     21  S   UNL     1       6.945   7.858 -11.993  0.00  0.00    +0.061 S 
ATOM     22  O   UNL     1       7.923   7.156 -11.239  0.00  0.00    -0.153 OA
ATOM     23  O   UNL     1       6.773   7.659 -13.390  0.00  0.00    -0.153 OA
BRANCH  21  24
ATOM     24  N   UNL     1       7.250   9.472 -11.779  0.00  0.00    -0.177 NA
ATOM     25  C   UNL     1       6.862  10.547 -12.703  0.00  0.00    +0.109 C 
ATOM     26  C   UNL     1       7.375  11.873 -12.105  0.00  0.00    +0.018 C 
ATOM     27  C   UNL     1       8.522  11.409 -11.168  0.00  0.00    +0.018 C 
ATOM     28  C   UNL     1       7.962  10.067 -10.634  0.00  0.00    +0.109 C 
ENDBRANCH  21  24
ENDBRANCH  19  21
ENDBRANCH   9  15
BRANCH  13  29
ATOM     29  C   UNL     1       2.451   3.937  -0.001  0.00  0.00    -0.043 C 
BRANCH  29  33
ATOM     30  C   UNL     1      -1.219   1.751   0.017  0.00  0.00    +0.000 A 
ATOM     31  C   UNL     1      -0.013   1.076   0.008  0.00  0.00    +0.000 A 
ATOM     32  C   UNL     1       1.175   1.783   0.000  0.00  0.00    +0.002 A 
ATOM     33  C   UNL     1       1.156   3.165   0.008  0.00  0.00    -0.064 A 
ATOM     34  C   UNL     1      -0.050   3.840   0.023  0.00  0.00    +0.002 A 
ATOM     35  C   UNL     1      -1.238   3.133   0.030  0.00  0.00    +0.000 A 
ENDBRANCH  29  33
ENDBRANCH  13  29
TORSDOF 5
