REMARK  Name = ZINC32931138
REMARK  11 active torsions:
REMARK  status: ('A' for Active; 'I' for Inactive)
REMARK    1  A    between atoms: C_1  and  C_2
REMARK    2  A    between atoms: C_2  and  C_4
REMARK    3  A    between atoms: C_7  and  O_33
REMARK    4  A    between atoms: C_8  and  C_10
REMARK    5  A    between atoms: C_10  and  C_11
REMARK    6  A    between atoms: N_13  and  C_14
REMARK    7  A    between atoms: C_14  and  C_16
REMARK    8  A    between atoms: C_14  and  C_23
REMARK    9  A    between atoms: C_16  and  N_17
REMARK   10  A    between atoms: C_27  and  C_29
REMARK   11  A    between atoms: O_33  and  C_34
REMARK                            x       y       z     vdW  Elec       q    Type
REMARK                         _______ _______ _______ _____ _____    ______ ____
ROOT
ATOM      1  C   UNL     1      -0.003   5.682   0.276  0.00  0.00    +0.120 C 
ENDROOT
BRANCH   1   2
ATOM      2  C   UNL     1       0.192   4.213   0.000  0.00  0.00    -0.025 A 
ATOM      3  C   UNL     1      -0.881   3.345   0.083  0.00  0.00    +0.005 A 
ATOM      4  C   UNL     1      -0.703   1.999  -0.174  0.00  0.00    +0.001 A 
ATOM      5  C   UNL     1       0.551   1.519  -0.506  0.00  0.00    +0.012 A 
ATOM      6  C   UNL     1       1.623   2.387  -0.590  0.00  0.00    +0.055 A 
ATOM      7  C   UNL     1       1.444   3.734  -0.337  0.00  0.00    +0.018 A 
BRANCH   6   8
ATOM      8  C   UNL     1       2.988   1.864  -0.958  0.00  0.00    +0.417 C 
ATOM      9  F   UNL     1       2.918   0.482  -1.165  0.00  0.00    -0.166 F 
ATOM     10  F   UNL     1       3.427   2.490  -2.130  0.00  0.00    -0.166 F 
ATOM     11  F   UNL     1       3.886   2.135   0.080  0.00  0.00    -0.166 F 
ENDBRANCH   6   8
ENDBRANCH   1   2
BRANCH   1  14
ATOM     12  C   UNL     1      -0.430   5.875   2.667  0.00  0.00    +0.218 C 
ATOM     13  O   UNL     1       0.748   5.668   2.867  0.00  0.00    -0.275 OA
ATOM     14  N   UNL     1      -0.916   5.848   1.410  0.00  0.00    -0.307 N 
ATOM     15  H   UNL     1      -1.997   5.951   1.236  0.00  0.00    +0.149 HD
BRANCH  12  16
ATOM     16  C   UNL     1      -1.352   6.163   3.825  0.00  0.00    +0.134 C 
BRANCH  16  21
ATOM     17  C   UNL     1       0.257   5.305   7.143  0.00  0.00    +0.018 A 
ATOM     18  C   UNL     1       0.947   6.490   7.428  0.00  0.00    +0.015 A 
ATOM     19  C   UNL     1       0.886   7.541   6.557  0.00  0.00    +0.046 A 
ATOM     20  C   UNL     1       0.142   7.440   5.387  0.00  0.00    +0.124 A 
ATOM     21  C   UNL     1      -0.546   6.267   5.094  0.00  0.00    +0.004 A 
ATOM     22  C   UNL     1      -0.497   5.204   5.967  0.00  0.00    +0.019 A 
BRANCH  17  24
ATOM     23  C   UNL     1       1.127   4.286   9.344  0.00  0.00    +0.091 C 
ATOM     24  C   UNL     1       0.320   4.173   8.077  0.00  0.00    +0.160 C 
ATOM     25  O   UNL     1      -0.278   3.147   7.828  0.00  0.00    -0.292 OA
ENDBRANCH  17  24
BRANCH  20  26
ATOM     26  O   UNL     1       0.088   8.488   4.527  0.00  0.00    -0.495 OA
ATOM     27  C   UNL     1       0.908   9.618   4.830  0.00  0.00    +0.277 C 
ENDBRANCH  20  26
ENDBRANCH  16  21
ENDBRANCH  12  16
ENDBRANCH   1  14
BRANCH   1  28
ATOM     28  C   UNL     1      -0.598   6.359  -0.960  0.00  0.00    +0.134 C 
BRANCH  28  29
ATOM     29  N   UNL     1      -0.856   7.771  -0.668  0.00  0.00    -0.299 N 
ATOM     30  C   UNL     1       0.136   8.842  -0.817  0.00  0.00    +0.108 C 
ATOM     31  C   UNL     1      -0.418  10.033  -0.004  0.00  0.00    +0.028 C 
ATOM     32  C   UNL     1      -1.937   9.747  -0.022  0.00  0.00    +0.097 C 
ATOM     33  C   UNL     1      -2.033   8.252  -0.233  0.00  0.00    +0.216 C 
ATOM     34  O   UNL     1      -3.027   7.585  -0.037  0.00  0.00    -0.276 OA
ENDBRANCH  28  29
ENDBRANCH   1  28
TORSDOF 9
