REMARK  Name = ZINC01274321
REMARK  7 active torsions:
REMARK  status: ('A' for Active; 'I' for Inactive)
REMARK    1  A    between atoms: C_9  and  C_25
REMARK    2  A    between atoms: C_10  and  N_24
REMARK    3  A    between atoms: N_11  and  N_14
REMARK    4  A    between atoms: C_15  and  C_16
REMARK    5  A    between atoms: C_19  and  O_23
REMARK    6  A    between atoms: C_20  and  O_22
REMARK    7  A    between atoms: N_27  and  C_28
REMARK                            x       y       z     vdW  Elec       q    Type
REMARK                         _______ _______ _______ _____ _____    ______ ____
ROOT
ATOM      1  C   UNL     1      -5.145   6.515   5.037  0.00  0.00    +0.002 A 
ATOM      2  C   UNL     1      -4.018   5.814   5.463  0.00  0.00    +0.002 A 
ATOM      3  C   UNL     1      -3.227   5.154   4.575  0.00  0.00    +0.030 A 
ATOM      4  C   UNL     1      -3.546   5.173   3.204  0.00  0.00    +0.092 A 
ATOM      5  C   UNL     1      -4.692   5.885   2.772  0.00  0.00    +0.090 A 
ATOM      6  C   UNL     1      -5.486   6.556   3.721  0.00  0.00    +0.030 A 
ATOM      7  N   UNL     1      -5.018   5.919   1.474  0.00  0.00    -0.241 NA
ATOM      8  C   UNL     1      -4.264   5.285   0.598  0.00  0.00    +0.124 A 
ATOM      9  C   UNL     1      -4.310   5.107  -0.863  0.00  0.00    +0.105 A 
ATOM     10  C   UNL     1      -3.211   4.324  -1.200  0.00  0.00    +0.134 A 
ATOM     11  N   UNL     1      -2.500   3.996  -0.084  0.00  0.00    -0.198 N 
ATOM     12  C   UNL     1      -3.079   4.548   1.043  0.00  0.00    +0.183 A 
ATOM     13  N   UNL     1      -2.774   4.525   2.323  0.00  0.00    -0.224 NA
ENDROOT
BRANCH   9  14
ATOM     14  C   UNL     1      -5.280   5.636  -1.752  0.00  0.00    +0.254 C 
ATOM     15  O   UNL     1      -5.110   6.731  -2.258  0.00  0.00    -0.270 OA
ATOM     16  N   UNL     1      -6.390   4.926  -2.038  0.00  0.00    -0.281 N 
ATOM     17  H   UNL     1      -6.490   4.024  -1.696  0.00  0.00    +0.155 HD
BRANCH  16  18
ATOM     18  C   UNL     1      -7.398   5.492  -2.826  0.00  0.00    +0.034 A 
ATOM     19  C   UNL     1      -7.656   6.854  -2.754  0.00  0.00    +0.025 A 
ATOM     20  C   UNL     1      -8.648   7.411  -3.537  0.00  0.00    +0.022 A 
ATOM     21  C   UNL     1      -9.392   6.610  -4.385  0.00  0.00    +0.041 A 
ATOM     22  C   UNL     1      -9.141   5.251  -4.455  0.00  0.00    +0.022 A 
ATOM     23  C   UNL     1      -8.146   4.690  -3.678  0.00  0.00    +0.025 A 
ATOM     24 CL   UNL     1     -10.643   7.311  -5.363  0.00  0.00    -0.084 Cl
ENDBRANCH  16  18
ENDBRANCH   9  14
BRANCH  10  25
ATOM     25  N   UNL     1      -2.890   3.933  -2.475  0.00  0.00    -0.342 N 
ATOM     26  H   UNL     1      -2.107   3.382  -2.631  0.00  0.00    +0.144 HD
ATOM     27  H   UNL     1      -3.446   4.208  -3.221  0.00  0.00    +0.144 HD
ENDBRANCH  10  25
BRANCH  11  28
ATOM     28  N   UNL     1      -1.339   3.212  -0.081  0.00  0.00    -0.171 NA
ATOM     29  C   UNL     1      -1.426   1.924   0.053  0.00  0.00    +0.141 C 
BRANCH  29  30
ATOM     30  C   UNL     1      -0.205   1.099   0.057  0.00  0.00    -0.002 A 
ATOM     31  C   UNL     1       1.048   1.701  -0.090  0.00  0.00    +0.013 A 
ATOM     32  C   UNL     1       2.189   0.927  -0.092  0.00  0.00    +0.050 A 
ATOM     33  C   UNL     1       2.097  -0.450   0.051  0.00  0.00    +0.158 A 
ATOM     34  C   UNL     1       0.852  -1.057   0.197  0.00  0.00    +0.159 A 
ATOM     35  C   UNL     1      -0.296  -0.288   0.200  0.00  0.00    +0.058 A 
BRANCH  34  36
ATOM     36  O   UNL     1       0.766  -2.407   0.337  0.00  0.00    -0.503 OA
ATOM     37  H   UNL     1       0.681  -2.885  -0.499  0.00  0.00    +0.292 HD
ENDBRANCH  34  36
BRANCH  33  38
ATOM     38  O   UNL     1       3.225  -1.208   0.048  0.00  0.00    -0.503 OA
ATOM     39  H   UNL     1       3.491  -1.514  -0.830  0.00  0.00    +0.292 HD
ENDBRANCH  33  38
ENDBRANCH  29  30
ENDBRANCH  11  28
TORSDOF 7
