REMARK  Name = ZINC00505165
REMARK  4 active torsions:
REMARK  status: ('A' for Active; 'I' for Inactive)
REMARK    1  A    between atoms: C_6  and  C_7
REMARK    2  A    between atoms: C_8  and  C_9
REMARK    3  A    between atoms: C_9  and  O_11
REMARK    4  A    between atoms: O_11  and  C_12
REMARK                            x       y       z     vdW  Elec       q    Type
REMARK                         _______ _______ _______ _____ _____    ______ ____
ROOT
ATOM      1  C   UNL     1      -2.331  -0.284  -0.092  0.00  0.00    +0.337 C 
ATOM      2  O   UNL     1      -1.252  -0.846  -0.099  0.00  0.00    -0.245 OA
ENDROOT
BRANCH   1   4
ATOM      3  C   UNL     1      -3.500  -2.409  -0.317  0.00  0.00    +0.015 C 
ATOM      4  C   UNL     1      -3.561  -1.065  -0.205  0.00  0.00    +0.092 C 
BRANCH   3  10
ATOM      5  C   UNL     1      -5.981  -2.552  -0.417  0.00  0.00    +0.011 A 
ATOM      6  C   UNL     1      -7.137  -3.293  -0.530  0.00  0.00    +0.039 A 
ATOM      7  C   UNL     1      -7.071  -4.674  -0.645  0.00  0.00    +0.123 A 
ATOM      8  C   UNL     1      -5.842  -5.317  -0.652  0.00  0.00    +0.039 A 
ATOM      9  C   UNL     1      -4.678  -4.587  -0.546  0.00  0.00    +0.011 A 
ATOM     10  C   UNL     1      -4.738  -3.194  -0.430  0.00  0.00    -0.025 A 
ATOM     11  F   UNL     1      -8.208  -5.396  -0.749  0.00  0.00    -0.205 F 
ENDBRANCH   3  10
ENDBRANCH   1   4
BRANCH   1  12
ATOM     12  O   UNL     1      -2.392   1.059   0.019  0.00  0.00    -0.421 OA
BRANCH  12  13
ATOM     13  C   UNL     1      -1.224   1.754   0.007  0.00  0.00    +0.150 A 
ATOM     14  C   UNL     1      -0.646   2.163   1.200  0.00  0.00    +0.049 A 
ATOM     15  C   UNL     1       0.544   2.864   1.186  0.00  0.00    +0.023 A 
ATOM     16  C   UNL     1       1.158   3.165  -0.017  0.00  0.00    +0.043 A 
ATOM     17  C   UNL     1       0.581   2.764  -1.209  0.00  0.00    +0.043 A 
ATOM     18  C   UNL     1      -0.610   2.062  -1.200  0.00  0.00    +0.085 A 
ATOM     19 CL   UNL     1      -1.334   1.558  -2.695  0.00  0.00    -0.080 Cl
ATOM     20 CL   UNL     1       2.653   4.047  -0.032  0.00  0.00    -0.083 Cl
ENDBRANCH  12  13
ENDBRANCH   1  12
TORSDOF 4
