REMARK  Name = ZINC20357512
REMARK  8 active torsions:
REMARK  status: ('A' for Active; 'I' for Inactive)
REMARK    1  A    between atoms: C_1  and  C_2
REMARK    2  A    between atoms: C_2  and  C_35
REMARK    3  A    between atoms: C_6  and  N_27
REMARK    4  A    between atoms: C_13  and  S_17
REMARK    5  A    between atoms: S_17  and  C_18
REMARK    6  A    between atoms: C_18  and  C_19
REMARK    7  A    between atoms: C_22  and  O_25
REMARK    8  A    between atoms: O_25  and  C_26
REMARK                            x       y       z     vdW  Elec       q    Type
REMARK                         _______ _______ _______ _____ _____    ______ ____
ROOT
ATOM      1  C   UNL     1      -0.954  -7.554  -0.153  0.00  0.00    +0.041 C 
ATOM      2  C   UNL     1      -2.047  -6.549   0.211  0.00  0.00    +0.068 C 
ATOM      3  C   UNL     1      -1.584  -5.133  -0.139  0.00  0.00    +0.070 C 
ATOM      4  C   UNL     1      -2.748  -4.183  -0.052  0.00  0.00    -0.024 A 
ATOM      5  C   UNL     1      -4.035  -4.619  -0.040  0.00  0.00    +0.022 A 
ATOM      6  C   UNL     1      -5.083  -3.695   0.033  0.00  0.00    +0.128 A 
ATOM      7  N   UNL     1      -4.830  -2.397   0.093  0.00  0.00    -0.224 NA
ATOM      8  C   UNL     1      -3.595  -1.941   0.087  0.00  0.00    +0.113 A 
ATOM      9  C   UNL     1      -2.480  -2.793   0.014  0.00  0.00    +0.037 A 
ATOM     10  C   UNL     1      -1.162  -2.132   0.013  0.00  0.00    +0.092 A 
ATOM     11  C   UNL     1      -1.178  -0.734   0.094  0.00  0.00    +0.072 A 
ATOM     12  S   UNL     1      -2.897  -0.309   0.155  0.00  0.00    -0.064 S 
ATOM     13  C   UNL     1       0.004  -0.006   0.097  0.00  0.00    +0.115 A 
ATOM     14  N   UNL     1       1.157  -0.673   0.031  0.00  0.00    -0.228 NA
ATOM     15  C   UNL     1       1.155  -1.991  -0.040  0.00  0.00    +0.223 A 
ATOM     16  N   UNL     1       0.059  -2.709  -0.050  0.00  0.00    -0.234 NA
ATOM     17  C   UNL     1      -4.369  -6.087  -0.100  0.00  0.00    +0.199 C 
ATOM     18  O   UNL     1      -3.234  -6.834  -0.538  0.00  0.00    -0.369 OA
ATOM     19  C   UNL     1      -2.350  -6.636   1.709  0.00  0.00    +0.041 C 
ENDROOT
BRANCH   6  20
ATOM     20  N   UNL     1      -6.397  -4.142   0.041  0.00  0.00    -0.310 N 
ATOM     21  C   UNL     1      -7.135  -3.632  -1.124  0.00  0.00    +0.134 C 
ATOM     22  C   UNL     1      -8.558  -4.196  -1.107  0.00  0.00    +0.178 C 
ATOM     23  O   UNL     1      -9.189  -3.848   0.128  0.00  0.00    -0.377 OA
ATOM     24  C   UNL     1      -8.498  -4.330   1.283  0.00  0.00    +0.178 C 
ATOM     25  C   UNL     1      -7.074  -3.767   1.291  0.00  0.00    +0.134 C 
ENDBRANCH   6  20
BRANCH  13  26
ATOM     26  S   UNL     1      -0.019   1.753   0.192  0.00  0.00    -0.100 S 
BRANCH  26  27
ATOM     27  C   UNL     1       1.759   2.092   0.164  0.00  0.00    +0.111 C 
BRANCH  27  28
ATOM     28  C   UNL     1       1.988   3.580   0.238  0.00  0.00    -0.037 A 
ATOM     29  C   UNL     1       2.067   4.324  -0.924  0.00  0.00    +0.008 A 
ATOM     30  C   UNL     1       2.271   5.689  -0.858  0.00  0.00    +0.046 A 
ATOM     31  C   UNL     1       2.408   6.311   0.374  0.00  0.00    +0.120 A 
ATOM     32  C   UNL     1       2.333   5.560   1.539  0.00  0.00    +0.046 A 
ATOM     33  C   UNL     1       2.124   4.197   1.468  0.00  0.00    +0.008 A 
BRANCH  31  34
ATOM     34  O   UNL     1       2.614   7.652   0.441  0.00  0.00    -0.495 OA
ATOM     35  C   UNL     1       2.679   8.361  -0.798  0.00  0.00    +0.277 C 
ENDBRANCH  31  34
ENDBRANCH  27  28
ENDBRANCH  26  27
ENDBRANCH  13  26
TORSDOF 5
