REMARK  Name = ZINC13031514
REMARK  6 active torsions:
REMARK  status: ('A' for Active; 'I' for Inactive)
REMARK    1  A    between atoms: C_1  and  C_2
REMARK    2  A    between atoms: C_4  and  C_29
REMARK    3  A    between atoms: C_6  and  S_9
REMARK    4  A    between atoms: C_7  and  C_8
REMARK    5  A    between atoms: S_9  and  N_12
REMARK    6  A    between atoms: C_15  and  C_18
REMARK                            x       y       z     vdW  Elec       q    Type
REMARK                         _______ _______ _______ _____ _____    ______ ____
ROOT
ATOM      1  N   UNL     1      -1.052  10.407   1.081  0.00  0.00    -0.194 N 
ATOM      2  C   UNL     1      -0.205   9.481   0.493  0.00  0.00    +0.178 A 
ATOM      3  N   UNL     1      -0.313   8.166   0.441  0.00  0.00    -0.224 NA
ATOM      4  C   UNL     1       0.606   7.424  -0.172  0.00  0.00    +0.080 A 
ATOM      5  C   UNL     1       1.681   8.036  -0.752  0.00  0.00    +0.077 A 
ATOM      6  S   UNL     1       1.323   9.750  -0.394  0.00  0.00    -0.059 S 
ATOM      7  H   UNL     1      -1.891  10.118   1.471  0.00  0.00    +0.176 HD
ENDROOT
BRANCH   4   8
ATOM      8  C   UNL     1       0.468   5.948  -0.221  0.00  0.00    +0.001 A 
ATOM      9  C   UNL     1       1.484   5.169  -0.772  0.00  0.00    +0.012 A 
ATOM     10  C   UNL     1       1.353   3.797  -0.816  0.00  0.00    +0.024 A 
ATOM     11  C   UNL     1       0.209   3.191  -0.311  0.00  0.00    +0.037 A 
ATOM     12  C   UNL     1      -0.804   3.965   0.240  0.00  0.00    -0.025 A 
ATOM     13  C   UNL     1      -0.678   5.338   0.286  0.00  0.00    +0.015 A 
ATOM     14  C   UNL     1      -2.042   3.302   0.786  0.00  0.00    +0.046 C 
ATOM     15  C   UNL     1      -2.370   2.064  -0.055  0.00  0.00    +0.101 C 
ATOM     16  C   UNL     1      -1.133   1.225  -0.227  0.00  0.00    +0.218 C 
ATOM     17  O   UNL     1      -1.229   0.016  -0.255  0.00  0.00    -0.275 OA
ATOM     18  N   UNL     1       0.076   1.799  -0.356  0.00  0.00    -0.285 N 
ATOM     19  H   UNL     1       0.862   1.244  -0.481  0.00  0.00    +0.155 HD
ENDBRANCH   4   8
BRANCH   1  20
ATOM     20  S   UNL     1      -0.630  12.008   1.117  0.00  0.00    +0.074 S 
ATOM     21  O   UNL     1      -1.698  12.695   1.756  0.00  0.00    -0.150 OA
ATOM     22  O   UNL     1       0.707  12.066   1.595  0.00  0.00    -0.150 OA
BRANCH  20  28
ATOM     23  C   UNL     1      -3.012  13.064  -3.414  0.00  0.00    +0.044 C 
ATOM     24  C   UNL     1      -1.739  13.042  -2.608  0.00  0.00    -0.045 A 
ATOM     25  C   UNL     1      -0.556  13.465  -3.179  0.00  0.00    +0.018 A 
ATOM     26  C   UNL     1       0.623  13.444  -2.431  0.00  0.00    +0.065 A 
ATOM     27  C   UNL     1       0.596  12.995  -1.109  0.00  0.00    +0.044 A 
ATOM     28  C   UNL     1      -0.594  12.575  -0.551  0.00  0.00    +0.112 A 
ATOM     29  C   UNL     1      -1.757  12.593  -1.300  0.00  0.00    -0.021 A 
ATOM     30  C   UNL     1      -3.052  12.127  -0.685  0.00  0.00    +0.046 C 
BRANCH  26  31
ATOM     31  C   UNL     1       1.893  13.895  -3.035  0.00  0.00    +0.387 C 
ATOM     32  O   UNL     1       2.917  13.875  -2.382  0.00  0.00    -0.241 OA
ATOM     33  O   UNL     1       1.916  14.328  -4.311  0.00  0.00    -0.241 OA
ENDBRANCH  26  31
ENDBRANCH  20  28
ENDBRANCH   1  20
TORSDOF 4
