REMARK  Name = ZINC22937618
REMARK  9 active torsions:
REMARK  status: ('A' for Active; 'I' for Inactive)
REMARK    1  A    between atoms: C_3  and  O_22
REMARK    2  A    between atoms: C_4  and  C_8
REMARK    3  A    between atoms: C_8  and  N_9
REMARK    4  A    between atoms: N_9  and  C_10
REMARK    5  A    between atoms: C_10  and  C_11
REMARK    6  A    between atoms: C_11  and  N_12
REMARK    7  A    between atoms: N_12  and  C_13
REMARK    8  A    between atoms: C_13  and  C_14
REMARK    9  A    between atoms: C_19  and  O_20
REMARK                            x       y       z     vdW  Elec       q    Type
REMARK                         _______ _______ _______ _____ _____    ______ ____
ROOT
ATOM      1  C   UNL     1       4.244   4.749  -1.414  0.00  0.00    -0.067 C 
ENDROOT
BRANCH   1   2
ATOM      2  N   UNL     1       2.981   4.000  -1.368  0.00  0.00    +0.383 N 
ATOM      3  H   UNL     1       3.164   2.978  -1.730  0.00  0.00    -0.085 HD
ATOM      4  H   UNL     1       2.253   4.497  -2.026  0.00  0.00    -0.085 HD
BRANCH   2   5
ATOM      5  C   UNL     1       2.450   3.948   0.000  0.00  0.00    -0.043 C 
BRANCH   5   9
ATOM      6  C   UNL     1      -1.218   1.751   0.017  0.00  0.00    +0.019 A 
ATOM      7  C   UNL     1      -0.013   1.076   0.008  0.00  0.00    +0.046 A 
ATOM      8  C   UNL     1       1.179   1.786   0.000  0.00  0.00    +0.118 A 
ATOM      9  C   UNL     1       1.157   3.173   0.008  0.00  0.00    -0.022 A 
ATOM     10  C   UNL     1      -0.050   3.844   0.023  0.00  0.00    +0.020 A 
ATOM     11  C   UNL     1      -1.237   3.134   0.031  0.00  0.00    +0.018 A 
ATOM     12 BR   UNL     1      -2.889   4.055   0.052  0.00  0.00    -0.050 Br
BRANCH   8  13
ATOM     13  O   UNL     1       2.366   1.124  -0.015  0.00  0.00    -0.507 OA
ATOM     14  H   UNL     1       3.310   1.688  -0.021  0.00  0.00    +0.292 HD
ENDBRANCH   8  13
ENDBRANCH   5   9
ENDBRANCH   2   5
ENDBRANCH   1   2
BRANCH   1  15
ATOM     15  C   UNL     1       4.765   4.782  -2.853  0.00  0.00    +0.062 C 
BRANCH  15  16
ATOM     16  N   UNL     1       6.028   5.531  -2.899  0.00  0.00    -0.314 NA
ATOM     17  H   UNL     1       5.858   6.559  -2.547  0.00  0.00    +0.122 HD
BRANCH  16  18
ATOM     18  C   UNL     1       6.559   5.584  -4.267  0.00  0.00    +0.120 C 
BRANCH  18  19
ATOM     19  C   UNL     1       7.852   6.358  -4.275  0.00  0.00    +0.009 A 
ATOM     20  C   UNL     1       7.865   7.678  -4.683  0.00  0.00    +0.023 A 
ATOM     21  C   UNL     1       9.051   8.390  -4.686  0.00  0.00    +0.018 A 
ATOM     22  C   UNL     1      10.228   7.780  -4.290  0.00  0.00    +0.019 A 
ATOM     23  C   UNL     1      10.220   6.459  -3.887  0.00  0.00    +0.047 A 
ATOM     24  C   UNL     1       9.031   5.744  -3.878  0.00  0.00    +0.121 A 
ATOM     25 BR   UNL     1       9.064  10.199  -5.238  0.00  0.00    -0.050 Br
BRANCH  24  26
ATOM     26  O   UNL     1       9.022   4.444  -3.482  0.00  0.00    -0.506 OA
ATOM     27  H   UNL     1       9.957   3.958  -3.167  0.00  0.00    +0.292 HD
ENDBRANCH  24  26
ENDBRANCH  18  19
ENDBRANCH  16  18
ENDBRANCH  15  16
ENDBRANCH   1  15
TORSDOF 9
