REMARK  Name = ZINC08277690
REMARK  5 active torsions:
REMARK  status: ('A' for Active; 'I' for Inactive)
REMARK    1  A    between atoms: C_4  and  C_8
REMARK    2  A    between atoms: C_9  and  C_10
REMARK    3  A    between atoms: C_17  and  C_18
REMARK    4  A    between atoms: C_17  and  N_49
REMARK    5  A    between atoms: N_20  and  C_21
REMARK                            x       y       z     vdW  Elec       q    Type
REMARK                         _______ _______ _______ _____ _____    ______ ____
ROOT
ATOM      1  C   UNL     1       6.772   4.148  -2.216  0.00  0.00    +0.239 C 
ATOM      2  O   UNL     1       6.654   4.756  -3.264  0.00  0.00    -0.271 OA
ATOM      3  N   UNL     1       5.685   3.892  -1.461  0.00  0.00    -0.302 N 
ATOM      4  C   UNL     1       5.817   3.255  -0.141  0.00  0.00    +0.089 C 
ATOM      5  C   UNL     1       4.861   2.059  -0.081  0.00  0.00    -0.059 C 
ATOM      6  C   UNL     1       3.440   3.006  -1.802  0.00  0.00    -0.059 C 
ATOM      7  C   UNL     1       4.337   4.241  -1.934  0.00  0.00    +0.089 C 
ATOM      8  N   UNL     1       3.495   2.525  -0.405  0.00  0.00    +0.387 N 
ATOM      9  H   UNL     1       3.250   3.299   0.224  0.00  0.00    -0.081 HD
ENDROOT
BRANCH   1  11
ATOM     10  C   UNL     1       9.162   3.856  -2.583  0.00  0.00    +0.017 C 
ATOM     11  C   UNL     1       8.091   3.695  -1.777  0.00  0.00    +0.068 C 
BRANCH  10  15
ATOM     12  C   UNL     1      12.991   2.543  -1.310  0.00  0.00    +0.004 A 
ATOM     13  C   UNL     1      12.225   3.336  -0.474  0.00  0.00    +0.039 A 
ATOM     14  C   UNL     1      10.979   3.773  -0.882  0.00  0.00    +0.132 A 
ATOM     15  C   UNL     1      10.489   3.401  -2.141  0.00  0.00    +0.029 A 
ATOM     16  C   UNL     1      11.272   2.598  -2.978  0.00  0.00    +0.051 A 
ATOM     17  C   UNL     1      12.517   2.175  -2.556  0.00  0.00    +0.021 A 
ATOM     18 CL   UNL     1      10.681   2.135  -4.543  0.00  0.00    -0.083 Cl
ATOM     19  F   UNL     1      10.234   4.553  -0.068  0.00  0.00    -0.205 F 
ENDBRANCH  10  15
ENDBRANCH   1  11
BRANCH   8  20
ATOM     20  C   UNL     1       2.528   1.425  -0.211  0.00  0.00    +0.019 C 
BRANCH  20  21
ATOM     21  C   UNL     1       1.132   1.980  -0.334  0.00  0.00    +0.201 C 
ATOM     22  O   UNL     1       0.966   3.157  -0.575  0.00  0.00    -0.278 OA
ATOM     23  N   UNL     1       0.068   1.168  -0.176  0.00  0.00    -0.287 N 
ATOM     24  H   UNL     1       0.199   0.214  -0.059  0.00  0.00    +0.155 HD
BRANCH  23  25
ATOM     25  C   UNL     1      -1.227   1.701  -0.188  0.00  0.00    +0.033 A 
ATOM     26  C   UNL     1      -1.460   2.973   0.318  0.00  0.00    +0.026 A 
ATOM     27  C   UNL     1      -2.737   3.498   0.301  0.00  0.00    +0.040 A 
ATOM     28  C   UNL     1      -3.787   2.754  -0.210  0.00  0.00    +0.124 A 
ATOM     29  C   UNL     1      -3.557   1.483  -0.711  0.00  0.00    +0.040 A 
ATOM     30  C   UNL     1      -2.281   0.956  -0.700  0.00  0.00    +0.026 A 
ATOM     31  F   UNL     1      -5.036   3.268  -0.221  0.00  0.00    -0.205 F 
ENDBRANCH  23  25
ENDBRANCH  20  21
ENDBRANCH   8  20
TORSDOF 5
