REMARK  Name = ZINC19939313
REMARK  7 active torsions:
REMARK  status: ('A' for Active; 'I' for Inactive)
REMARK    1  A    between atoms: C_3  and  C_6
REMARK    2  A    between atoms: C_6  and  N_7
REMARK    3  A    between atoms: N_7  and  C_8
REMARK    4  A    between atoms: C_8  and  C_9
REMARK    5  A    between atoms: C_18  and  N_19
REMARK    6  A    between atoms: C_23  and  C_26
REMARK    7  A    between atoms: C_26  and  O_27
REMARK                            x       y       z     vdW  Elec       q    Type
REMARK                         _______ _______ _______ _____ _____    ______ ____
ROOT
ATOM      1  C   UNL     1       6.206   2.656   2.779  0.00  0.00    +0.005 A 
ATOM      2  C   UNL     1       6.293   3.896   3.340  0.00  0.00    +0.018 A 
ATOM      3  C   UNL     1       6.581   3.987   4.716  0.00  0.00    +0.002 A 
ATOM      4  C   UNL     1       6.686   5.232   5.356  0.00  0.00    +0.059 A 
ATOM      5  C   UNL     1       6.967   5.288   6.691  0.00  0.00    +0.167 A 
ATOM      6  C   UNL     1       7.152   4.109   7.433  0.00  0.00    +0.168 A 
ATOM      7  C   UNL     1       7.053   2.885   6.834  0.00  0.00    +0.075 A 
ATOM      8  C   UNL     1       6.767   2.797   5.463  0.00  0.00    +0.051 A 
ATOM      9  N   UNL     1       6.668   1.607   4.856  0.00  0.00    -0.343 N 
ATOM     10  C   UNL     1       6.394   1.516   3.571  0.00  0.00    +0.104 A 
ATOM     11  O   UNL     1       7.418   4.453   8.727  0.00  0.00    -0.453 OA
ATOM     12  C   UNL     1       7.802   5.839   8.688  0.00  0.00    +0.466 C 
ATOM     13  O   UNL     1       7.120   6.355   7.530  0.00  0.00    -0.453 OA
ATOM     14  H   UNL     1       6.797   0.797   5.374  0.00  0.00    +0.167 HD
ENDROOT
BRANCH  10  15
ATOM     15  N   UNL     1       6.296   0.261   2.986  0.00  0.00    -0.316 N 
ATOM     16  C   UNL     1       5.013  -0.453   2.958  0.00  0.00    +0.106 C 
ATOM     17  C   UNL     1       5.210  -1.847   3.562  0.00  0.00    +0.019 C 
ATOM     18  C   UNL     1       6.344  -2.562   2.823  0.00  0.00    +0.009 C 
ATOM     19  C   UNL     1       7.644  -1.773   2.994  0.00  0.00    +0.032 C 
ATOM     20  C   UNL     1       7.473  -0.376   2.379  0.00  0.00    +0.112 C 
BRANCH  19  21
ATOM     21  C   UNL     1       8.784  -2.506   2.284  0.00  0.00    +0.160 C 
BRANCH  21  22
ATOM     22  O   UNL     1       9.017  -3.761   2.927  0.00  0.00    -0.395 OA
ATOM     23  H   UNL     1       9.728  -4.281   2.529  0.00  0.00    +0.209 HD
ENDBRANCH  21  22
ENDBRANCH  19  21
ENDBRANCH  10  15
BRANCH   1  24
ATOM     24  C   UNL     1       5.901   2.513   1.310  0.00  0.00    +0.120 C 
BRANCH  24  25
ATOM     25  N   UNL     1       4.493   2.131   1.137  0.00  0.00    -0.307 NA
ATOM     26  H   UNL     1       3.880   2.795   1.585  0.00  0.00    +0.123 HD
BRANCH  25  27
ATOM     27  C   UNL     1       4.159   1.982  -0.286  0.00  0.00    +0.123 C 
BRANCH  27  30
ATOM     28  C   UNL     1       0.372   1.798  -0.658  0.00  0.00    +0.008 A 
ATOM     29  C   UNL     1       1.619   2.384  -0.543  0.00  0.00    +0.012 A 
ATOM     30  C   UNL     1       2.710   1.589  -0.423  0.00  0.00    +0.004 A 
ATOM     31  S   UNL     1       1.987  -0.042  -0.470  0.00  0.00    -0.100 S 
ATOM     32  C   UNL     1       0.279   0.445  -0.647  0.00  0.00    +0.045 A 
ENDBRANCH  27  30
ENDBRANCH  25  27
ENDBRANCH  24  25
ENDBRANCH   1  24
TORSDOF 7
