REMARK  Name = ZINC39210292
REMARK  5 active torsions:
REMARK  status: ('A' for Active; 'I' for Inactive)
REMARK    1  A    between atoms: C_4  and  C_7
REMARK    2  A    between atoms: C_12  and  C_20
REMARK    3  A    between atoms: C_14  and  C_18
REMARK    4  A    between atoms: C_15  and  N_17
REMARK    5  A    between atoms: C_25  and  C_26
REMARK                            x       y       z     vdW  Elec       q    Type
REMARK                         _______ _______ _______ _____ _____    ______ ____
ROOT
ATOM      1  C   UNL     1       3.852   0.045  -0.315  0.00  0.00    +0.034 C 
ATOM      2  C   UNL     1       3.691  -0.880   0.892  0.00  0.00    +0.083 C 
ATOM      3  C   UNL     1       4.832  -1.869   0.929  0.00  0.00    +0.115 C 
ATOM      4  C   UNL     1       5.410  -2.295  -0.209  0.00  0.00    +0.042 C 
ATOM      5  C   UNL     1       6.544  -3.291  -0.169  0.00  0.00    +0.085 C 
ATOM      6  C   UNL     1       6.577  -3.989   1.161  0.00  0.00    +0.095 C 
ATOM      7  C   UNL     1       5.932  -3.464   2.231  0.00  0.00    +0.198 C 
ATOM      8  O   UNL     1       5.251  -2.309   2.131  0.00  0.00    -0.445 OA
ATOM      9  C   UNL     1       4.982  -1.826  -1.466  0.00  0.00    +0.164 C 
ATOM     10  O   UNL     1       5.516  -2.247  -2.473  0.00  0.00    -0.292 OA
ATOM     11  C   UNL     1       3.879  -0.809  -1.587  0.00  0.00    +0.088 C 
ENDROOT
BRANCH   1  15
ATOM     12  C   UNL     1       0.564   2.767  -0.488  0.00  0.00    +0.000 A 
ATOM     13  C   UNL     1       1.854   3.248  -0.375  0.00  0.00    +0.000 A 
ATOM     14  C   UNL     1       2.918   2.368  -0.319  0.00  0.00    +0.004 A 
ATOM     15  C   UNL     1       2.692   1.005  -0.376  0.00  0.00    -0.043 A 
ATOM     16  C   UNL     1       1.401   0.524  -0.488  0.00  0.00    +0.004 A 
ATOM     17  C   UNL     1       0.337   1.404  -0.546  0.00  0.00    +0.000 A 
ENDBRANCH   1  15
BRANCH   5  18
ATOM     18  C   UNL     1       7.869  -2.558  -0.386  0.00  0.00    +0.096 C 
ATOM     19  C   UNL     1       7.943  -1.319   0.484  0.00  0.00    +0.118 C 
ATOM     20  N   UNL     1       8.042  -0.316  -0.327  0.00  0.00    -0.161 NA
ATOM     21  N   UNL     1       8.046  -0.709  -1.662  0.00  0.00    -0.153 NA
ATOM     22  C   UNL     1       7.951  -2.007  -1.796  0.00  0.00    +0.080 C 
BRANCH  22  23
ATOM     23  C   UNL     1       7.927  -2.773  -3.051  0.00  0.00    -0.001 A 
ATOM     24  C   UNL     1       7.952  -4.172  -3.021  0.00  0.00    +0.012 A 
ATOM     25  C   UNL     1       7.929  -4.884  -4.200  0.00  0.00    +0.039 A 
ATOM     26  C   UNL     1       7.881  -4.218  -5.415  0.00  0.00    +0.123 A 
ATOM     27  C   UNL     1       7.856  -2.832  -5.452  0.00  0.00    +0.039 A 
ATOM     28  C   UNL     1       7.873  -2.107  -4.280  0.00  0.00    +0.012 A 
ATOM     29  F   UNL     1       7.859  -4.922  -6.568  0.00  0.00    -0.205 F 
ENDBRANCH  22  23
ENDBRANCH   5  18
BRANCH   7  30
ATOM     30  N   UNL     1       5.975  -4.121   3.435  0.00  0.00    -0.328 N 
ATOM     31  H   UNL     1       6.465  -4.954   3.515  0.00  0.00    +0.145 HD
ATOM     32  H   UNL     1       5.516  -3.751   4.206  0.00  0.00    +0.145 HD
ENDBRANCH   7  30
BRANCH   6  33
ATOM     33  C   UNL     1       7.295  -5.221   1.298  0.00  0.00    +0.100 C 
ATOM     34  N   UNL     1       7.865  -6.197   1.408  0.00  0.00    -0.191 NA
ENDBRANCH   6  33
TORSDOF 5
