REMARK  Name = ZINC23561806
REMARK  6 active torsions:
REMARK  status: ('A' for Active; 'I' for Inactive)
REMARK    1  A    between atoms: C_1  and  C_2
REMARK    2  A    between atoms: C_2  and  C_4
REMARK    3  A    between atoms: C_2  and  S_18
REMARK    4  A    between atoms: C_4  and  C_6
REMARK    5  A    between atoms: C_6  and  C_16
REMARK    6  A    between atoms: S_18  and  C_19
REMARK                            x       y       z     vdW  Elec       q    Type
REMARK                         _______ _______ _______ _____ _____    ______ ____
ROOT
ATOM      1  C   UNL     1      -3.181  -2.944   0.016  0.00  0.00    +0.189 C 
ATOM      2  O   UNL     1      -3.543  -1.784   0.026  0.00  0.00    -0.290 OA
ENDROOT
BRANCH   1   3
ATOM      3  C   UNL     1      -1.811  -3.253   0.001  0.00  0.00    +0.123 C 
ATOM      4  C   UNL     1      -0.857  -2.218  -0.003  0.00  0.00    +0.091 C 
ATOM      5  N   UNL     1      -1.069  -0.876   0.007  0.00  0.00    -0.307 N 
ATOM      6  C   UNL     1       0.002  -0.004   0.002  0.00  0.00    +0.046 A 
ATOM      7  C   UNL     1      -0.017   1.400   0.010  0.00  0.00    +0.024 A 
ATOM      8  C   UNL     1       1.155   2.119   0.002  0.00  0.00    +0.002 A 
ATOM      9  C   UNL     1       2.386   1.485  -0.013  0.00  0.00    +0.001 A 
ATOM     10  C   UNL     1       2.434   0.102  -0.021  0.00  0.00    +0.017 A 
ATOM     11  C   UNL     1       1.263  -0.618  -0.013  0.00  0.00    +0.035 A 
ATOM     12  S   UNL     1       0.872  -2.349  -0.019  0.00  0.00    -0.071 S 
ATOM     13  H   UNL     1      -2.096  -0.482   0.019  0.00  0.00    +0.153 HD
BRANCH   3  14
ATOM     14  C   UNL     1      -1.385  -4.620  -0.012  0.00  0.00    +0.105 C 
ATOM     15  N   UNL     1      -1.047  -5.704  -0.021  0.00  0.00    -0.191 NA
ENDBRANCH   3  14
ENDBRANCH   1   3
BRANCH   1  17
ATOM     16  C   UNL     1      -4.442  -4.521   1.456  0.00  0.00    +0.028 C 
ATOM     17  C   UNL     1      -4.203  -4.052   0.019  0.00  0.00    +0.121 C 
BRANCH  17  18
ATOM     18  S   UNL     1      -5.756  -3.443  -0.684  0.00  0.00    -0.094 S 
BRANCH  18  19
ATOM     19  C   UNL     1      -6.691  -4.936  -0.699  0.00  0.00    +0.109 A 
ATOM     20  C   UNL     1      -8.030  -4.943  -1.181  0.00  0.00    +0.040 A 
ATOM     21  C   UNL     1      -8.829  -3.856  -1.719  0.00  0.00    +0.020 A 
ATOM     22  C   UNL     1     -10.083  -4.103  -2.125  0.00  0.00    +0.048 A 
ATOM     23  S   UNL     1     -10.284  -5.848  -1.815  0.00  0.00    -0.077 S 
ATOM     24  C   UNL     1      -8.678  -6.197  -1.150  0.00  0.00    +0.112 A 
ATOM     25  N   UNL     1      -8.070  -7.274  -0.691  0.00  0.00    -0.228 NA
ATOM     26  C   UNL     1      -6.829  -7.204  -0.252  0.00  0.00    +0.223 A 
ATOM     27  N   UNL     1      -6.159  -6.065  -0.257  0.00  0.00    -0.229 NA
ENDBRANCH  18  19
ENDBRANCH  17  18
ENDBRANCH   1  17
TORSDOF 5
