REMARK  Name = ZINC14995158
REMARK  10 active torsions:
REMARK  status: ('A' for Active; 'I' for Inactive)
REMARK    1  A    between atoms: C_1  and  C_2
REMARK    2  A    between atoms: C_2  and  C_3
REMARK    3  A    between atoms: C_2  and  C_4
REMARK    4  A    between atoms: C_4  and  C_5
REMARK    5  A    between atoms: C_8  and  C_11
REMARK    6  A    between atoms: C_11  and  N_12
REMARK    7  A    between atoms: C_18  and  C_22
REMARK    8  A    between atoms: C_22  and  C_23
REMARK    9  A    between atoms: C_23  and  N_24
REMARK   10  A    between atoms: C_25  and  C_27
REMARK                            x       y       z     vdW  Elec       q    Type
REMARK                         _______ _______ _______ _____ _____    ______ ____
ROOT
ATOM      1  N   UNL     1       5.643   3.095  -3.786  0.00  0.00    -0.296 NA
ATOM      2  C   UNL     1       5.923   3.964  -2.641  0.00  0.00    +0.092 C 
ATOM      3  C   UNL     1       6.579   3.156  -1.524  0.00  0.00    +0.091 C 
ATOM      4  C   UNL     1       5.504   2.557  -0.655  0.00  0.00    +0.135 A 
ATOM      5  N   UNL     1       5.456   2.526   0.645  0.00  0.00    -0.134 NA
ATOM      6  N   UNL     1       4.396   1.900   1.022  0.00  0.00    -0.134 NA
ATOM      7  C   UNL     1       3.719   1.508  -0.025  0.00  0.00    +0.135 A 
ATOM      8  N   UNL     1       4.400   1.920  -1.116  0.00  0.00    -0.313 N 
ATOM      9  C   UNL     1       4.031   1.744  -2.521  0.00  0.00    +0.140 C 
ATOM     10  C   UNL     1       5.301   1.729  -3.376  0.00  0.00    +0.106 C 
ENDROOT
BRANCH   1  11
ATOM     11  C   UNL     1       6.765   3.096  -4.734  0.00  0.00    +0.119 C 
BRANCH  11  15
ATOM     12  C   UNL     1       7.229   7.006  -6.390  0.00  0.00    -0.047 A 
ATOM     13  C   UNL     1       7.903   6.660  -5.234  0.00  0.00    +0.004 A 
ATOM     14  C   UNL     1       7.753   5.395  -4.698  0.00  0.00    +0.005 A 
ATOM     15  C   UNL     1       6.928   4.475  -5.318  0.00  0.00    -0.033 A 
ATOM     16  C   UNL     1       6.258   4.819  -6.477  0.00  0.00    +0.005 A 
ATOM     17  C   UNL     1       6.404   6.086  -7.010  0.00  0.00    +0.004 A 
BRANCH  12  18
ATOM     18  C   UNL     1       7.391   8.386  -6.973  0.00  0.00    +0.038 C 
BRANCH  18  20
ATOM     19  C   UNL     1       8.648   9.753  -8.645  0.00  0.00    +0.007 C 
ATOM     20  C   UNL     1       8.560   8.388  -7.960  0.00  0.00    -0.013 C 
ATOM     21  C   UNL     1       9.863   8.110  -7.208  0.00  0.00    +0.007 C 
ENDBRANCH  18  20
ENDBRANCH  12  18
ENDBRANCH  11  15
ENDBRANCH   1  11
BRANCH   7  22
ATOM     22  C   UNL     1       2.424   0.737  -0.017  0.00  0.00    +0.095 C 
BRANCH  22  23
ATOM     23  C   UNL     1       1.248   1.716  -0.001  0.00  0.00    +0.112 C 
BRANCH  23  24
ATOM     24  N   UNL     1      -0.011   0.966   0.007  0.00  0.00    -0.311 N 
ATOM     25  C   UNL     1      -1.187   1.624   0.017  0.00  0.00    +0.244 C 
ATOM     26  O   UNL     1      -1.204   2.839   0.023  0.00  0.00    -0.270 OA
ATOM     27  H   UNL     1       0.004  -0.134   0.006  0.00  0.00    +0.149 HD
BRANCH  25  28
ATOM     28  C   UNL     1      -2.457   0.868   0.018  0.00  0.00    +0.037 A 
ATOM     29  C   UNL     1      -2.440  -0.528   0.005  0.00  0.00    +0.016 A 
ATOM     30  C   UNL     1      -3.627  -1.229   0.013  0.00  0.00    +0.039 A 
ATOM     31  C   UNL     1      -4.836  -0.549   0.022  0.00  0.00    +0.123 A 
ATOM     32  C   UNL     1      -4.858   0.837   0.030  0.00  0.00    +0.039 A 
ATOM     33  C   UNL     1      -3.677   1.547   0.028  0.00  0.00    +0.016 A 
ATOM     34  F   UNL     1      -5.997  -1.241   0.024  0.00  0.00    -0.205 F 
ENDBRANCH  25  28
ENDBRANCH  23  24
ENDBRANCH  22  23
ENDBRANCH   7  22
TORSDOF 8
