REMARK  Name = ZINC13093350
REMARK  9 active torsions:
REMARK  status: ('A' for Active; 'I' for Inactive)
REMARK    1  A    between atoms: C_1  and  C_2
REMARK    2  A    between atoms: C_4  and  C_28
REMARK    3  A    between atoms: C_6  and  C_8
REMARK    4  A    between atoms: C_11  and  S_13
REMARK    5  A    between atoms: S_13  and  C_14
REMARK    6  A    between atoms: C_14  and  C_15
REMARK    7  A    between atoms: N_17  and  C_18
REMARK    8  A    between atoms: C_20  and  C_26
REMARK    9  A    between atoms: C_22  and  C_24
REMARK                            x       y       z     vdW  Elec       q    Type
REMARK                         _______ _______ _______ _____ _____    ______ ____
ROOT
ATOM      1  C   UNL     1      -1.242   5.921  -0.056  0.00  0.00    +0.228 C 
ATOM      2  O   UNL     1      -2.286   5.303  -0.049  0.00  0.00    -0.275 OA
ATOM      3  N   UNL     1      -0.069   5.262   0.031  0.00  0.00    -0.285 N 
ATOM      4  H   UNL     1       0.761   5.758   0.103  0.00  0.00    +0.155 HD
ENDROOT
BRANCH   3   5
ATOM      5  C   UNL     1      -0.050   3.862   0.018  0.00  0.00    +0.035 A 
ATOM      6  C   UNL     1      -0.987   3.165  -0.730  0.00  0.00    +0.038 A 
ATOM      7  C   UNL     1      -0.971   1.768  -0.746  0.00  0.00    +0.066 A 
ATOM      8  C   UNL     1      -0.011   1.076  -0.009  0.00  0.00    +0.030 A 
ATOM      9  C   UNL     1       0.925   1.780   0.745  0.00  0.00    +0.066 A 
ATOM     10  C   UNL     1       0.906   3.176   0.752  0.00  0.00    +0.038 A 
BRANCH   9  11
ATOM     11  C   UNL     1       1.941   1.050   1.532  0.00  0.00    +0.387 C 
ATOM     12  O   UNL     1       2.757   1.665   2.190  0.00  0.00    -0.241 OA
ATOM     13  O   UNL     1       1.962  -0.296   1.521  0.00  0.00    -0.241 OA
ENDBRANCH   9  11
BRANCH   7  14
ATOM     14  C   UNL     1      -1.970   1.026  -1.542  0.00  0.00    +0.387 C 
ATOM     15  O   UNL     1      -2.806   1.630  -2.183  0.00  0.00    -0.241 OA
ATOM     16  O   UNL     1      -1.954  -0.321  -1.556  0.00  0.00    -0.241 OA
ENDBRANCH   7  14
ENDBRANCH   3   5
BRANCH   1  17
ATOM     17  C   UNL     1      -1.256   7.424  -0.161  0.00  0.00    +0.175 C 
BRANCH  17  18
ATOM     18  S   UNL     1      -2.967   8.006  -0.262  0.00  0.00    -0.056 S 
BRANCH  18  22
ATOM     19  C   UNL     1      -2.988  11.876  -0.532  0.00  0.00    +0.249 A 
ATOM     20  N   UNL     1      -1.705  11.618  -0.469  0.00  0.00    -0.106 NA
ATOM     21  N   UNL     1      -1.528  10.348  -0.369  0.00  0.00    -0.101 NA
ATOM     22  C   UNL     1      -2.693   9.743  -0.373  0.00  0.00    +0.278 A 
ATOM     23  O   UNL     1      -3.641  10.694  -0.473  0.00  0.00    -0.411 OA
BRANCH  19  29
ATOM     24  C   UNL     1      -7.067  14.729  -0.877  0.00  0.00    +0.044 C 
ATOM     25  C   UNL     1      -5.568  14.590  -0.814  0.00  0.00    -0.049 A 
ATOM     26  C   UNL     1      -4.768  15.717  -0.865  0.00  0.00    +0.006 A 
ATOM     27  C   UNL     1      -3.390  15.599  -0.808  0.00  0.00    -0.049 A 
ATOM     28  C   UNL     1      -2.806  14.354  -0.699  0.00  0.00    +0.016 A 
ATOM     29  C   UNL     1      -3.607  13.212  -0.648  0.00  0.00    +0.039 A 
ATOM     30  C   UNL     1      -4.996  13.339  -0.712  0.00  0.00    +0.016 A 
ATOM     31  C   UNL     1      -2.527  16.833  -0.863  0.00  0.00    +0.044 C 
ENDBRANCH  19  29
ENDBRANCH  18  22
ENDBRANCH  17  18
ENDBRANCH   1  17
TORSDOF 7
