REMARK  Name = ZINC66679734
REMARK  9 active torsions:
REMARK  status: ('A' for Active; 'I' for Inactive)
REMARK    1  A    between atoms: C_1  and  C_2
REMARK    2  A    between atoms: C_5  and  C_32
REMARK    3  A    between atoms: N_8  and  C_10
REMARK    4  A    between atoms: C_10  and  C_11
REMARK    5  A    between atoms: C_10  and  C_12
REMARK    6  A    between atoms: C_10  and  C_13
REMARK    7  A    between atoms: C_13  and  N_14
REMARK    8  A    between atoms: N_17  and  C_18
REMARK    9  A    between atoms: C_22  and  C_24
REMARK                            x       y       z     vdW  Elec       q    Type
REMARK                         _______ _______ _______ _____ _____    ______ ____
ROOT
ATOM      1  N   UNL     1       3.470  -2.382   0.898  0.00  0.00    -0.300 N 
ATOM      2  C   UNL     1       4.761  -2.177   0.570  0.00  0.00    +0.304 C 
ATOM      3  O   UNL     1       5.521  -1.674   1.376  0.00  0.00    -0.253 OA
ATOM      4  N   UNL     1       5.210  -2.529  -0.651  0.00  0.00    -0.269 N 
ATOM      5  H   UNL     1       2.865  -2.784   0.256  0.00  0.00    +0.150 HD
ATOM      6  H   UNL     1       4.622  -2.987  -1.270  0.00  0.00    +0.156 HD
ENDROOT
BRANCH   4   7
ATOM      7  C   UNL     1       6.526  -2.232  -1.025  0.00  0.00    +0.035 A 
ATOM      8  C   UNL     1       7.548  -2.301  -0.086  0.00  0.00    +0.023 A 
ATOM      9  C   UNL     1       8.848  -2.008  -0.451  0.00  0.00    +0.002 A 
ATOM     10  C   UNL     1       9.139  -1.645  -1.751  0.00  0.00    +0.010 A 
ATOM     11  C   UNL     1       8.120  -1.573  -2.700  0.00  0.00    +0.004 A 
ATOM     12  C   UNL     1       6.811  -1.874  -2.333  0.00  0.00    +0.033 A 
BRANCH  11  13
ATOM     13  C   UNL     1       8.431  -1.182  -4.097  0.00  0.00    +0.091 A 
ATOM     14  C   UNL     1       9.765  -0.888  -4.466  0.00  0.00    +0.035 A 
ATOM     15  C   UNL     1      10.013  -0.533  -5.759  0.00  0.00    +0.073 A 
ATOM     16  C   UNL     1       8.919  -0.481  -6.652  0.00  0.00    +0.265 A 
ATOM     17  O   UNL     1       9.093  -0.169  -7.819  0.00  0.00    -0.266 OA
ATOM     18  N   UNL     1       7.685  -0.779  -6.206  0.00  0.00    -0.243 N 
ATOM     19  H   UNL     1       6.938  -0.742  -6.824  0.00  0.00    +0.192 HD
ATOM     20  N   UNL     1       7.469  -1.116  -4.986  0.00  0.00    -0.171 NA
ENDBRANCH  11  13
ENDBRANCH   4   7
BRANCH   1  21
ATOM     21  C   UNL     1       2.982  -2.000   2.226  0.00  0.00    +0.093 C 
BRANCH  21  22
ATOM     22  C   UNL     1       1.523  -2.435   2.377  0.00  0.00    -0.055 C 
ATOM     23  C   UNL     1       0.989  -1.964   3.731  0.00  0.00    -0.008 C 
ATOM     24  C   UNL     1       1.435  -3.960   2.297  0.00  0.00    -0.008 C 
BRANCH  22  30
ATOM     25  C   UNL     1       0.170   1.768   0.263  0.00  0.00    +0.005 C 
ATOM     26  C   UNL     1       0.059   0.244   0.195  0.00  0.00    -0.031 C 
ATOM     27  C   UNL     1      -1.414  -0.166   0.284  0.00  0.00    +0.003 C 
ATOM     28  C   UNL     1      -1.509  -1.694   0.293  0.00  0.00    -0.031 C 
ATOM     29  C   UNL     1      -0.682  -2.244   1.457  0.00  0.00    -0.075 C 
ATOM     30  N   UNL     1       0.720  -1.841   1.300  0.00  0.00    +0.384 N 
ATOM     31  C   UNL     1       0.828  -0.378   1.362  0.00  0.00    -0.075 C 
ATOM     32  C   UNL     1      -2.970  -2.115   0.459  0.00  0.00    +0.005 C 
ATOM     33  H   UNL     1       1.065  -2.164   0.409  0.00  0.00    -0.081 HD
ENDBRANCH  22  30
ENDBRANCH  21  22
ENDBRANCH   1  21
TORSDOF 5
