REMARK  Name = ZINC39695724
REMARK  6 active torsions:
REMARK  status: ('A' for Active; 'I' for Inactive)
REMARK    1  A    between atoms: C_1  and  C_2
REMARK    2  A    between atoms: C_10  and  C_12
REMARK    3  A    between atoms: C_12  and  C_13
REMARK    4  A    between atoms: C_12  and  N_14
REMARK    5  A    between atoms: C_15  and  C_17
REMARK    6  A    between atoms: C_27  and  C_29
REMARK                            x       y       z     vdW  Elec       q    Type
REMARK                         _______ _______ _______ _____ _____    ______ ____
ROOT
ATOM      1  C   UNL     1       1.869  -8.731   0.983  0.00  0.00    +0.100 C 
ATOM      2  C   UNL     1       0.766  -9.490   0.213  0.00  0.00    +0.121 C 
ATOM      3  N   UNL     1       1.253 -10.888   0.143  0.00  0.00    -0.296 N 
ATOM      4  C   UNL     1       1.870 -11.131   1.469  0.00  0.00    +0.115 C 
ATOM      5  C   UNL     1       2.589  -9.812   1.806  0.00  0.00    -0.004 C 
ATOM      6  C   UNL     1       2.464  -9.512   3.297  0.00  0.00    -0.010 C 
ATOM      7  C   UNL     1       3.236 -10.568   4.093  0.00  0.00    -0.082 C 
ATOM      8  N   UNL     1       4.647 -10.554   3.687  0.00  0.00    +0.379 N 
ATOM      9  C   UNL     1       4.765 -10.936   2.274  0.00  0.00    -0.082 C 
ATOM     10  C   UNL     1       4.057  -9.895   1.402  0.00  0.00    -0.010 C 
ATOM     11  C   UNL     1       1.157 -11.745  -0.893  0.00  0.00    +0.249 C 
ATOM     12  O   UNL     1       0.706 -11.366  -1.956  0.00  0.00    -0.270 OA
ATOM     13  H   UNL     1       5.024  -9.627   3.816  0.00  0.00    -0.086 HD
ATOM     14  H   UNL     1       5.165 -11.208   4.255  0.00  0.00    -0.086 HD
ENDROOT
BRANCH  11  15
ATOM     15  C   UNL     1       1.598 -13.145  -0.736  0.00  0.00    +0.072 A 
ATOM     16  C   UNL     1       1.423 -13.803   0.484  0.00  0.00    +0.019 A 
ATOM     17  C   UNL     1       1.837 -15.109   0.625  0.00  0.00    +0.039 A 
ATOM     18  C   UNL     1       2.427 -15.773  -0.441  0.00  0.00    +0.126 A 
ATOM     19  C   UNL     1       2.604 -15.128  -1.653  0.00  0.00    +0.077 A 
ATOM     20  C   UNL     1       2.188 -13.820  -1.810  0.00  0.00    +0.138 A 
ATOM     21  F   UNL     1       2.355 -13.193  -2.995  0.00  0.00    -0.205 F 
ATOM     22  F   UNL     1       2.831 -17.054  -0.295  0.00  0.00    -0.205 F 
ENDBRANCH  11  15
BRANCH   1  24
ATOM     23  N   UNL     1       2.001  -6.664   2.336  0.00  0.00    -0.305 N 
ATOM     24  C   UNL     1       1.258  -7.698   1.894  0.00  0.00    +0.219 C 
ATOM     25  O   UNL     1       0.096  -7.796   2.229  0.00  0.00    -0.275 OA
ATOM     26  H   UNL     1       2.930  -6.585   2.068  0.00  0.00    +0.149 HD
BRANCH  23  27
ATOM     27  C   UNL     1       1.407  -5.660   3.221  0.00  0.00    +0.136 C 
ATOM     28  C   UNL     1       0.694  -4.598   2.382  0.00  0.00    +0.036 C 
BRANCH  27  38
ATOM     29  C   UNL     1       5.779  -2.195   8.147  0.00  0.00    +0.044 C 
ATOM     30  C   UNL     1       5.300  -2.930   6.922  0.00  0.00    -0.048 A 
ATOM     31  C   UNL     1       6.202  -3.263   5.921  0.00  0.00    +0.005 A 
ATOM     32  C   UNL     1       5.787  -3.929   4.803  0.00  0.00    +0.030 A 
ATOM     33  C   UNL     1       4.443  -4.282   4.661  0.00  0.00    +0.089 A 
ATOM     34  C   UNL     1       3.530  -3.946   5.674  0.00  0.00    +0.067 A 
ATOM     35  C   UNL     1       3.970  -3.273   6.806  0.00  0.00    +0.031 A 
ATOM     36  N   UNL     1       2.303  -4.420   5.253  0.00  0.00    -0.340 N 
ATOM     37  H   UNL     1       1.463  -4.345   5.733  0.00  0.00    +0.167 HD
ATOM     38  C   UNL     1       2.490  -5.009   4.042  0.00  0.00    +0.128 A 
ATOM     39  N   UNL     1       3.742  -4.929   3.695  0.00  0.00    -0.231 NA
ENDBRANCH  27  38
ENDBRANCH  23  27
ENDBRANCH   1  24
TORSDOF 4
