REMARK  Name = ZINC56718412
REMARK  7 active torsions:
REMARK  status: ('A' for Active; 'I' for Inactive)
REMARK    1  A    between atoms: C_1  and  O_2
REMARK    2  A    between atoms: O_2  and  C_3
REMARK    3  A    between atoms: C_6  and  N_10
REMARK    4  A    between atoms: N_13  and  C_14
REMARK    5  A    between atoms: C_14  and  C_15
REMARK    6  A    between atoms: C_15  and  C_17
REMARK    7  A    between atoms: C_15  and  N_22
REMARK                            x       y       z     vdW  Elec       q    Type
REMARK                         _______ _______ _______ _____ _____    ______ ____
ROOT
ATOM      1  N   UNL     1      -4.736  -3.173   0.065  0.00  0.00    -0.269 N 
ATOM      2  C   UNL     1      -5.413  -3.266  -1.096  0.00  0.00    +0.304 C 
ATOM      3  O   UNL     1      -4.856  -3.011  -2.147  0.00  0.00    -0.253 OA
ATOM      4  N   UNL     1      -6.707  -3.642  -1.094  0.00  0.00    -0.300 N 
ATOM      5  H   UNL     1      -5.157  -3.446   0.895  0.00  0.00    +0.156 HD
ATOM      6  H   UNL     1      -7.152  -3.845  -0.256  0.00  0.00    +0.150 HD
ENDROOT
BRANCH   1  10
ATOM      7  C   UNL     1      -0.829  -1.708   0.092  0.00  0.00    +0.190 A 
ATOM      8  C   UNL     1      -1.755  -1.198  -0.807  0.00  0.00    +0.169 A 
ATOM      9  C   UNL     1      -3.050  -1.684  -0.816  0.00  0.00    +0.065 A 
ATOM     10  C   UNL     1      -3.424  -2.681   0.074  0.00  0.00    +0.040 A 
ATOM     11  C   UNL     1      -2.498  -3.191   0.974  0.00  0.00    +0.065 A 
ATOM     12  C   UNL     1      -1.201  -2.710   0.979  0.00  0.00    +0.169 A 
ATOM     13  F   UNL     1      -0.298  -3.210   1.850  0.00  0.00    -0.201 F 
ATOM     14  F   UNL     1      -1.392  -0.227  -1.673  0.00  0.00    -0.201 F 
BRANCH   7  16
ATOM     15  C   UNL     1       1.389  -1.884  -0.749  0.00  0.00    +0.277 C 
ATOM     16  O   UNL     1       0.445  -1.231   0.101  0.00  0.00    -0.490 OA
ENDBRANCH   7  16
ENDBRANCH   1  10
BRANCH   4  17
ATOM     17  C   UNL     1      -7.443  -3.743  -2.357  0.00  0.00    +0.098 C 
BRANCH  17  18
ATOM     18  C   UNL     1      -8.908  -4.079  -2.068  0.00  0.00    +0.016 C 
BRANCH  18  19
ATOM     19  N   UNL     1      -8.980  -5.308  -1.266  0.00  0.00    +0.387 N 
ATOM     20  C   UNL     1      -8.241  -6.378  -1.947  0.00  0.00    -0.078 C 
ATOM     21  C   UNL     1      -8.244  -7.637  -1.077  0.00  0.00    -0.019 C 
ATOM     22  C   UNL     1      -9.690  -8.084  -0.840  0.00  0.00    -0.004 C 
ATOM     23  C   UNL     1     -10.470  -6.933  -0.198  0.00  0.00    -0.019 C 
ATOM     24  C   UNL     1     -10.384  -5.700  -1.100  0.00  0.00    -0.078 C 
ATOM     25  H   UNL     1      -8.568  -5.141  -0.360  0.00  0.00    -0.081 HD
ENDBRANCH  18  19
BRANCH  18  26
ATOM     26  C   UNL     1      -9.642  -4.283  -3.368  0.00  0.00    +0.093 A 
ATOM     27  C   UNL     1     -10.438  -3.383  -3.972  0.00  0.00    +0.043 A 
ATOM     28  C   UNL     1     -10.915  -3.989  -5.157  0.00  0.00    +0.041 A 
ATOM     29  C   UNL     1     -10.383  -5.223  -5.206  0.00  0.00    +0.195 A 
ATOM     30  O   UNL     1      -9.607  -5.394  -4.123  0.00  0.00    -0.469 OA
ENDBRANCH  18  26
ENDBRANCH  17  18
ENDBRANCH   4  17
TORSDOF 6
