REMARK  Name = ZINC39666677
REMARK  8 active torsions:
REMARK  status: ('A' for Active; 'I' for Inactive)
REMARK    1  A    between atoms: C_1  and  C_2
REMARK    2  A    between atoms: C_2  and  C_3
REMARK    3  A    between atoms: C_3  and  C_4
REMARK    4  A    between atoms: C_3  and  C_6
REMARK    5  A    between atoms: C_4  and  C_5
REMARK    6  A    between atoms: C_6  and  N_7
REMARK    7  A    between atoms: C_8  and  C_10
REMARK    8  A    between atoms: C_21  and  C_23
REMARK                            x       y       z     vdW  Elec       q    Type
REMARK                         _______ _______ _______ _____ _____    ______ ____
ROOT
ATOM      1  C   UNL     1      -2.718  -4.223  -2.313  0.00  0.00    +0.100 C 
ATOM      2  C   UNL     1      -3.632  -3.826  -1.132  0.00  0.00    +0.121 C 
ATOM      3  N   UNL     1      -4.651  -4.901  -1.070  0.00  0.00    -0.296 N 
ATOM      4  C   UNL     1      -3.894  -6.144  -1.352  0.00  0.00    +0.115 C 
ATOM      5  C   UNL     1      -2.892  -5.745  -2.453  0.00  0.00    -0.004 C 
ATOM      6  C   UNL     1      -1.558  -6.451  -2.234  0.00  0.00    -0.010 C 
ATOM      7  C   UNL     1      -1.743  -7.957  -2.436  0.00  0.00    -0.082 C 
ATOM      8  N   UNL     1      -2.238  -8.213  -3.794  0.00  0.00    +0.379 N 
ATOM      9  C   UNL     1      -3.564  -7.608  -3.967  0.00  0.00    -0.082 C 
ATOM     10  C   UNL     1      -3.455  -6.087  -3.829  0.00  0.00    -0.010 C 
ATOM     11  C   UNL     1      -5.969  -4.776  -0.816  0.00  0.00    +0.248 C 
ATOM     12  O   UNL     1      -6.464  -3.672  -0.698  0.00  0.00    -0.270 OA
ATOM     13  H   UNL     1      -1.598  -7.814  -4.464  0.00  0.00    -0.086 HD
ATOM     14  H   UNL     1      -2.301  -9.209  -3.946  0.00  0.00    -0.086 HD
ENDROOT
BRANCH  11  15
ATOM     15  C   UNL     1      -6.812  -5.982  -0.680  0.00  0.00    +0.055 A 
ATOM     16  C   UNL     1      -6.293  -7.138  -0.093  0.00  0.00    +0.016 A 
ATOM     17  C   UNL     1      -7.085  -8.259   0.032  0.00  0.00    +0.021 A 
ATOM     18  C   UNL     1      -8.393  -8.242  -0.425  0.00  0.00    +0.042 A 
ATOM     19  C   UNL     1      -8.914  -7.101  -1.008  0.00  0.00    +0.040 A 
ATOM     20  C   UNL     1      -8.134  -5.968  -1.132  0.00  0.00    +0.054 A 
ATOM     21 CL   UNL     1      -8.791  -4.534  -1.857  0.00  0.00    -0.083 Cl
ATOM     22 CL   UNL     1      -9.383  -9.660  -0.265  0.00  0.00    -0.083 Cl
ENDBRANCH  11  15
BRANCH   1  24
ATOM     23  N   UNL     1      -0.436  -3.559  -2.998  0.00  0.00    -0.315 N 
ATOM     24  C   UNL     1      -1.283  -3.885  -2.002  0.00  0.00    +0.218 C 
ATOM     25  O   UNL     1      -0.890  -3.906  -0.854  0.00  0.00    -0.275 OA
ATOM     26  H   UNL     1      -0.750  -3.542  -3.916  0.00  0.00    +0.149 HD
BRANCH  23  27
ATOM     27  C   UNL     1       0.959  -3.231  -2.696  0.00  0.00    +0.107 C 
BRANCH  27  28
ATOM     28  C   UNL     1       1.698  -2.900  -3.994  0.00  0.00    +0.006 C 
BRANCH  28  30
ATOM     29  C   UNL     1       1.746  -1.379  -5.976  0.00  0.00    +0.004 C 
ATOM     30  C   UNL     1       1.107  -1.630  -4.608  0.00  0.00    +0.002 C 
ENDBRANCH  28  30
BRANCH  28  31
ATOM     31  C   UNL     1       3.182  -2.679  -3.694  0.00  0.00    +0.002 C 
ATOM     32  C   UNL     1       3.806  -3.991  -3.213  0.00  0.00    +0.004 C 
ENDBRANCH  28  31
ENDBRANCH  27  28
ENDBRANCH  23  27
ENDBRANCH   1  24
TORSDOF 6
