REMARK  Name = ZINC44171792
REMARK  13 active torsions:
REMARK  status: ('A' for Active; 'I' for Inactive)
REMARK    1  A    between atoms: C_1  and  O_2
REMARK    2  A    between atoms: O_2  and  C_3
REMARK    3  A    between atoms: C_6  and  C_10
REMARK    4  A    between atoms: C_8  and  O_9
REMARK    5  A    between atoms: C_11  and  C_12
REMARK    6  A    between atoms: C_14  and  O_35
REMARK    7  A    between atoms: C_16  and  O_18
REMARK    8  A    between atoms: O_18  and  C_19
REMARK    9  A    between atoms: C_21  and  O_34
REMARK   10  A    between atoms: C_23  and  O_33
REMARK   11  A    between atoms: C_25  and  O_32
REMARK   12  A    between atoms: C_27  and  C_30
REMARK   13  A    between atoms: C_30  and  O_31
REMARK                            x       y       z     vdW  Elec       q    Type
REMARK                         _______ _______ _______ _____ _____    ______ ____
ROOT
ATOM      1  C   UNL     1       3.813  -2.461   6.395  0.00  0.00    -0.018 A 
ATOM      2  C   UNL     1       3.883  -3.855   6.450  0.00  0.00    +0.053 A 
ATOM      3  C   UNL     1       4.521  -4.473   7.512  0.00  0.00    +0.121 A 
ATOM      4  C   UNL     1       5.091  -3.709   8.521  0.00  0.00    +0.091 A 
ATOM      5  C   UNL     1       5.024  -2.324   8.471  0.00  0.00    +0.128 A 
ATOM      6  C   UNL     1       4.394  -1.697   7.410  0.00  0.00    +0.054 A 
ENDROOT
BRANCH   1   8
ATOM      7  C   UNL     1       2.578  -2.534   4.292  0.00  0.00    +0.008 C 
ATOM      8  C   UNL     1       3.135  -1.798   5.267  0.00  0.00    +0.009 C 
BRANCH   7  12
ATOM      9  C   UNL     1       0.626  -0.619   1.042  0.00  0.00    +0.161 A 
ATOM     10  C   UNL     1       1.202   0.141   2.050  0.00  0.00    +0.050 A 
ATOM     11  C   UNL     1       1.836  -0.477   3.107  0.00  0.00    +0.012 A 
ATOM     12  C   UNL     1       1.900  -1.872   3.164  0.00  0.00    -0.021 A 
ATOM     13  C   UNL     1       1.320  -2.636   2.148  0.00  0.00    +0.057 A 
ATOM     14  C   UNL     1       0.681  -2.010   1.095  0.00  0.00    +0.159 A 
BRANCH   9  16
ATOM     15  C   UNL     1      -0.017   1.425   0.010  0.00  0.00    +0.277 C 
ATOM     16  O   UNL     1       0.002  -0.004   0.002  0.00  0.00    -0.491 OA
ENDBRANCH   9  16
BRANCH  14  17
ATOM     17  O   UNL     1       0.111  -2.751   0.108  0.00  0.00    -0.503 OA
ATOM     18  H   UNL     1       0.706  -2.952  -0.627  0.00  0.00    +0.292 HD
ENDBRANCH  14  17
ENDBRANCH   7  12
ENDBRANCH   1   8
BRANCH   3  19
ATOM     19  O   UNL     1       4.588  -5.829   7.567  0.00  0.00    -0.507 OA
ATOM     20  H   UNL     1       5.370  -6.201   7.136  0.00  0.00    +0.292 HD
ENDBRANCH   3  19
BRANCH   5  21
ATOM     21  O   UNL     1       5.584  -1.582   9.463  0.00  0.00    -0.461 OA
BRANCH  21  22
ATOM     22  C   UNL     1       6.224  -2.294  10.524  0.00  0.00    +0.339 C 
ATOM     23  C   UNL     1       6.897  -1.300  11.473  0.00  0.00    +0.214 C 
ATOM     24  C   UNL     1       7.528  -2.066  12.640  0.00  0.00    +0.180 C 
ATOM     25  C   UNL     1       6.445  -2.894  13.338  0.00  0.00    +0.177 C 
ATOM     26  C   UNL     1       5.790  -3.827  12.316  0.00  0.00    +0.179 C 
ATOM     27  O   UNL     1       5.250  -3.053  11.243  0.00  0.00    -0.331 OA
BRANCH  25  28
ATOM     28  O   UNL     1       5.459  -2.021  13.891  0.00  0.00    -0.386 OA
ATOM     29  H   UNL     1       5.806  -1.398  14.544  0.00  0.00    +0.210 HD
ENDBRANCH  25  28
BRANCH  24  30
ATOM     30  O   UNL     1       8.097  -1.141  13.568  0.00  0.00    -0.386 OA
ATOM     31  H   UNL     1       8.787  -0.578  13.190  0.00  0.00    +0.210 HD
ENDBRANCH  24  30
BRANCH  23  32
ATOM     32  O   UNL     1       7.910  -0.579  10.770  0.00  0.00    -0.383 OA
ATOM     33  H   UNL     1       7.581  -0.073  10.014  0.00  0.00    +0.210 HD
ENDBRANCH  23  32
BRANCH  26  34
ATOM     34  C   UNL     1       4.666  -4.615  12.993  0.00  0.00    +0.190 C 
BRANCH  34  35
ATOM     35  O   UNL     1       4.131  -5.569  12.072  0.00  0.00    -0.392 OA
ATOM     36  H   UNL     1       3.413  -6.105  12.434  0.00  0.00    +0.210 HD
ENDBRANCH  34  35
ENDBRANCH  26  34
ENDBRANCH  21  22
ENDBRANCH   5  21
TORSDOF 12
