REMARK  Name = ZINC58310475
REMARK  7 active torsions:
REMARK  status: ('A' for Active; 'I' for Inactive)
REMARK    1  A    between atoms: C_1  and  C_2
REMARK    2  A    between atoms: C_4  and  C_12
REMARK    3  A    between atoms: C_6  and  C_11
REMARK    4  A    between atoms: N_14  and  C_15
REMARK    5  A    between atoms: C_17  and  C_30
REMARK    6  A    between atoms: N_19  and  C_20
REMARK    7  A    between atoms: C_24  and  C_26
REMARK                            x       y       z     vdW  Elec       q    Type
REMARK                         _______ _______ _______ _____ _____    ______ ____
ROOT
ATOM      1  C   UNL     1       0.773  -3.127  -4.717  0.00  0.00    +0.129 A 
ATOM      2  C   UNL     1       0.736  -4.484  -4.816  0.00  0.00    +0.068 A 
ATOM      3  C   UNL     1       0.857  -4.818  -6.168  0.00  0.00    +0.062 A 
ATOM      4  N   UNL     1       0.962  -3.713  -6.861  0.00  0.00    -0.170 NA
ATOM      5  N   UNL     1       0.907  -2.629  -5.977  0.00  0.00    -0.218 N 
ATOM      6  C   UNL     1       0.865  -6.216  -6.732  0.00  0.00    +0.067 C 
ENDROOT
BRANCH   5   7
ATOM      7  C   UNL     1       0.980  -1.273  -6.326  0.00  0.00    +0.068 A 
ATOM      8  C   UNL     1       0.252  -0.331  -5.612  0.00  0.00    +0.028 A 
ATOM      9  C   UNL     1       0.327   1.004  -5.958  0.00  0.00    +0.003 A 
ATOM     10  C   UNL     1       1.125   1.402  -7.015  0.00  0.00    +0.012 A 
ATOM     11  C   UNL     1       1.851   0.466  -7.728  0.00  0.00    +0.057 A 
ATOM     12  C   UNL     1       1.785  -0.870  -7.383  0.00  0.00    +0.040 A 
BRANCH  11  13
ATOM     13  C   UNL     1       2.720   0.904  -8.878  0.00  0.00    +0.417 C 
ATOM     14  F   UNL     1       2.628   2.292  -9.030  0.00  0.00    -0.166 F 
ATOM     15  F   UNL     1       4.049   0.550  -8.620  0.00  0.00    -0.166 F 
ATOM     16  F   UNL     1       2.290   0.277 -10.053  0.00  0.00    -0.166 F 
ENDBRANCH  11  13
ENDBRANCH   5   7
BRANCH   1  19
ATOM     17  C   UNL     1       0.552  -3.010  -2.356  0.00  0.00    +0.250 C 
ATOM     18  O   UNL     1       0.512  -4.225  -2.312  0.00  0.00    -0.270 OA
ATOM     19  N   UNL     1       0.683  -2.383  -3.542  0.00  0.00    -0.266 N 
ATOM     20  H   UNL     1       0.715  -1.415  -3.577  0.00  0.00    +0.157 HD
BRANCH  17  24
ATOM     21  C   UNL     1       1.826   0.956   0.405  0.00  0.00    +0.066 C 
ATOM     22  C   UNL     1       1.053  -0.326   0.235  0.00  0.00    +0.043 A 
ATOM     23  C   UNL     1       1.172  -1.034  -0.951  0.00  0.00    +0.037 A 
ATOM     24  C   UNL     1       0.457  -2.221  -1.109  0.00  0.00    +0.053 A 
ATOM     25  C   UNL     1      -0.359  -2.644  -0.041  0.00  0.00    +0.076 A 
ATOM     26  C   UNL     1      -1.236  -3.793   0.176  0.00  0.00    +0.091 A 
ATOM     27  N   UNL     1      -1.748  -3.671   1.363  0.00  0.00    -0.080 NA
ATOM     28  O   UNL     1      -1.264  -2.492   1.972  0.00  0.00    -0.334 OA
ATOM     29  C   UNL     1      -0.421  -1.864   1.127  0.00  0.00    +0.259 A 
ATOM     30  N   UNL     1       0.287  -0.748   1.217  0.00  0.00    -0.215 NA
ATOM     31  C   UNL     1      -1.498  -4.913  -0.799  0.00  0.00    +0.070 C 
ENDBRANCH  17  24
ENDBRANCH   1  19
TORSDOF 4
