REMARK  Name = ZINC04311697
REMARK  7 active torsions:
REMARK  status: ('A' for Active; 'I' for Inactive)
REMARK    1  A    between atoms: C_1  and  C_2
REMARK    2  A    between atoms: C_2  and  N_3
REMARK    3  A    between atoms: C_10  and  C_22
REMARK    4  A    between atoms: C_12  and  C_18
REMARK    5  A    between atoms: C_12  and  C_20
REMARK    6  A    between atoms: C_13  and  N_17
REMARK    7  A    between atoms: C_14  and  C_15
REMARK                            x       y       z     vdW  Elec       q    Type
REMARK                         _______ _______ _______ _____ _____    ______ ____
ROOT
ATOM      1  N   UNL     1      -1.830  -0.425   0.313  0.00  0.00    -0.298 NA
ATOM      2  C   UNL     1      -2.702  -0.197   1.480  0.00  0.00    +0.112 C 
ATOM      3  C   UNL     1      -4.081  -0.695   1.121  0.00  0.00    -0.007 C 
ATOM      4  C   UNL     1      -4.219  -1.733   0.318  0.00  0.00    -0.026 C 
ATOM      5  C   UNL     1      -3.051  -2.500  -0.234  0.00  0.00    +0.044 C 
ATOM      6  C   UNL     1      -1.711  -1.861   0.044  0.00  0.00    +0.093 C 
ATOM      7  C   UNL     1      -3.289  -2.716  -1.729  0.00  0.00    +0.068 C 
ATOM      8  C   UNL     1      -4.542  -3.573  -1.913  0.00  0.00    +0.188 C 
ATOM      9  C   UNL     1      -5.704  -3.037  -1.133  0.00  0.00    +0.054 C 
ATOM     10  C   UNL     1      -5.574  -2.187  -0.082  0.00  0.00    +0.074 C 
ENDROOT
BRANCH   7  11
ATOM     11  C   UNL     1      -3.482  -1.384  -2.407  0.00  0.00    -0.038 A 
ATOM     12  C   UNL     1      -4.729  -0.779  -2.440  0.00  0.00    +0.024 A 
ATOM     13  C   UNL     1      -4.868   0.443  -3.071  0.00  0.00    +0.111 A 
ATOM     14  N   UNL     1      -3.832   1.032  -3.637  0.00  0.00    -0.263 NA
ATOM     15  C   UNL     1      -2.632   0.486  -3.624  0.00  0.00    +0.111 A 
ATOM     16  C   UNL     1      -2.416  -0.732  -3.007  0.00  0.00    +0.024 A 
ENDBRANCH   7  11
BRANCH   9  17
ATOM     17  N   UNL     1      -6.962  -3.423  -1.501  0.00  0.00    -0.358 N 
ATOM     18  H   UNL     1      -7.085  -4.029  -2.248  0.00  0.00    +0.142 HD
ATOM     19  H   UNL     1      -7.733  -3.091  -1.014  0.00  0.00    +0.142 HD
ENDBRANCH   9  17
BRANCH   1  21
ATOM     20  C   UNL     1      -0.648   1.707   0.546  0.00  0.00    +0.020 C 
ATOM     21  C   UNL     1      -0.509   0.184   0.517  0.00  0.00    +0.081 C 
ENDBRANCH   1  21
BRANCH  10  22
ATOM     22  C   UNL     1      -6.730  -1.735   0.631  0.00  0.00    +0.101 C 
ATOM     23  N   UNL     1      -7.648  -1.376   1.198  0.00  0.00    -0.191 NA
ENDBRANCH  10  22
BRANCH   8  24
ATOM     24  C   UNL     1      -4.896  -3.604  -3.341  0.00  0.00    +0.091 C 
ATOM     25  N   UNL     1      -5.169  -3.629  -4.444  0.00  0.00    -0.194 NA
ENDBRANCH   8  24
BRANCH   8  26
ATOM     26  C   UNL     1      -4.255  -4.945  -1.462  0.00  0.00    +0.091 C 
ATOM     27  N   UNL     1      -4.033  -6.003  -1.114  0.00  0.00    -0.194 NA
ENDBRANCH   8  26
TORSDOF 6
