REMARK  Name = ZINC49967312
REMARK  6 active torsions:
REMARK  status: ('A' for Active; 'I' for Inactive)
REMARK    1  A    between atoms: C_1  and  C_2
REMARK    2  A    between atoms: C_2  and  C_4
REMARK    3  A    between atoms: C_2  and  N_22
REMARK    4  A    between atoms: C_7  and  N_10
REMARK    5  A    between atoms: N_13  and  C_14
REMARK    6  A    between atoms: N_13  and  C_15
REMARK                            x       y       z     vdW  Elec       q    Type
REMARK                         _______ _______ _______ _____ _____    ______ ____
ROOT
ATOM      1  N   UNL     1       2.743  -1.866   4.604  0.00  0.00    -0.269 N 
ATOM      2  C   UNL     1       2.053  -2.207   5.710  0.00  0.00    +0.310 C 
ATOM      3  O   UNL     1       0.838  -2.183   5.699  0.00  0.00    -0.252 OA
ATOM      4  N   UNL     1       2.710  -2.575   6.828  0.00  0.00    -0.258 N 
ATOM      5  C   UNL     1       4.173  -2.499   6.876  0.00  0.00    +0.140 C 
ATOM      6  H   UNL     1       3.710  -1.943   4.592  0.00  0.00    +0.156 HD
ENDROOT
BRANCH   4   7
ATOM      7  C   UNL     1       1.995  -3.029   7.943  0.00  0.00    +0.038 A 
ATOM      8  C   UNL     1       1.126  -4.105   7.820  0.00  0.00    +0.026 A 
ATOM      9  C   UNL     1       0.422  -4.552   8.921  0.00  0.00    +0.040 A 
ATOM     10  C   UNL     1       0.582  -3.928  10.147  0.00  0.00    +0.124 A 
ATOM     11  C   UNL     1       1.448  -2.854  10.271  0.00  0.00    +0.040 A 
ATOM     12  C   UNL     1       2.159  -2.408   9.174  0.00  0.00    +0.026 A 
ATOM     13  F   UNL     1      -0.108  -4.366  11.222  0.00  0.00    -0.205 F 
ENDBRANCH   4   7
BRANCH   1  17
ATOM     14  C   UNL     1       0.724  -0.478   1.234  0.00  0.00    -0.062 A 
ATOM     15  C   UNL     1       0.151  -1.454   2.029  0.00  0.00    +0.004 A 
ATOM     16  C   UNL     1       0.818  -1.916   3.146  0.00  0.00    +0.023 A 
ATOM     17  C   UNL     1       2.065  -1.400   3.472  0.00  0.00    +0.035 A 
ATOM     18  C   UNL     1       2.638  -0.421   2.671  0.00  0.00    +0.023 A 
ATOM     19  C   UNL     1       1.968   0.034   1.552  0.00  0.00    +0.004 A 
BRANCH  14  21
ATOM     20  C   UNL     1       0.173  -0.972  -1.133  0.00  0.00    -0.009 C 
ATOM     21  C   UNL     1      -0.006   0.024   0.015  0.00  0.00    -0.047 C 
BRANCH  21  22
ATOM     22  N   UNL     1      -1.436   0.163   0.324  0.00  0.00    +0.382 N 
ATOM     23  H   UNL     1      -1.810  -0.734   0.595  0.00  0.00    -0.089 HD
ATOM     24  H   UNL     1      -1.554   0.819   1.081  0.00  0.00    -0.089 HD
ATOM     25  H   UNL     1      -1.925   0.499  -0.492  0.00  0.00    -0.089 HD
ENDBRANCH  21  22
ENDBRANCH  14  21
ENDBRANCH   1  17
TORSDOF 4
