REMARK  Name = ZINC60371413
REMARK  10 active torsions:
REMARK  status: ('A' for Active; 'I' for Inactive)
REMARK    1  A    between atoms: C_5  and  C_7
REMARK    2  A    between atoms: C_7  and  C_8
REMARK    3  A    between atoms: C_8  and  N_9
REMARK    4  A    between atoms: N_9  and  C_10
REMARK    5  A    between atoms: N_9  and  C_18
REMARK    6  A    between atoms: C_10  and  C_11
REMARK    7  A    between atoms: C_18  and  C_19
REMARK    8  A    between atoms: N_21  and  C_22
REMARK    9  A    between atoms: C_25  and  S_28
REMARK   10  A    between atoms: S_28  and  N_31
REMARK                            x       y       z     vdW  Elec       q    Type
REMARK                         _______ _______ _______ _____ _____    ______ ____
ROOT
ATOM      1  N   UNL     1       2.221  -4.105  -1.175  0.00  0.00    +0.388 N 
ATOM      2  H   UNL     1       1.355  -4.612  -1.286  0.00  0.00    -0.081 HD
ENDROOT
BRANCH   1   3
ATOM      3  C   UNL     1       1.940  -2.664  -1.113  0.00  0.00    -0.072 C 
BRANCH   3   4
ATOM      4  C   UNL     1       0.900  -2.394  -0.023  0.00  0.00    +0.037 C 
BRANCH   4   9
ATOM      5  C   UNL     1      -0.748   0.992   0.141  0.00  0.00    +0.003 A 
ATOM      6  C   UNL     1       0.367   1.779   0.384  0.00  0.00    +0.020 A 
ATOM      7  C   UNL     1       1.607   1.178   0.484  0.00  0.00    +0.111 A 
ATOM      8  N   UNL     1       1.736  -0.128   0.352  0.00  0.00    -0.260 NA
ATOM      9  C   UNL     1       0.698  -0.907   0.121  0.00  0.00    +0.040 A 
ATOM     10  C   UNL     1      -0.573  -0.377   0.008  0.00  0.00    +0.023 A 
ENDBRANCH   4   9
ENDBRANCH   3   4
ENDBRANCH   1   3
BRANCH   1  11
ATOM     11  C   UNL     1       2.881  -4.529   0.067  0.00  0.00    -0.042 C 
BRANCH  11  12
ATOM     12  C   UNL     1       4.150  -3.740   0.256  0.00  0.00    -0.064 A 
ATOM     13  C   UNL     1       5.350  -4.238  -0.216  0.00  0.00    +0.004 A 
ATOM     14  C   UNL     1       6.515  -3.515  -0.043  0.00  0.00    +0.038 A 
ATOM     15  C   UNL     1       6.480  -2.291   0.603  0.00  0.00    +0.123 A 
ATOM     16  C   UNL     1       5.278  -1.793   1.076  0.00  0.00    +0.038 A 
ATOM     17  C   UNL     1       4.113  -2.516   0.897  0.00  0.00    +0.004 A 
ATOM     18  F   UNL     1       7.619  -1.584   0.773  0.00  0.00    -0.205 F 
ENDBRANCH  11  12
ENDBRANCH   1  11
BRANCH   1  19
ATOM     19  C   UNL     1       3.101  -4.383  -2.317  0.00  0.00    +0.019 C 
BRANCH  19  20
ATOM     20  C   UNL     1       3.290  -5.872  -2.455  0.00  0.00    +0.201 C 
ATOM     21  O   UNL     1       2.745  -6.627  -1.678  0.00  0.00    -0.278 OA
ATOM     22  N   UNL     1       4.065  -6.364  -3.441  0.00  0.00    -0.287 N 
ATOM     23  H   UNL     1       4.560  -5.760  -4.017  0.00  0.00    +0.155 HD
BRANCH  22  24
ATOM     24  C   UNL     1       4.157  -7.747  -3.635  0.00  0.00    +0.033 A 
ATOM     25  C   UNL     1       5.352  -8.313  -4.059  0.00  0.00    +0.025 A 
ATOM     26  C   UNL     1       5.439  -9.678  -4.249  0.00  0.00    +0.030 A 
ATOM     27  C   UNL     1       4.338 -10.481  -4.018  0.00  0.00    +0.105 A 
ATOM     28  C   UNL     1       3.146  -9.921  -3.597  0.00  0.00    +0.030 A 
ATOM     29  C   UNL     1       3.054  -8.557  -3.399  0.00  0.00    +0.025 A 
BRANCH  27  30
ATOM     30  S   UNL     1       4.453 -12.223  -4.262  0.00  0.00    +0.056 S 
ATOM     31  O   UNL     1       3.131 -12.687  -4.504  0.00  0.00    -0.153 OA
ATOM     32  O   UNL     1       5.515 -12.434  -5.182  0.00  0.00    -0.153 OA
BRANCH  30  33
ATOM     33  N   UNL     1       4.932 -12.888  -2.824  0.00  0.00    -0.204 NA
ATOM     34  H   UNL     1       5.091 -12.318  -2.055  0.00  0.00    +0.144 HD
ATOM     35  H   UNL     1       5.055 -13.847  -2.750  0.00  0.00    +0.144 HD
ENDBRANCH  30  33
ENDBRANCH  27  30
ENDBRANCH  22  24
ENDBRANCH  19  20
ENDBRANCH   1  19
TORSDOF 10
