REMARK  Name = ZINC05329009
REMARK  6 active torsions:
REMARK  status: ('A' for Active; 'I' for Inactive)
REMARK    1  A    between atoms: C_1  and  C_2
REMARK    2  A    between atoms: C_5  and  C_25
REMARK    3  A    between atoms: C_6  and  S_8
REMARK    4  A    between atoms: S_8  and  N_11
REMARK    5  A    between atoms: N_11  and  C_12
REMARK    6  A    between atoms: C_22  and  C_24
REMARK                            x       y       z     vdW  Elec       q    Type
REMARK                         _______ _______ _______ _____ _____    ______ ____
ROOT
ATOM      1  N   UNL     1      -1.592  -1.716  -1.230  0.00  0.00    -0.216 N 
ATOM      2  H   UNL     1      -2.297  -1.473  -1.851  0.00  0.00    +0.174 HD
ENDROOT
BRANCH   1   3
ATOM      3  C   UNL     1      -0.701  -2.745  -1.550  0.00  0.00    +0.048 A 
ATOM      4  C   UNL     1       0.664  -2.566  -1.364  0.00  0.00    +0.026 A 
ATOM      5  C   UNL     1       1.539  -3.584  -1.679  0.00  0.00    +0.025 A 
ATOM      6  C   UNL     1       1.059  -4.784  -2.192  0.00  0.00    +0.040 A 
ATOM      7  C   UNL     1      -0.302  -4.965  -2.381  0.00  0.00    -0.024 A 
ATOM      8  C   UNL     1      -1.179  -3.943  -2.061  0.00  0.00    +0.030 A 
ATOM      9  C   UNL     1      -0.856  -6.254  -2.928  0.00  0.00    +0.038 C 
ATOM     10  C   UNL     1       0.229  -7.029  -3.676  0.00  0.00    +0.024 C 
ATOM     11  C   UNL     1       1.462  -7.156  -2.772  0.00  0.00    +0.114 C 
ATOM     12  N   UNL     1       1.971  -5.802  -2.515  0.00  0.00    -0.271 N 
ATOM     13  C   UNL     1       3.291  -5.541  -2.588  0.00  0.00    +0.217 C 
ATOM     14  O   UNL     1       3.707  -4.434  -2.315  0.00  0.00    -0.276 OA
ATOM     15  C   UNL     1       4.251  -6.623  -3.011  0.00  0.00    +0.109 C 
ENDBRANCH   1   3
BRANCH   1  16
ATOM     16  S   UNL     1      -1.445  -0.912   0.210  0.00  0.00    +0.073 S 
ATOM     17  O   UNL     1      -1.285  -1.904   1.215  0.00  0.00    -0.150 OA
ATOM     18  O   UNL     1      -2.491   0.049   0.248  0.00  0.00    -0.150 OA
BRANCH  16  24
ATOM     19  C   UNL     1       3.394   0.058   1.933  0.00  0.00    +0.044 C 
ATOM     20  C   UNL     1       2.277   0.393   0.978  0.00  0.00    -0.049 A 
ATOM     21  C   UNL     1       2.438   1.411   0.056  0.00  0.00    +0.004 A 
ATOM     22  C   UNL     1       1.414   1.718  -0.820  0.00  0.00    +0.005 A 
ATOM     23  C   UNL     1       0.228   1.008  -0.773  0.00  0.00    -0.024 A 
ATOM     24  C   UNL     1       0.067  -0.008   0.150  0.00  0.00    +0.112 A 
ATOM     25  C   UNL     1       1.091  -0.316   1.026  0.00  0.00    +0.032 A 
ATOM     26  C   UNL     1      -0.889   1.343  -1.728  0.00  0.00    +0.046 C 
ENDBRANCH  16  24
ENDBRANCH   1  16
TORSDOF 3
