REMARK  Name = ZINC06592908
REMARK  10 active torsions:
REMARK  status: ('A' for Active; 'I' for Inactive)
REMARK    1  A    between atoms: C_1  and  C_2
REMARK    2  A    between atoms: C_2  and  C_3
REMARK    3  A    between atoms: C_3  and  C_4
REMARK    4  A    between atoms: C_4  and  C_5
REMARK    5  A    between atoms: C_6  and  C_17
REMARK    6  A    between atoms: C_7  and  C_14
REMARK    7  A    between atoms: C_8  and  C_13
REMARK    8  A    between atoms: N_9  and  C_10
REMARK    9  A    between atoms: C_10  and  C_11
REMARK   10  A    between atoms: C_20  and  C_23
REMARK                            x       y       z     vdW  Elec       q    Type
REMARK                         _______ _______ _______ _____ _____    ______ ____
ROOT
ATOM      1  C   UNL     1       0.940  -2.968   1.066  0.00  0.00    +0.028 A 
ATOM      2  C   UNL     1       1.137  -3.534   2.284  0.00  0.00    +0.015 A 
ATOM      3  C   UNL     1       1.734  -2.485   3.129  0.00  0.00    +0.065 A 
ATOM      4  C   UNL     1       1.848  -1.379   2.335  0.00  0.00    +0.029 A 
ATOM      5  N   UNL     1       1.367  -1.676   1.111  0.00  0.00    -0.343 N 
ATOM      6  C   UNL     1       2.413  -0.048   2.758  0.00  0.00    +0.064 C 
ENDROOT
BRANCH   2   7
ATOM      7  C   UNL     1       0.817  -4.926   2.683  0.00  0.00    -0.015 A 
ATOM      8  C   UNL     1      -0.509  -5.357   2.716  0.00  0.00    +0.009 A 
ATOM      9  C   UNL     1      -0.800  -6.655   3.083  0.00  0.00    +0.013 A 
ATOM     10  C   UNL     1       0.219  -7.525   3.427  0.00  0.00    +0.055 A 
ATOM     11  C   UNL     1       1.535  -7.101   3.401  0.00  0.00    +0.013 A 
ATOM     12  C   UNL     1       1.839  -5.807   3.030  0.00  0.00    +0.009 A 
BRANCH  10  13
ATOM     13  C   UNL     1      -0.107  -8.940   3.832  0.00  0.00    +0.417 C 
ATOM     14  F   UNL     1      -0.305  -8.994   5.216  0.00  0.00    -0.166 F 
ATOM     15  F   UNL     1      -1.270  -9.356   3.177  0.00  0.00    -0.166 F 
ATOM     16  F   UNL     1       0.954  -9.781   3.480  0.00  0.00    -0.166 F 
ENDBRANCH  10  13
ENDBRANCH   2   7
BRANCH   3  17
ATOM     17  C   UNL     1       2.134  -2.606   4.540  0.00  0.00    +0.244 C 
ATOM     18  O   UNL     1       3.261  -2.963   4.825  0.00  0.00    -0.270 OA
ATOM     19  N   UNL     1       1.250  -2.321   5.517  0.00  0.00    -0.325 N 
ATOM     20  H   UNL     1       0.351  -2.036   5.290  0.00  0.00    +0.145 HD
ATOM     21  H   UNL     1       1.513  -2.400   6.447  0.00  0.00    +0.145 HD
ENDBRANCH   3  17
BRANCH   1  22
ATOM     22  C   UNL     1       0.347  -3.656  -0.137  0.00  0.00    +0.054 C 
BRANCH  22  23
ATOM     23  C   UNL     1       1.464  -4.309  -0.953  0.00  0.00    +0.006 C 
BRANCH  23  25
ATOM     24  C   UNL     1       1.980  -5.661  -2.990  0.00  0.00    +0.004 C 
ATOM     25  C   UNL     1       0.863  -5.007  -2.175  0.00  0.00    -0.003 C 
ENDBRANCH  23  25
ENDBRANCH  22  23
ENDBRANCH   1  22
BRANCH   5  26
ATOM     26  C   UNL     1       1.317  -0.740  -0.015  0.00  0.00    +0.148 C 
BRANCH  26  27
ATOM     27  C   UNL     1       0.002  -0.004   0.002  0.00  0.00    -0.013 C 
ATOM     28  C   UNL     1      -0.016   1.306   0.009  0.00  0.00    +0.005 C 
ENDBRANCH  26  27
ENDBRANCH   5  26
TORSDOF 8
