REMARK  Name = ZINC06074920
REMARK  12 active torsions:
REMARK  status: ('A' for Active; 'I' for Inactive)
REMARK    1  A    between atoms: C_1  and  C_2
REMARK    2  A    between atoms: C_2  and  C_3
REMARK    3  A    between atoms: C_2  and  C_4
REMARK    4  A    between atoms: C_2  and  N_5
REMARK    5  A    between atoms: C_6  and  C_8
REMARK    6  A    between atoms: C_8  and  C_10
REMARK    7  A    between atoms: C_8  and  N_17
REMARK    8  A    between atoms: N_17  and  C_18
REMARK    9  A    between atoms: C_18  and  C_19
REMARK   10  A    between atoms: C_26  and  C_28
REMARK   11  A    between atoms: C_29  and  N_36
REMARK   12  A    between atoms: C_30  and  C_33
REMARK                            x       y       z     vdW  Elec       q    Type
REMARK                         _______ _______ _______ _____ _____    ______ ____
ROOT
ATOM      1  N   UNL     1       4.651   1.103   0.270  0.00  0.00    -0.277 N 
ATOM      2  C   UNL     1       4.274   2.286   0.794  0.00  0.00    +0.258 C 
ATOM      3  O   UNL     1       5.116   3.081   1.170  0.00  0.00    -0.269 OA
ENDROOT
BRANCH   2   4
ATOM      4  C   UNL     1       2.852   2.616   0.912  0.00  0.00    +0.115 A 
ATOM      5  C   UNL     1       2.157   3.160   1.994  0.00  0.00    +0.076 A 
ATOM      6  C   UNL     1       0.799   3.332   1.723  0.00  0.00    +0.155 A 
ATOM      7  N   UNL     1       0.329   2.986   0.545  0.00  0.00    -0.203 NA
ATOM      8  S   UNL     1       1.548   2.430  -0.285  0.00  0.00    +0.019 S 
BRANCH   6   9
ATOM      9  C   UNL     1      -0.099   3.895   2.748  0.00  0.00    +0.262 C 
ATOM     10  O   UNL     1       0.343   4.212   3.836  0.00  0.00    -0.269 OA
ATOM     11  N   UNL     1      -1.410   4.058   2.479  0.00  0.00    -0.324 N 
ATOM     12  H   UNL     1      -1.762   3.804   1.612  0.00  0.00    +0.145 HD
ATOM     13  H   UNL     1      -2.001   4.428   3.153  0.00  0.00    +0.145 HD
ENDBRANCH   6   9
BRANCH   5  14
ATOM     14  N   UNL     1       2.750   3.493   3.204  0.00  0.00    -0.355 N 
ATOM     15  H   UNL     1       2.214   3.868   3.920  0.00  0.00    +0.142 HD
ATOM     16  H   UNL     1       3.701   3.349   3.333  0.00  0.00    +0.142 HD
ENDBRANCH   5  14
ENDBRANCH   2   4
BRANCH   1  17
ATOM     17  C   UNL     1       6.064   0.719   0.269  0.00  0.00    +0.193 C 
BRANCH  17  18
ATOM     18  C   UNL     1       6.771   1.409  -0.869  0.00  0.00    -0.018 A 
ATOM     19  C   UNL     1       6.357   2.661  -1.282  0.00  0.00    +0.009 A 
ATOM     20  C   UNL     1       7.008   3.297  -2.322  0.00  0.00    +0.038 A 
ATOM     21  C   UNL     1       8.069   2.674  -2.958  0.00  0.00    +0.123 A 
ATOM     22  C   UNL     1       8.479   1.417  -2.547  0.00  0.00    +0.038 A 
ATOM     23  C   UNL     1       7.830   0.786  -1.503  0.00  0.00    +0.009 A 
ATOM     24  F   UNL     1       8.702   3.292  -3.979  0.00  0.00    -0.205 F 
ENDBRANCH  17  18
BRANCH  17  26
ATOM     25  N   UNL     1       8.039   1.139   1.699  0.00  0.00    -0.309 N 
ATOM     26  C   UNL     1       6.697   1.127   1.574  0.00  0.00    +0.239 C 
ATOM     27  O   UNL     1       5.998   1.446   2.513  0.00  0.00    -0.273 OA
ATOM     28  H   UNL     1       8.599   0.975   0.924  0.00  0.00    +0.149 HD
BRANCH  25  30
ATOM     29  C   UNL     1       8.153   0.364   4.016  0.00  0.00    +0.031 C 
ATOM     30  C   UNL     1       8.651   1.398   3.004  0.00  0.00    +0.026 C 
ATOM     31  C   UNL     1      10.173   1.300   2.881  0.00  0.00    +0.031 C 
ATOM     32  C   UNL     1       8.267   2.801   3.478  0.00  0.00    +0.031 C 
ENDBRANCH  25  30
ENDBRANCH  17  26
ENDBRANCH   1  17
BRANCH   1  33
ATOM     33  C   UNL     1       3.646   0.202  -0.299  0.00  0.00    +0.145 C 
BRANCH  33  34
ATOM     34  C   UNL     1       3.622  -1.084   0.487  0.00  0.00    -0.012 A 
ATOM     35  C   UNL     1       4.188  -2.229  -0.042  0.00  0.00    +0.006 A 
ATOM     36  C   UNL     1       4.170  -3.407   0.681  0.00  0.00    +0.000 A 
ATOM     37  C   UNL     1       3.576  -3.443   1.929  0.00  0.00    +0.001 A 
ATOM     38  C   UNL     1       3.005  -2.301   2.457  0.00  0.00    +0.020 A 
ATOM     39  C   UNL     1       3.027  -1.120   1.736  0.00  0.00    +0.046 A 
ATOM     40 CL   UNL     1       2.309   0.315   2.397  0.00  0.00    -0.083 Cl
ENDBRANCH  33  34
ENDBRANCH   1  33
TORSDOF 9
