REMARK  Name = ZINC64817019
REMARK  7 active torsions:
REMARK  status: ('A' for Active; 'I' for Inactive)
REMARK    1  A    between atoms: C_1  and  C_2
REMARK    2  A    between atoms: C_5  and  C_7
REMARK    3  A    between atoms: C_7  and  N_8
REMARK    4  A    between atoms: C_9  and  C_11
REMARK    5  A    between atoms: C_15  and  N_17
REMARK    6  A    between atoms: C_26  and  C_31
REMARK    7  A    between atoms: C_28  and  C_30
REMARK                            x       y       z     vdW  Elec       q    Type
REMARK                         _______ _______ _______ _____ _____    ______ ____
ROOT
ATOM      1  C   UNL     1       1.190  -6.297  -4.198  0.00  0.00    +0.038 A 
ATOM      2  C   UNL     1       1.705  -5.007  -4.334  0.00  0.00    +0.013 A 
ATOM      3  C   UNL     1       3.014  -4.825  -4.731  0.00  0.00    +0.003 A 
ATOM      4  C   UNL     1       3.820  -5.917  -4.995  0.00  0.00    +0.023 A 
ATOM      5  C   UNL     1       3.317  -7.205  -4.862  0.00  0.00    +0.035 A 
ATOM      6  C   UNL     1       2.005  -7.399  -4.458  0.00  0.00    +0.036 A 
ENDROOT
BRANCH   5   7
ATOM      7  N   UNL     1       4.136  -8.308  -5.131  0.00  0.00    -0.269 N 
ATOM      8  C   UNL     1       5.042  -8.247  -6.127  0.00  0.00    +0.311 C 
ATOM      9  O   UNL     1       5.204  -7.209  -6.739  0.00  0.00    -0.252 OA
ATOM     10  N   UNL     1       5.767  -9.338  -6.445  0.00  0.00    -0.252 N 
ATOM     11  C   UNL     1       6.100 -10.286  -5.386  0.00  0.00    +0.126 C 
ATOM     12  C   UNL     1       7.622 -10.498  -5.374  0.00  0.00    +0.095 C 
ATOM     13  S   UNL     1       8.080 -11.301  -6.939  0.00  0.00    -0.103 S 
ATOM     14  C   UNL     1       7.204 -10.360  -8.149  0.00  0.00    +0.119 A 
ATOM     15  C   UNL     1       6.162  -9.511  -7.773  0.00  0.00    +0.072 A 
ATOM     16  C   UNL     1       5.488  -8.798  -8.762  0.00  0.00    -0.025 A 
ATOM     17  C   UNL     1       5.877  -8.958 -10.083  0.00  0.00    +0.028 A 
ATOM     18  C   UNL     1       6.916  -9.816 -10.383  0.00  0.00    +0.040 A 
ATOM     19  N   UNL     1       7.547 -10.477  -9.425  0.00  0.00    -0.244 NA
ATOM     20  C   UNL     1       7.346  -9.992 -11.816  0.00  0.00    +0.065 C 
ATOM     21  C   UNL     1       4.357  -7.870  -8.402  0.00  0.00    +0.046 C 
ATOM     22  H   UNL     1       4.052  -9.115  -4.600  0.00  0.00    +0.156 HD
ENDBRANCH   5   7
BRANCH   1  24
ATOM     23  N   UNL     1      -0.997  -5.428  -3.521  0.00  0.00    -0.304 N 
ATOM     24  C   UNL     1      -0.212  -6.495  -3.772  0.00  0.00    +0.244 C 
ATOM     25  O   UNL     1      -0.657  -7.619  -3.650  0.00  0.00    -0.270 OA
ATOM     26  H   UNL     1      -0.642  -4.531  -3.619  0.00  0.00    +0.149 HD
BRANCH  23  27
ATOM     27  C   UNL     1      -2.386  -5.624  -3.100  0.00  0.00    +0.179 C 
BRANCH  27  32
ATOM     28  C   UNL     1      -3.980  -1.399  -0.854  0.00  0.00    +0.086 C 
ATOM     29  C   UNL     1      -3.733  -2.446  -1.909  0.00  0.00    +0.102 A 
ATOM     30  C   UNL     1      -4.146  -2.388  -3.188  0.00  0.00    +0.045 A 
ATOM     31  C   UNL     1      -3.699  -3.572  -3.817  0.00  0.00    +0.046 A 
ATOM     32  C   UNL     1      -3.040  -4.284  -2.885  0.00  0.00    +0.122 A 
ATOM     33  O   UNL     1      -3.059  -3.594  -1.733  0.00  0.00    -0.463 OA
ENDBRANCH  27  32
ENDBRANCH  23  27
ENDBRANCH   1  24
TORSDOF 4
