REMARK  Name = ZINC28933464
REMARK  5 active torsions:
REMARK  status: ('A' for Active; 'I' for Inactive)
REMARK    1  A    between atoms: C_1  and  C_2
REMARK    2  A    between atoms: C_9  and  C_16
REMARK    3  A    between atoms: C_11  and  O_12
REMARK    4  A    between atoms: C_16  and  S_17
REMARK    5  A    between atoms: S_17  and  C_18
REMARK                            x       y       z     vdW  Elec       q    Type
REMARK                         _______ _______ _______ _____ _____    ______ ____
ROOT
ATOM      1  C   UNL     1       7.052  -7.448   2.879  0.00  0.00    +0.109 C 
ATOM      2  C   UNL     1       6.804  -5.971   3.046  0.00  0.00    +0.214 C 
ATOM      3  O   UNL     1       7.740  -5.212   3.185  0.00  0.00    -0.276 OA
ATOM      4  N   UNL     1       5.544  -5.494   3.041  0.00  0.00    -0.286 N 
ATOM      5  C   UNL     1       5.319  -4.118   3.085  0.00  0.00    +0.037 A 
ATOM      6  C   UNL     1       4.202  -3.620   3.756  0.00  0.00    +0.024 A 
ATOM      7  C   UNL     1       3.968  -2.277   3.807  0.00  0.00    +0.013 A 
ATOM      8  C   UNL     1       4.858  -1.392   3.187  0.00  0.00    +0.022 A 
ATOM      9  C   UNL     1       4.628   0.054   3.221  0.00  0.00    -0.020 A 
ATOM     10  C   UNL     1       5.525   0.861   2.595  0.00  0.00    +0.092 A 
ATOM     11  C   UNL     1       6.635   0.296   1.934  0.00  0.00    +0.285 A 
ATOM     12  O   UNL     1       6.837  -1.030   1.903  0.00  0.00    -0.425 OA
ATOM     13  C   UNL     1       5.984  -1.887   2.504  0.00  0.00    +0.141 A 
ATOM     14  C   UNL     1       6.207  -3.255   2.461  0.00  0.00    +0.070 A 
ATOM     15  H   UNL     1       4.693  -6.190   3.003  0.00  0.00    +0.155 HD
ENDROOT
BRANCH  11  16
ATOM     16  O   UNL     1       7.431   1.031   1.377  0.00  0.00    -0.480 OA
ATOM     17  H   UNL     1       8.302   0.606   0.858  0.00  0.00    +0.295 HD
ENDBRANCH  11  16
BRANCH   9  18
ATOM     18  C   UNL     1       3.434   0.632   3.935  0.00  0.00    +0.112 C 
BRANCH  18  19
ATOM     19  S   UNL     1       2.045   0.759   2.781  0.00  0.00    -0.100 S 
BRANCH  19  20
ATOM     20  C   UNL     1       0.822   1.443   3.850  0.00  0.00    +0.109 A 
ATOM     21  C   UNL     1      -0.485   1.727   3.364  0.00  0.00    +0.043 A 
ATOM     22  C   UNL     1      -1.018   1.525   2.009  0.00  0.00    -0.025 A 
ATOM     23  C   UNL     1      -2.298   1.881   1.801  0.00  0.00    -0.004 A 
ATOM     24  S   UNL     1      -2.869   2.493   3.370  0.00  0.00    -0.073 S 
ATOM     25  C   UNL     1      -1.379   2.271   4.303  0.00  0.00    +0.113 A 
ATOM     26  N   UNL     1      -1.014   2.497   5.551  0.00  0.00    -0.228 NA
ATOM     27  C   UNL     1       0.213   2.213   5.947  0.00  0.00    +0.223 A 
ATOM     28  N   UNL     1       1.104   1.701   5.118  0.00  0.00    -0.229 NA
ATOM     29  C   UNL     1      -2.734   1.634   0.381  0.00  0.00    +0.043 C 
ATOM     30  C   UNL     1      -1.415   1.470  -0.406  0.00  0.00    +0.010 C 
ATOM     31  C   UNL     1      -0.454   0.978   0.694  0.00  0.00    +0.037 C 
ENDBRANCH  19  20
ENDBRANCH  18  19
ENDBRANCH   9  18
TORSDOF 4
