REMARK  Name = ZINC38793203
REMARK  3 active torsions:
REMARK  status: ('A' for Active; 'I' for Inactive)
REMARK    1  A    between atoms: C_4  and  C_10
REMARK    2  A    between atoms: C_16  and  C_18
REMARK    3  A    between atoms: C_25  and  C_27
REMARK                            x       y       z     vdW  Elec       q    Type
REMARK                         _______ _______ _______ _____ _____    ______ ____
ROOT
ATOM      1  C   UNL     1       3.778   3.284   0.035  0.00  0.00    -0.043 C 
ATOM      2  C   UNL     1       2.974   4.338   0.122  0.00  0.00    -0.004 C 
ATOM      3  C   UNL     1       3.471   5.757   0.106  0.00  0.00    +0.135 C 
ATOM      4  N   UNL     1       4.934   5.756   0.253  0.00  0.00    -0.296 N 
ATOM      5  C   UNL     1       5.693   4.769  -0.532  0.00  0.00    +0.113 C 
ATOM      6  C   UNL     1       5.272   3.371  -0.066  0.00  0.00    +0.054 C 
ATOM      7  C   UNL     1       5.556   6.627   1.073  0.00  0.00    +0.236 C 
ATOM      8  O   UNL     1       6.767   6.654   1.121  0.00  0.00    -0.274 OA
ENDROOT
BRANCH   1  12
ATOM      9  C   UNL     1       5.533  -0.899   0.233  0.00  0.00    +0.020 A 
ATOM     10  C   UNL     1       5.211   0.425   0.181  0.00  0.00    +0.013 A 
ATOM     11  C   UNL     1       3.845   0.779   0.108  0.00  0.00    +0.022 A 
ATOM     12  C   UNL     1       3.191   2.004   0.044  0.00  0.00    -0.015 C 
ATOM     13  C   UNL     1       1.715   1.673  -0.015  0.00  0.00    +0.150 C 
ATOM     14  N   UNL     1       1.626   0.210   0.022  0.00  0.00    -0.365 N 
ATOM     15  C   UNL     1       2.837  -0.298   0.091  0.00  0.00    +0.135 A 
ATOM     16  N   UNL     1       3.262  -1.578   0.147  0.00  0.00    -0.238 NA
ATOM     17  C   UNL     1       4.535  -1.873   0.215  0.00  0.00    +0.113 A 
ATOM     18  H   UNL     1       0.803  -0.303  -0.001  0.00  0.00    +0.161 HD
ENDBRANCH   1  12
BRANCH   7  19
ATOM     19  C   UNL     1       4.746   7.565   1.929  0.00  0.00    +0.162 C 
ATOM     20  C   UNL     1       5.230   7.484   3.380  0.00  0.00    +0.032 C 
ATOM     21  C   UNL     1       4.501   8.537   4.217  0.00  0.00    +0.004 C 
ATOM     22  C   UNL     1       4.823   9.933   3.678  0.00  0.00    +0.019 C 
ATOM     23  C   UNL     1       4.334  10.042   2.231  0.00  0.00    +0.108 C 
ATOM     24  N   UNL     1       4.916   8.943   1.447  0.00  0.00    -0.289 N 
ATOM     25  C   UNL     1       5.596   9.194   0.311  0.00  0.00    +0.230 C 
ATOM     26  O   UNL     1       6.133   8.286  -0.287  0.00  0.00    -0.274 OA
BRANCH  25  27
ATOM     27  C   UNL     1       5.688  10.602  -0.217  0.00  0.00    +0.140 C 
ATOM     28  C   UNL     1       5.936  10.621  -1.748  0.00  0.00    +0.051 C 
ATOM     29  C   UNL     1       6.887  11.714  -2.117  0.00  0.00    -0.019 C 
ATOM     30  C   UNL     1       7.653  12.257  -1.191  0.00  0.00    +0.037 C 
ATOM     31  S   UNL     1       7.238  11.430   0.335  0.00  0.00    -0.120 S 
ENDBRANCH  25  27
ENDBRANCH   7  19
TORSDOF 3
