REMARK  Name = ZINC13117588
REMARK  4 active torsions:
REMARK  status: ('A' for Active; 'I' for Inactive)
REMARK    1  A    between atoms: C_1  and  C_2
REMARK    2  A    between atoms: N_11  and  C_15
REMARK    3  A    between atoms: C_15  and  C_16
REMARK    4  A    between atoms: C_27  and  C_30
REMARK                            x       y       z     vdW  Elec       q    Type
REMARK                         _______ _______ _______ _____ _____    ______ ____
ROOT
ATOM      1  C   UNL     1      -2.919   0.348   5.591  0.00  0.00    +0.234 C 
ATOM      2  O   UNL     1      -1.726   0.402   5.383  0.00  0.00    -0.274 OA
ATOM      3  N   UNL     1      -3.383   0.316   6.856  0.00  0.00    -0.297 N 
ATOM      4  C   UNL     1      -4.827   0.257   7.130  0.00  0.00    +0.126 C 
ATOM      5  C   UNL     1      -5.085  -0.903   8.104  0.00  0.00    +0.125 C 
ATOM      6  N   UNL     1      -4.235  -0.738   9.290  0.00  0.00    -0.311 N 
ATOM      7  C   UNL     1      -2.811  -0.813   8.940  0.00  0.00    +0.125 C 
ATOM      8  C   UNL     1      -2.458   0.345   7.999  0.00  0.00    +0.126 C 
ATOM      9  C   UNL     1      -4.557  -1.673  10.268  0.00  0.00    +0.140 A 
ATOM     10  C   UNL     1      -5.483  -1.348  11.256  0.00  0.00    +0.081 A 
ATOM     11  C   UNL     1      -5.798  -2.290  12.219  0.00  0.00    +0.037 A 
ATOM     12  C   UNL     1      -5.166  -3.526  12.169  0.00  0.00    +0.074 A 
ATOM     13  C   UNL     1      -4.254  -3.779  11.164  0.00  0.00    +0.125 A 
ATOM     14  N   UNL     1      -3.977  -2.863  10.255  0.00  0.00    -0.238 NA
ATOM     15 CL   UNL     1      -6.237   0.216  11.275  0.00  0.00    -0.080 Cl
ENDROOT
BRANCH  12  16
ATOM     16  C   UNL     1      -5.473  -4.581  13.200  0.00  0.00    +0.419 C 
ATOM     17  F   UNL     1      -4.716  -5.727  12.935  0.00  0.00    -0.166 F 
ATOM     18  F   UNL     1      -5.154  -4.095  14.473  0.00  0.00    -0.166 F 
ATOM     19  F   UNL     1      -6.835  -4.899  13.150  0.00  0.00    -0.166 F 
ENDBRANCH  12  16
BRANCH   1  20
ATOM     20  C   UNL     1      -3.885   0.318   4.434  0.00  0.00    +0.213 C 
BRANCH  20  30
ATOM     21  C   UNL     1       0.091   1.098   2.577  0.00  0.00    +0.010 C 
ATOM     22  C   UNL     1      -0.623   1.598   1.320  0.00  0.00    +0.018 C 
ATOM     23  C   UNL     1       0.128   1.111   0.078  0.00  0.00    +0.006 C 
ATOM     24  C   UNL     1      -0.599   1.595  -1.178  0.00  0.00    +0.000 C 
ATOM     25  C   UNL     1      -2.020   1.030  -1.198  0.00  0.00    +0.003 C 
ATOM     26  C   UNL     1      -2.779   1.517   0.039  0.00  0.00    +0.035 C 
ATOM     27  C   UNL     1      -2.049   1.059   1.297  0.00  0.00    +0.115 C 
ATOM     28  C   UNL     1      -2.800   1.500   2.533  0.00  0.00    +0.247 C 
ATOM     29  O   UNL     1      -3.047   2.636   2.875  0.00  0.00    -0.273 OA
ATOM     30  N   UNL     1      -3.138   0.362   3.174  0.00  0.00    -0.215 N 
ATOM     31  C   UNL     1      -2.706  -0.721   2.516  0.00  0.00    +0.310 C 
ATOM     32  O   UNL     1      -2.889  -1.861   2.897  0.00  0.00    -0.252 OA
ATOM     33  N   UNL     1      -2.046  -0.407   1.385  0.00  0.00    -0.285 N 
ATOM     34  H   UNL     1      -1.558  -1.004   0.601  0.00  0.00    +0.151 HD
ENDBRANCH  20  30
ENDBRANCH   1  20
TORSDOF 3
