REMARK  Name = ZINC09118351
REMARK  4 active torsions:
REMARK  status: ('A' for Active; 'I' for Inactive)
REMARK    1  A    between atoms: C_1  and  C_2
REMARK    2  A    between atoms: C_7  and  N_8
REMARK    3  A    between atoms: C_9  and  C_11
REMARK    4  A    between atoms: C_14  and  C_17
REMARK                            x       y       z     vdW  Elec       q    Type
REMARK                         _______ _______ _______ _____ _____    ______ ____
ROOT
ATOM      1  C   UNL     1       1.373   7.307   0.174  0.00  0.00    +0.037 A 
ATOM      2  C   UNL     1       0.180   8.025   0.303  0.00  0.00    +0.013 A 
ATOM      3  C   UNL     1       0.196   9.390   0.266  0.00  0.00    +0.009 A 
ATOM      4  C   UNL     1       1.407  10.070   0.088  0.00  0.00    -0.024 A 
ATOM      5  C   UNL     1       2.601   9.350  -0.047  0.00  0.00    +0.009 A 
ATOM      6  C   UNL     1       2.582   7.985  -0.004  0.00  0.00    +0.013 A 
ENDROOT
BRANCH   4   7
ATOM      7  C   UNL     1       1.426  11.539   0.043  0.00  0.00    +0.028 C 
ATOM      8  C   UNL     1       2.505  12.188  -0.461  0.00  0.00    +0.080 C 
ATOM      9  C   UNL     1       2.812  13.637  -0.477  0.00  0.00    +0.258 C 
ATOM     10  O   UNL     1       2.054  14.457   0.004  0.00  0.00    -0.269 OA
ATOM     11  N   UNL     1       3.956  13.991  -1.038  0.00  0.00    -0.243 N 
ATOM     12  C   UNL     1       4.789  13.079  -1.577  0.00  0.00    +0.283 C 
ATOM     13  O   UNL     1       5.859  13.265  -2.125  0.00  0.00    -0.262 OA
ATOM     14  S   UNL     1       3.944  11.532  -1.294  0.00  0.00    -0.026 S 
ATOM     15  H   UNL     1       4.199  14.930  -1.067  0.00  0.00    +0.159 HD
ENDBRANCH   4   7
BRANCH   1  17
ATOM     16  N   UNL     1       0.189   5.176   0.392  0.00  0.00    -0.266 N 
ATOM     17  C   UNL     1       1.354   5.831   0.220  0.00  0.00    +0.249 C 
ATOM     18  O   UNL     1       2.390   5.206   0.103  0.00  0.00    -0.270 OA
ATOM     19  H   UNL     1      -0.638   5.675   0.486  0.00  0.00    +0.157 HD
BRANCH  16  26
ATOM     20  C   UNL     1      -2.321   3.887   0.759  0.00  0.00    +0.047 C 
ATOM     21  C   UNL     1      -1.035   3.116   0.613  0.00  0.00    -0.010 A 
ATOM     22  C   UNL     1      -1.039   1.732   0.649  0.00  0.00    +0.008 A 
ATOM     23  C   UNL     1       0.170   1.063   0.516  0.00  0.00    +0.020 A 
ATOM     24  C   UNL     1       1.331   1.791   0.343  0.00  0.00    +0.113 A 
ATOM     25  N   UNL     1       1.303   3.110   0.308  0.00  0.00    -0.240 NA
ATOM     26  C   UNL     1       0.171   3.784   0.436  0.00  0.00    +0.128 A 
ENDBRANCH  16  26
ENDBRANCH   1  17
TORSDOF 3
