REMARK  Name = ZINC19593855
REMARK  9 active torsions:
REMARK  status: ('A' for Active; 'I' for Inactive)
REMARK    1  A    between atoms: C_1  and  C_2
REMARK    2  A    between atoms: C_3  and  C_26
REMARK    3  A    between atoms: C_4  and  N_25
REMARK    4  A    between atoms: C_9  and  C_10
REMARK    5  A    between atoms: C_13  and  N_17
REMARK    6  A    between atoms: N_17  and  C_18
REMARK    7  A    between atoms: N_17  and  C_19
REMARK    8  A    between atoms: C_20  and  C_24
REMARK    9  A    between atoms: C_21  and  C_22
REMARK                            x       y       z     vdW  Elec       q    Type
REMARK                         _______ _______ _______ _____ _____    ______ ____
ROOT
ATOM      1  C   UNL     1       4.654   2.213  -0.485  0.00  0.00    +0.046 C 
ATOM      2  C   UNL     1       3.816   0.989  -0.750  0.00  0.00    -0.020 A 
ATOM      3  C   UNL     1       4.385  -0.167  -1.296  0.00  0.00    +0.095 A 
ATOM      4  C   UNL     1       3.567  -1.290  -1.527  0.00  0.00    +0.135 A 
ATOM      5  N   UNL     1       2.279  -1.264  -1.237  0.00  0.00    -0.230 NA
ATOM      6  C   UNL     1       1.700  -0.185  -0.717  0.00  0.00    +0.092 A 
ATOM      7  C   UNL     1       2.458   0.977  -0.458  0.00  0.00    +0.013 A 
ATOM      8  C   UNL     1       1.534   1.980   0.110  0.00  0.00    -0.011 C 
ATOM      9  C   UNL     1       1.867   3.263   0.506  0.00  0.00    +0.016 C 
ATOM     10  C   UNL     1       0.252   1.394   0.176  0.00  0.00    -0.023 C 
ATOM     11  C   UNL     1       0.315   0.103  -0.309  0.00  0.00    +0.081 C 
ATOM     12  C   UNL     1      -0.992   2.073   0.690  0.00  0.00    +0.046 C 
ENDROOT
BRANCH   9  13
ATOM     13  C   UNL     1       3.171   3.527   1.109  0.00  0.00    -0.023 A 
ATOM     14  C   UNL     1       3.717   2.620   2.031  0.00  0.00    +0.010 A 
ATOM     15  C   UNL     1       4.939   2.868   2.588  0.00  0.00    +0.025 A 
ATOM     16  C   UNL     1       5.639   4.025   2.251  0.00  0.00    +0.043 A 
ATOM     17  C   UNL     1       5.099   4.933   1.341  0.00  0.00    +0.039 A 
ATOM     18  C   UNL     1       3.880   4.691   0.774  0.00  0.00    +0.025 A 
ATOM     19 BR   UNL     1       6.055   6.501   0.891  0.00  0.00    -0.048 Br
BRANCH  16  20
ATOM     20  N   UNL     1       6.878   4.275   2.825  0.00  0.00    -0.335 N 
ATOM     21  C   UNL     1       6.773   4.363   4.288  0.00  0.00    +0.129 C 
ATOM     22  C   UNL     1       7.858   3.255   2.429  0.00  0.00    +0.129 C 
ENDBRANCH  16  20
ENDBRANCH   9  13
BRANCH   4  23
ATOM     23  N   UNL     1       4.121  -2.438  -2.068  0.00  0.00    -0.342 N 
ATOM     24  H   UNL     1       3.490  -3.319  -2.252  0.00  0.00    +0.144 HD
ATOM     25  H   UNL     1       5.193  -2.468  -2.313  0.00  0.00    +0.144 HD
ENDBRANCH   4  23
BRANCH  11  26
ATOM     26  C   UNL     1      -0.787  -0.807  -0.401  0.00  0.00    +0.102 C 
ATOM     27  N   UNL     1      -1.661  -1.529  -0.474  0.00  0.00    -0.191 NA
ENDBRANCH  11  26
BRANCH   3  28
ATOM     28  C   UNL     1       5.781  -0.208  -1.615  0.00  0.00    +0.103 C 
ATOM     29  N   UNL     1       6.888  -0.240  -1.867  0.00  0.00    -0.191 NA
ENDBRANCH   3  28
TORSDOF 5
