REMARK  Name = ZINC09209562
REMARK  2 active torsions:
REMARK  status: ('A' for Active; 'I' for Inactive)
REMARK    1  A    between atoms: C_1  and  C_2
REMARK    2  A    between atoms: C_8  and  C_24
REMARK                            x       y       z     vdW  Elec       q    Type
REMARK                         _______ _______ _______ _____ _____    ______ ____
ROOT
ATOM      1  C   UNL     1       1.070   3.520   0.010  0.00  0.00    +0.066 C 
ATOM      2  C   UNL     1       1.102   2.013   0.002  0.00  0.00    +0.047 A 
ATOM      3  C   UNL     1       2.282   1.345  -0.013  0.00  0.00    +0.071 A 
ATOM      4  S   UNL     1       1.704  -0.346  -0.016  0.00  0.00    -0.060 S 
ATOM      5  C   UNL     1       0.002  -0.004   0.002  0.00  0.00    +0.168 A 
ATOM      6  N   UNL     1      -0.016   1.315   0.009  0.00  0.00    -0.230 NA
ATOM      7  N   UNL     1      -1.066  -0.891   0.007  0.00  0.00    -0.232 N 
ATOM      8  C   UNL     1      -0.972  -2.356  -0.002  0.00  0.00    +0.154 C 
ATOM      9  C   UNL     1      -2.390  -2.862   0.008  0.00  0.00    +0.073 A 
ATOM     10  C   UNL     1      -2.963  -4.211   0.005  0.00  0.00    +0.199 A 
ATOM     11  O   UNL     1      -2.259  -5.205  -0.006  0.00  0.00    -0.287 OA
ATOM     12  C   UNL     1      -4.436  -4.305   0.018  0.00  0.00    +0.065 A 
ATOM     13  C   UNL     1      -5.086  -5.539   0.016  0.00  0.00    +0.030 A 
ATOM     14  C   UNL     1      -6.463  -5.580   0.028  0.00  0.00    +0.019 A 
ATOM     15  C   UNL     1      -7.198  -4.402   0.041  0.00  0.00    +0.019 A 
ATOM     16  C   UNL     1      -6.566  -3.177   0.042  0.00  0.00    +0.048 A 
ATOM     17  C   UNL     1      -5.176  -3.111   0.031  0.00  0.00    +0.140 A 
ATOM     18  O   UNL     1      -4.549  -1.920   0.032  0.00  0.00    -0.450 OA
ATOM     19  C   UNL     1      -3.209  -1.781   0.021  0.00  0.00    +0.199 A 
ATOM     20  C   UNL     1      -2.368  -0.559   0.026  0.00  0.00    +0.289 C 
ATOM     21  O   UNL     1      -2.796   0.578   0.042  0.00  0.00    -0.266 OA
ATOM     22 BR   UNL     1      -7.356  -7.247   0.028  0.00  0.00    -0.050 Br
ENDROOT
BRANCH   8  23
ATOM     23  C   UNL     1      -0.261  -2.823  -1.246  0.00  0.00    +0.013 A 
ATOM     24  C   UNL     1      -0.154  -1.982  -2.338  0.00  0.00    +0.008 A 
ATOM     25  C   UNL     1       0.503  -2.408  -3.477  0.00  0.00    +0.001 A 
ATOM     26  C   UNL     1       1.044  -3.680  -3.529  0.00  0.00    +0.003 A 
ATOM     27  C   UNL     1       0.934  -4.524  -2.441  0.00  0.00    +0.039 A 
ATOM     28  C   UNL     1       0.281  -4.096  -1.297  0.00  0.00    +0.129 A 
ATOM     29  F   UNL     1       0.172  -4.920  -0.232  0.00  0.00    -0.205 F 
ENDBRANCH   8  23
TORSDOF 1
