REMARK  Name = ZINC13811367
REMARK  5 active torsions:
REMARK  status: ('A' for Active; 'I' for Inactive)
REMARK    1  A    between atoms: C_1  and  C_2
REMARK    2  A    between atoms: C_4  and  C_16
REMARK    3  A    between atoms: C_5  and  C_15
REMARK    4  A    between atoms: N_6  and  C_7
REMARK    5  A    between atoms: C_21  and  C_28
REMARK                            x       y       z     vdW  Elec       q    Type
REMARK                         _______ _______ _______ _____ _____    ______ ____
ROOT
ATOM      1  C   UNL     1      -0.311   1.567  -0.151  0.00  0.00    +0.064 C 
ATOM      2  C   UNL     1      -0.215   0.064  -0.110  0.00  0.00    +0.022 A 
ATOM      3  C   UNL     1      -0.160  -0.742  -1.184  0.00  0.00    +0.031 A 
ATOM      4  C   UNL     1      -0.073  -2.116  -0.669  0.00  0.00    -0.003 A 
ATOM      5  C   UNL     1      -0.084  -2.005   0.712  0.00  0.00    +0.028 A 
ATOM      6  N   UNL     1      -0.163  -0.696   1.026  0.00  0.00    -0.317 N 
ATOM      7  C   UNL     1      -0.013  -3.147   1.692  0.00  0.00    +0.064 C 
ENDROOT
BRANCH   4   8
ATOM      8  C   UNL     1       0.007  -3.346  -1.452  0.00  0.00    +0.026 C 
ATOM      9  C   UNL     1       0.521  -3.316  -2.732  0.00  0.00    +0.079 C 
ATOM     10  C   UNL     1       1.181  -2.102  -3.287  0.00  0.00    +0.136 C 
ATOM     11  N   UNL     1       1.874  -1.266  -2.560  0.00  0.00    -0.284 NA
ATOM     12  N   UNL     1       0.983  -1.942  -4.677  0.00  0.00    -0.238 N 
ATOM     13  C   UNL     1       1.067  -0.754  -5.347  0.00  0.00    +0.022 C 
ATOM     14  C   UNL     1       0.914  -0.774  -6.674  0.00  0.00    +0.067 C 
ATOM     15  S   UNL     1       0.638  -2.507  -6.994  0.00  0.00    -0.062 S 
ATOM     16  C   UNL     1       0.688  -3.062  -5.420  0.00  0.00    +0.163 C 
ATOM     17  N   UNL     1       0.472  -4.277  -4.962  0.00  0.00    -0.154 NA
ATOM     18  C   UNL     1       0.454  -4.494  -3.631  0.00  0.00    +0.273 C 
ATOM     19  O   UNL     1       0.380  -5.625  -3.178  0.00  0.00    -0.268 OA
ATOM     20  C   UNL     1       1.323   0.536  -4.613  0.00  0.00    +0.062 C 
ATOM     21  H   UNL     1       2.054  -1.468  -1.628  0.00  0.00    +0.188 HD
ENDBRANCH   4   8
BRANCH   6  22
ATOM     22  C   UNL     1      -0.192  -0.186   2.331  0.00  0.00    +0.049 A 
ATOM     23  C   UNL     1       0.913  -0.331   3.158  0.00  0.00    +0.046 A 
ATOM     24  C   UNL     1       0.882   0.173   4.446  0.00  0.00    +0.044 A 
ATOM     25  C   UNL     1      -0.250   0.820   4.909  0.00  0.00    +0.040 A 
ATOM     26  C   UNL     1      -1.353   0.964   4.087  0.00  0.00    +0.044 A 
ATOM     27  C   UNL     1      -1.325   0.468   2.796  0.00  0.00    +0.046 A 
ATOM     28 CL   UNL     1      -2.772   1.775   4.673  0.00  0.00    -0.083 Cl
ATOM     29 CL   UNL     1       2.264  -0.007   5.481  0.00  0.00    -0.083 Cl
ENDBRANCH   6  22
TORSDOF 2
