REMARK  Name = ZINC06296369
REMARK  13 active torsions:
REMARK  status: ('A' for Active; 'I' for Inactive)
REMARK    1  A    between atoms: C_1  and  C_2
REMARK    2  A    between atoms: C_2  and  C_3
REMARK    3  A    between atoms: C_6  and  N_8
REMARK    4  A    between atoms: N_8  and  S_9
REMARK    5  A    between atoms: S_9  and  C_12
REMARK    6  A    between atoms: C_15  and  N_18
REMARK    7  A    between atoms: N_18  and  C_19
REMARK    8  A    between atoms: C_19  and  N_21
REMARK    9  A    between atoms: C_22  and  C_24
REMARK   10  A    between atoms: C_25  and  C_26
REMARK   11  A    between atoms: C_29  and  C_32
REMARK   12  A    between atoms: C_32  and  C_33
REMARK   13  A    between atoms: C_32  and  C_34
REMARK                            x       y       z     vdW  Elec       q    Type
REMARK                         _______ _______ _______ _____ _____    ______ ____
ROOT
ATOM      1  N   UNL     1       3.411  -3.839 -10.972  0.00  0.00    -0.297 N 
ATOM      2  H   UNL     1       3.353  -4.781 -11.198  0.00  0.00    +0.154 HD
ENDROOT
BRANCH   1   6
ATOM      3  C   UNL     1       3.414  -2.653  -6.979  0.00  0.00    +0.111 A 
ATOM      4  C   UNL     1       2.677  -1.943  -7.909  0.00  0.00    +0.031 A 
ATOM      5  C   UNL     1       2.674  -2.334  -9.234  0.00  0.00    +0.025 A 
ATOM      6  C   UNL     1       3.412  -3.441  -9.631  0.00  0.00    +0.033 A 
ATOM      7  C   UNL     1       4.151  -4.152  -8.695  0.00  0.00    +0.025 A 
ATOM      8  C   UNL     1       4.154  -3.753  -7.372  0.00  0.00    +0.031 A 
BRANCH   3   9
ATOM      9  S   UNL     1       3.415  -2.151  -5.290  0.00  0.00    +0.094 S 
ATOM     10  O   UNL     1       3.751  -3.301  -4.525  0.00  0.00    -0.148 OA
ATOM     11  O   UNL     1       2.212  -1.423  -5.082  0.00  0.00    -0.148 OA
BRANCH   9  12
ATOM     12  N   UNL     1       4.659  -1.075  -5.100  0.00  0.00    -0.068 NA
BRANCH  12  16
ATOM     13  C   UNL     1       5.646   0.760  -1.637  0.00  0.00    +0.104 A 
ATOM     14  N   UNL     1       4.629  -0.078  -1.654  0.00  0.00    -0.145 NA
ATOM     15  N   UNL     1       4.272  -0.682  -2.702  0.00  0.00    -0.123 NA
ATOM     16  C   UNL     1       4.901  -0.508  -3.857  0.00  0.00    +0.224 A 
ATOM     17  S   UNL     1       6.149   0.674  -3.354  0.00  0.00    -0.032 S 
BRANCH  13  19
ATOM     18  C   UNL     1       7.309   0.755   0.202  0.00  0.00    +0.011 C 
ATOM     19  C   UNL     1       6.218   1.566  -0.500  0.00  0.00    +0.061 C 
ENDBRANCH  13  19
ENDBRANCH  12  16
ENDBRANCH   9  12
ENDBRANCH   3   9
ENDBRANCH   1   6
BRANCH   1  20
ATOM     20  C   UNL     1       3.491  -2.915 -11.950  0.00  0.00    +0.141 C 
ATOM     21  S   UNL     1       3.737  -1.268 -11.553  0.00  0.00    -0.018 S 
BRANCH  20  22
ATOM     22  N   UNL     1       3.378  -3.288 -13.240  0.00  0.00    -0.264 N 
ATOM     23  C   UNL     1       3.458  -2.364 -14.218  0.00  0.00    +0.242 C 
ATOM     24  O   UNL     1       3.632  -1.193 -13.936  0.00  0.00    -0.270 OA
ATOM     25  H   UNL     1       3.239  -4.221 -13.465  0.00  0.00    +0.157 HD
BRANCH  23  26
ATOM     26  C   UNL     1       3.335  -2.768 -15.619  0.00  0.00    +0.068 C 
ATOM     27  C   UNL     1       3.415  -1.843 -16.597  0.00  0.00    +0.013 C 
BRANCH  27  28
ATOM     28  C   UNL     1       3.291  -2.250 -18.006  0.00  0.00    -0.025 A 
ATOM     29  C   UNL     1       3.085  -3.594 -18.334  0.00  0.00    +0.008 A 
ATOM     30  C   UNL     1       2.970  -3.967 -19.657  0.00  0.00    +0.004 A 
ATOM     31  C   UNL     1       3.058  -3.016 -20.658  0.00  0.00    -0.045 A 
ATOM     32  C   UNL     1       3.262  -1.684 -20.342  0.00  0.00    +0.004 A 
ATOM     33  C   UNL     1       3.373  -1.294 -19.024  0.00  0.00    +0.008 A 
BRANCH  31  34
ATOM     34  C   UNL     1       2.932  -3.433 -22.101  0.00  0.00    +0.013 C 
ATOM     35  C   UNL     1       1.742  -2.713 -22.738  0.00  0.00    +0.012 C 
ATOM     36  C   UNL     1       4.213  -3.064 -22.852  0.00  0.00    +0.012 C 
ENDBRANCH  31  34
ENDBRANCH  27  28
ENDBRANCH  23  26
ENDBRANCH  20  22
ENDBRANCH   1  20
TORSDOF 10
