REMARK  Name = ZINC34757824
REMARK  7 active torsions:
REMARK  status: ('A' for Active; 'I' for Inactive)
REMARK    1  A    between atoms: C_1  and  C_2
REMARK    2  A    between atoms: C_5  and  C_36
REMARK    3  A    between atoms: C_6  and  C_8
REMARK    4  A    between atoms: C_8  and  N_9
REMARK    5  A    between atoms: C_22  and  S_24
REMARK    6  A    between atoms: S_24  and  C_25
REMARK    7  A    between atoms: C_25  and  C_26
REMARK                            x       y       z     vdW  Elec       q    Type
REMARK                         _______ _______ _______ _____ _____    ______ ____
ROOT
ATOM      1  N   UNL     1       2.498  -3.077   1.836  0.00  0.00    +0.384 N 
ATOM      2  C   UNL     1       3.845  -3.662   1.849  0.00  0.00    -0.059 C 
ATOM      3  C   UNL     1       4.052  -4.440   3.152  0.00  0.00    +0.088 C 
ATOM      4  N   UNL     1       3.769  -3.541   4.282  0.00  0.00    -0.318 N 
ATOM      5  C   UNL     1       2.507  -2.787   4.269  0.00  0.00    +0.088 C 
ATOM      6  C   UNL     1       2.373  -2.086   2.913  0.00  0.00    -0.059 C 
ATOM      7  C   UNL     1       4.666  -3.410   5.327  0.00  0.00    +0.134 A 
ATOM      8  C   UNL     1       4.630  -4.313   6.425  0.00  0.00    +0.051 A 
ATOM      9  C   UNL     1       3.721  -5.452   6.643  0.00  0.00    -0.025 A 
ATOM     10  C   UNL     1       3.891  -6.157   7.771  0.00  0.00    -0.004 A 
ATOM     11  S   UNL     1       5.251  -5.373   8.607  0.00  0.00    -0.073 S 
ATOM     12  C   UNL     1       5.585  -4.089   7.432  0.00  0.00    +0.115 A 
ATOM     13  N   UNL     1       6.455  -3.100   7.351  0.00  0.00    -0.214 NA
ATOM     14  C   UNL     1       6.444  -2.287   6.303  0.00  0.00    +0.191 A 
ATOM     15  N   UNL     1       5.571  -2.446   5.316  0.00  0.00    -0.206 NA
ATOM     16  C   UNL     1       2.906  -7.290   7.888  0.00  0.00    +0.043 C 
ATOM     17  C   UNL     1       1.796  -6.944   6.871  0.00  0.00    +0.010 C 
ATOM     18  C   UNL     1       2.562  -6.073   5.857  0.00  0.00    +0.037 C 
ATOM     19  H   UNL     1       1.816  -3.808   1.973  0.00  0.00    -0.081 HD
ENDROOT
BRANCH   1  20
ATOM     20  C   UNL     1       2.261  -2.424   0.542  0.00  0.00    -0.043 C 
BRANCH  20  26
ATOM     21  C   UNL     1       4.631  -4.777  -3.186  0.00  0.00    +0.044 C 
ATOM     22  C   UNL     1       3.401  -4.586  -2.336  0.00  0.00    -0.050 A 
ATOM     23  C   UNL     1       2.279  -5.361  -2.560  0.00  0.00    +0.003 A 
ATOM     24  C   UNL     1       1.151  -5.186  -1.780  0.00  0.00    +0.004 A 
ATOM     25  C   UNL     1       1.145  -4.236  -0.776  0.00  0.00    -0.049 A 
ATOM     26  C   UNL     1       2.268  -3.461  -0.552  0.00  0.00    -0.061 A 
ATOM     27  C   UNL     1       3.397  -3.639  -1.329  0.00  0.00    +0.005 A 
ATOM     28  C   UNL     1      -0.085  -4.044   0.073  0.00  0.00    +0.044 C 
ENDBRANCH  20  26
ENDBRANCH   1  20
BRANCH  14  29
ATOM     29  S   UNL     1       7.615  -0.972   6.218  0.00  0.00    -0.077 S 
BRANCH  29  30
ATOM     30  C   UNL     1       8.581  -1.145   7.744  0.00  0.00    +0.173 C 
BRANCH  30  31
ATOM     31  C   UNL     1       9.633  -0.067   7.797  0.00  0.00    +0.226 C 
ATOM     32  O   UNL     1       9.722   0.738   6.895  0.00  0.00    -0.275 OA
ATOM     33  N   UNL     1      10.474   0.002   8.848  0.00  0.00    -0.301 N 
ATOM     34  C   UNL     1      10.481  -0.910  10.001  0.00  0.00    +0.108 C 
ATOM     35  C   UNL     1      11.593  -0.430  10.957  0.00  0.00    +0.020 C 
ATOM     36  C   UNL     1      11.775   1.059  10.560  0.00  0.00    +0.020 C 
ATOM     37  C   UNL     1      11.544   1.000   9.027  0.00  0.00    +0.108 C 
ENDBRANCH  30  31
ENDBRANCH  29  30
ENDBRANCH  14  29
TORSDOF 5
