REMARK  Name = ZINC67350918
REMARK  3 active torsions:
REMARK  status: ('A' for Active; 'I' for Inactive)
REMARK    1  A    between atoms: C_3  and  N_16
REMARK    2  A    between atoms: C_6  and  C_7
REMARK    3  A    between atoms: C_7  and  N_8
REMARK                            x       y       z     vdW  Elec       q    Type
REMARK                         _______ _______ _______ _____ _____    ______ ____
ROOT
ATOM      1  C   UNL     1      -0.017   1.379   0.026  0.00  0.00    +0.007 A 
ATOM      2  C   UNL     1       1.169   2.087   0.018  0.00  0.00    +0.023 A 
ATOM      3  C   UNL     1       2.381   1.409  -0.013  0.00  0.00    +0.030 A 
ATOM      4  C   UNL     1       2.396   0.020  -0.037  0.00  0.00    +0.023 A 
ATOM      5  C   UNL     1       1.207  -0.682  -0.029  0.00  0.00    +0.007 A 
ATOM      6  C   UNL     1       0.002  -0.004   0.002  0.00  0.00    -0.030 A 
ENDROOT
BRANCH   3   7
ATOM      7  N   UNL     1       3.582   2.122  -0.021  0.00  0.00    -0.320 N 
ATOM      8  C   UNL     1       4.882   1.435   0.066  0.00  0.00    +0.124 C 
ATOM      9  C   UNL     1       5.670   1.740  -1.209  0.00  0.00    +0.123 C 
ATOM     10  N   UNL     1       5.620   3.162  -1.519  0.00  0.00    -0.313 N 
ATOM     11  C   UNL     1       4.682   4.001  -1.078  0.00  0.00    +0.230 C 
ATOM     12  O   UNL     1       4.702   5.149  -1.469  0.00  0.00    -0.274 OA
ATOM     13  C   UNL     1       3.600   3.589  -0.123  0.00  0.00    +0.200 C 
ATOM     14  H   UNL     1       6.319   3.525  -2.087  0.00  0.00    +0.149 HD
ENDBRANCH   3   7
BRANCH   6  15
ATOM     15  C   UNL     1      -1.294  -0.773   0.011  0.00  0.00    +0.139 C 
BRANCH  15  16
ATOM     16  N   UNL     1      -1.737  -0.999  -1.367  0.00  0.00    -0.309 N 
ATOM     17  C   UNL     1      -2.911  -1.690  -1.612  0.00  0.00    +0.215 A 
ATOM     18  N   UNL     1      -3.625  -2.135  -0.589  0.00  0.00    -0.222 NA
ATOM     19  C   UNL     1      -4.752  -2.799  -0.788  0.00  0.00    +0.131 A 
ATOM     20  C   UNL     1      -5.183  -3.026  -2.086  0.00  0.00    +0.054 A 
ATOM     21  C   UNL     1      -4.411  -2.546  -3.134  0.00  0.00    +0.131 A 
ATOM     22  N   UNL     1      -3.297  -1.885  -2.865  0.00  0.00    -0.222 NA
ATOM     23 BR   UNL     1      -6.787  -3.970  -2.421  0.00  0.00    -0.047 Br
ATOM     24  H   UNL     1      -1.207  -0.665  -2.108  0.00  0.00    +0.149 HD
ENDBRANCH  15  16
ENDBRANCH   6  15
TORSDOF 3
