REMARK  Name = ZINC20149345
REMARK  7 active torsions:
REMARK  status: ('A' for Active; 'I' for Inactive)
REMARK    1  A    between atoms: C_1  and  C_2
REMARK    2  A    between atoms: C_5  and  S_8
REMARK    3  A    between atoms: S_8  and  N_11
REMARK    4  A    between atoms: N_11  and  C_12
REMARK    5  A    between atoms: C_15  and  N_18
REMARK    6  A    between atoms: C_19  and  C_21
REMARK    7  A    between atoms: C_27  and  C_29
REMARK                            x       y       z     vdW  Elec       q    Type
REMARK                         _______ _______ _______ _____ _____    ______ ____
ROOT
ATOM      1  C   UNL     1      -0.119   3.295  -7.060  0.00  0.00    +0.048 A 
ATOM      2  C   UNL     1       0.884   2.384  -7.363  0.00  0.00    +0.026 A 
ATOM      3  C   UNL     1       1.528   1.703  -6.348  0.00  0.00    +0.025 A 
ATOM      4  C   UNL     1       1.172   1.930  -5.026  0.00  0.00    +0.034 A 
ATOM      5  C   UNL     1       0.165   2.836  -4.723  0.00  0.00    +0.025 A 
ATOM      6  C   UNL     1      -0.475   3.521  -5.736  0.00  0.00    +0.026 A 
ENDROOT
BRANCH   4   7
ATOM      7  N   UNL     1       1.826   1.238  -3.996  0.00  0.00    -0.285 N 
ATOM      8  C   UNL     1       3.138   0.951  -4.105  0.00  0.00    +0.221 C 
ATOM      9  O   UNL     1       3.734   1.214  -5.128  0.00  0.00    -0.275 OA
ATOM     10  H   UNL     1       1.268   0.931  -3.099  0.00  0.00    +0.155 HD
BRANCH   8  11
ATOM     11  C   UNL     1       3.865   0.302  -2.955  0.00  0.00    +0.089 C 
ATOM     12  C   UNL     1       3.786   1.209  -1.725  0.00  0.00    +0.013 C 
ATOM     13  C   UNL     1       4.435   2.557  -2.043  0.00  0.00    +0.001 C 
ATOM     14  C   UNL     1       5.901   2.341  -2.424  0.00  0.00    +0.001 C 
ATOM     15  C   UNL     1       5.980   1.434  -3.654  0.00  0.00    +0.015 C 
ATOM     16  C   UNL     1       5.331   0.085  -3.336  0.00  0.00    +0.114 C 
BRANCH  16  17
ATOM     17  C   UNL     1       5.408  -0.808  -4.547  0.00  0.00    +0.360 C 
ATOM     18  O   UNL     1       4.395  -1.228  -5.054  0.00  0.00    -0.246 OA
ATOM     19  O   UNL     1       6.603  -1.137  -5.063  0.00  0.00    -0.246 OA
ENDBRANCH  16  17
ENDBRANCH   8  11
ENDBRANCH   4   7
BRANCH   1  20
ATOM     20  N   UNL     1      -0.772   3.984  -8.087  0.00  0.00    -0.216 N 
ATOM     21  H   UNL     1      -0.190   4.434  -8.905  0.00  0.00    +0.174 HD
BRANCH  20  22
ATOM     22  S   UNL     1      -2.422   4.122  -8.073  0.00  0.00    +0.072 S 
ATOM     23  O   UNL     1      -2.779   4.603  -6.784  0.00  0.00    -0.150 OA
ATOM     24  O   UNL     1      -2.783   4.804  -9.267  0.00  0.00    -0.150 OA
BRANCH  22  29
ATOM     25  C   UNL     1      -4.684  -1.454  -8.522  0.00  0.00    +0.044 C 
ATOM     26  C   UNL     1      -4.120  -0.061  -8.410  0.00  0.00    -0.050 A 
ATOM     27  C   UNL     1      -3.959   0.522  -7.167  0.00  0.00    +0.005 A 
ATOM     28  C   UNL     1      -3.440   1.799  -7.064  0.00  0.00    +0.029 A 
ATOM     29  C   UNL     1      -3.083   2.494  -8.204  0.00  0.00    +0.109 A 
ATOM     30  C   UNL     1      -3.249   1.913  -9.448  0.00  0.00    +0.029 A 
ATOM     31  C   UNL     1      -3.763   0.634  -9.550  0.00  0.00    +0.005 A 
ENDBRANCH  22  29
ENDBRANCH  20  22
ENDBRANCH   1  20
TORSDOF 6
