REMARK  Name = ZINC00804166
REMARK  8 active torsions:
REMARK  status: ('A' for Active; 'I' for Inactive)
REMARK    1  A    between atoms: C_1  and  C_2
REMARK    2  A    between atoms: C_2  and  C_3
REMARK    3  A    between atoms: C_2  and  C_4
REMARK    4  A    between atoms: C_13  and  C_21
REMARK    5  A    between atoms: C_14  and  N_20
REMARK    6  A    between atoms: C_15  and  C_16
REMARK    7  A    between atoms: C_15  and  C_18
REMARK    8  A    between atoms: C_23  and  C_25
REMARK                            x       y       z     vdW  Elec       q    Type
REMARK                         _______ _______ _______ _____ _____    ______ ____
ROOT
ATOM      1  C   UNL     1       2.828   0.535   1.695  0.00  0.00    +0.040 C 
ATOM      2  C   UNL     1       2.825   1.184   0.310  0.00  0.00    +0.044 C 
ATOM      3  C   UNL     1       2.570   0.174  -0.785  0.00  0.00    +0.116 C 
ATOM      4  N   UNL     1       1.200   0.284  -1.299  0.00  0.00    -0.297 N 
ATOM      5  C   UNL     1       0.755   1.615  -1.751  0.00  0.00    +0.135 C 
ATOM      6  C   UNL     1       0.949   2.561  -0.587  0.00  0.00    -0.003 C 
ATOM      7  C   UNL     1       1.868   2.338   0.331  0.00  0.00    -0.026 C 
ATOM      8  C   UNL     1       1.948   3.252   1.503  0.00  0.00    +0.074 C 
ATOM      9  C   UNL     1       2.632   2.860   2.607  0.00  0.00    +0.054 C 
ATOM     10  C   UNL     1       3.348   1.547   2.716  0.00  0.00    +0.184 C 
ATOM     11  C   UNL     1       0.385  -0.788  -1.361  0.00  0.00    +0.213 C 
ATOM     12  O   UNL     1       0.779  -1.872  -0.987  0.00  0.00    -0.276 OA
ATOM     13  C   UNL     1      -1.014  -0.640  -1.900  0.00  0.00    +0.109 C 
ENDROOT
BRANCH   1  15
ATOM     14  C   UNL     1       5.118  -0.305   1.155  0.00  0.00    +0.007 C 
ATOM     15  C   UNL     1       3.736  -0.697   1.682  0.00  0.00    -0.011 C 
ATOM     16  C   UNL     1       3.869  -1.247   3.103  0.00  0.00    +0.007 C 
ENDBRANCH   1  15
BRANCH   9  17
ATOM     17  N   UNL     1       2.671   3.708   3.678  0.00  0.00    -0.358 N 
ATOM     18  H   UNL     1       3.218   3.419   4.588  0.00  0.00    +0.142 HD
ATOM     19  H   UNL     1       2.156   4.678   3.630  0.00  0.00    +0.142 HD
ENDBRANCH   9  17
BRANCH  10  20
ATOM     20  C   UNL     1       3.155   1.006   4.071  0.00  0.00    +0.091 C 
ATOM     21  N   UNL     1       3.007   0.588   5.117  0.00  0.00    -0.195 NA
ENDBRANCH  10  20
BRANCH  10  22
ATOM     22  C   UNL     1       4.786   1.766   2.486  0.00  0.00    +0.091 C 
ATOM     23  N   UNL     1       5.895   1.934   2.308  0.00  0.00    -0.195 NA
ENDBRANCH  10  22
BRANCH   8  24
ATOM     24  C   UNL     1       1.307   4.532   1.467  0.00  0.00    +0.101 C 
ATOM     25  N   UNL     1       0.799   5.548   1.438  0.00  0.00    -0.191 NA
ENDBRANCH   8  24
TORSDOF 5
