REMARK  Name = ZINC34830177
REMARK  7 active torsions:
REMARK  status: ('A' for Active; 'I' for Inactive)
REMARK    1  A    between atoms: C_1  and  C_2
REMARK    2  A    between atoms: C_5  and  C_8
REMARK    3  A    between atoms: N_17  and  C_18
REMARK    4  A    between atoms: C_18  and  C_19
REMARK    5  A    between atoms: C_19  and  C_20
REMARK    6  A    between atoms: C_26  and  C_29
REMARK    7  A    between atoms: C_30  and  C_32
REMARK                            x       y       z     vdW  Elec       q    Type
REMARK                         _______ _______ _______ _____ _____    ______ ____
ROOT
ATOM      1  C   UNL     1      -4.394  -3.601   2.707  0.00  0.00    +0.214 C 
ATOM      2  O   UNL     1      -4.606  -2.774   1.845  0.00  0.00    -0.276 OA
ATOM      3  N   UNL     1      -5.422  -4.133   3.397  0.00  0.00    -0.298 N 
ATOM      4  C   UNL     1      -5.181  -5.131   4.448  0.00  0.00    +0.127 C 
ATOM      5  C   UNL     1      -6.008  -6.384   4.133  0.00  0.00    +0.127 C 
ATOM      6  N   UNL     1      -7.390  -5.975   3.850  0.00  0.00    -0.292 N 
ATOM      7  C   UNL     1      -7.632  -4.977   2.799  0.00  0.00    +0.091 C 
ATOM      8  C   UNL     1      -6.805  -3.720   3.118  0.00  0.00    +0.130 C 
ATOM      9  C   UNL     1      -7.212  -5.546   1.443  0.00  0.00    +0.029 C 
ATOM     10  C   UNL     1      -8.418  -6.506   4.541  0.00  0.00    +0.247 C 
ATOM     11  O   UNL     1      -8.213  -7.383   5.358  0.00  0.00    -0.270 OA
ENDROOT
BRANCH  10  12
ATOM     12  C   UNL     1      -9.793  -6.024   4.305  0.00  0.00    +0.041 A 
ATOM     13  C   UNL     1     -10.304  -5.973   3.006  0.00  0.00    +0.017 A 
ATOM     14  C   UNL     1     -11.588  -5.523   2.788  0.00  0.00    +0.050 A 
ATOM     15  C   UNL     1     -12.379  -5.120   3.857  0.00  0.00    +0.166 A 
ATOM     16  C   UNL     1     -11.874  -5.169   5.157  0.00  0.00    +0.167 A 
ATOM     17  C   UNL     1     -10.589  -5.624   5.382  0.00  0.00    +0.062 A 
ATOM     18  O   UNL     1     -12.838  -4.725   6.015  0.00  0.00    -0.453 OA
ATOM     19  C   UNL     1     -13.788  -4.020   5.194  0.00  0.00    +0.466 C 
ATOM     20  O   UNL     1     -13.656  -4.647   3.904  0.00  0.00    -0.453 OA
ENDBRANCH  10  12
BRANCH   1  21
ATOM     21  C   UNL     1      -2.982  -4.035   3.005  0.00  0.00    +0.077 C 
BRANCH  21  22
ATOM     22  C   UNL     1      -2.014  -3.285   2.087  0.00  0.00    -0.068 C 
BRANCH  22  31
ATOM     23  C   UNL     1       0.293  -2.901   1.580  0.00  0.00    -0.006 C 
ATOM     24  C   UNL     1       1.712  -3.414   1.809  0.00  0.00    -0.047 A 
ATOM     25  C   UNL     1       2.861  -2.675   1.540  0.00  0.00    +0.010 A 
ATOM     26  C   UNL     1       4.081  -3.211   1.776  0.00  0.00    +0.045 A 
ATOM     27  S   UNL     1       3.658  -4.828   2.408  0.00  0.00    -0.101 S 
ATOM     28  C   UNL     1       1.898  -4.669   2.307  0.00  0.00    -0.010 A 
ATOM     29  C   UNL     1       0.829  -5.648   2.667  0.00  0.00    +0.024 C 
ATOM     30  C   UNL     1      -0.491  -5.136   2.064  0.00  0.00    -0.072 C 
ATOM     31  N   UNL     1      -0.638  -3.708   2.377  0.00  0.00    +0.388 N 
ATOM     32  H   UNL     1      -0.447  -3.563   3.357  0.00  0.00    -0.080 HD
BRANCH  23  37
ATOM     33  C   UNL     1      -0.055   2.632   3.210  0.00  0.00    +0.044 C 
ATOM     34  C   UNL     1       0.036   1.189   2.785  0.00  0.00    -0.050 A 
ATOM     35  C   UNL     1       0.170   0.870   1.447  0.00  0.00    +0.003 A 
ATOM     36  C   UNL     1       0.254  -0.453   1.057  0.00  0.00    +0.002 A 
ATOM     37  C   UNL     1       0.203  -1.458   2.005  0.00  0.00    -0.057 A 
ATOM     38  C   UNL     1       0.070  -1.139   3.344  0.00  0.00    +0.002 A 
ATOM     39  C   UNL     1      -0.009   0.185   3.734  0.00  0.00    +0.003 A 
ENDBRANCH  23  37
ENDBRANCH  22  31
ENDBRANCH  21  22
ENDBRANCH   1  21
TORSDOF 5
