REMARK  Name = ZINC22748415
REMARK  5 active torsions:
REMARK  status: ('A' for Active; 'I' for Inactive)
REMARK    1  A    between atoms: C_1  and  C_2
REMARK    2  A    between atoms: C_4  and  C_31
REMARK    3  A    between atoms: C_13  and  C_18
REMARK    4  A    between atoms: C_21  and  C_24
REMARK    5  A    between atoms: C_24  and  N_25
REMARK                            x       y       z     vdW  Elec       q    Type
REMARK                         _______ _______ _______ _____ _____    ______ ____
ROOT
ATOM      1  C   UNL     1      10.069   3.624   9.891  0.00  0.00    +0.044 C 
ATOM      2  C   UNL     1       8.883   4.335  10.489  0.00  0.00    -0.037 A 
ATOM      3  C   UNL     1       8.898   4.738  11.805  0.00  0.00    +0.027 A 
ATOM      4  C   UNL     1       7.805   5.391  12.350  0.00  0.00    +0.040 A 
ATOM      5  N   UNL     1       6.737   5.635  11.613  0.00  0.00    -0.245 NA
ATOM      6  C   UNL     1       6.678   5.267  10.351  0.00  0.00    +0.111 A 
ATOM      7  C   UNL     1       7.735   4.599   9.706  0.00  0.00    +0.037 A 
ATOM      8  C   UNL     1       7.515   4.256   8.289  0.00  0.00    +0.093 A 
ATOM      9  C   UNL     1       6.285   4.635   7.755  0.00  0.00    +0.084 A 
ATOM     10  S   UNL     1       5.435   5.427   9.093  0.00  0.00    -0.063 S 
ATOM     11  C   UNL     1       5.963   4.362   6.417  0.00  0.00    +0.174 A 
ATOM     12  N   UNL     1       4.914   4.594   5.646  0.00  0.00    -0.206 NA
ATOM     13  C   UNL     1       5.137   4.110   4.423  0.00  0.00    +0.182 A 
ATOM     14  N   UNL     1       6.338   3.565   4.380  0.00  0.00    -0.143 NA
ATOM     15  N   UNL     1       6.900   3.710   5.654  0.00  0.00    -0.200 N 
ATOM     16  C   UNL     1       8.086   3.359   6.214  0.00  0.00    +0.225 A 
ATOM     17  N   UNL     1       8.377   3.615   7.451  0.00  0.00    -0.234 NA
ATOM     18  C   UNL     1       7.834   5.827  13.792  0.00  0.00    +0.065 C 
ENDROOT
BRANCH  13  19
ATOM     19  C   UNL     1       4.186   4.180   3.286  0.00  0.00    +0.021 A 
ATOM     20  C   UNL     1       4.534   3.642   2.049  0.00  0.00    +0.012 A 
ATOM     21  C   UNL     1       3.646   3.709   0.995  0.00  0.00    +0.006 A 
ATOM     22  C   UNL     1       2.411   4.308   1.166  0.00  0.00    -0.026 A 
ATOM     23  C   UNL     1       2.062   4.848   2.390  0.00  0.00    +0.006 A 
ATOM     24  C   UNL     1       2.941   4.783   3.452  0.00  0.00    +0.012 A 
BRANCH  22  25
ATOM     25  C   UNL     1       1.444   4.379   0.011  0.00  0.00    +0.178 C 
BRANCH  25  26
ATOM     26  N   UNL     1       0.594   3.186   0.013  0.00  0.00    -0.266 N 
ATOM     27  C   UNL     1      -0.756   3.174   0.026  0.00  0.00    +0.124 A 
ATOM     28  C   UNL     1      -1.157   1.881   0.017  0.00  0.00    +0.055 A 
ATOM     29  C   UNL     1      -0.013   1.076   0.008  0.00  0.00    +0.149 A 
ATOM     30  N   UNL     1       1.037   1.857   0.002  0.00  0.00    -0.178 NA
ATOM     31 BR   UNL     1      -2.947   1.270   0.021  0.00  0.00    -0.047 Br
ENDBRANCH  25  26
ENDBRANCH  22  25
ENDBRANCH  13  19
TORSDOF 3
