REMARK  Name = ZINC09279176
REMARK  6 active torsions:
REMARK  status: ('A' for Active; 'I' for Inactive)
REMARK    1  A    between atoms: C_1  and  C_2
REMARK    2  A    between atoms: N_5  and  S_8
REMARK    3  A    between atoms: S_8  and  C_11
REMARK    4  A    between atoms: C_14  and  C_17
REMARK    5  A    between atoms: C_17  and  N_19
REMARK    6  A    between atoms: N_21  and  C_30
REMARK                            x       y       z     vdW  Elec       q    Type
REMARK                         _______ _______ _______ _____ _____    ______ ____
ROOT
ATOM      1  C   UNL     1       3.898  -2.365   0.092  0.00  0.00    +0.106 A 
ATOM      2  C   UNL     1       4.474  -2.092  -1.136  0.00  0.00    +0.029 A 
ATOM      3  C   UNL     1       5.696  -1.454  -1.201  0.00  0.00    +0.015 A 
ATOM      4  C   UNL     1       6.350  -1.084  -0.026  0.00  0.00    +0.039 A 
ATOM      5  C   UNL     1       5.764  -1.362   1.209  0.00  0.00    +0.015 A 
ATOM      6  C   UNL     1       4.539  -1.996   1.261  0.00  0.00    +0.029 A 
ENDROOT
BRANCH   1   7
ATOM      7  S   UNL     1       2.338  -3.180   0.167  0.00  0.00    +0.061 S 
ATOM      8  O   UNL     1       2.266  -3.803   1.442  0.00  0.00    -0.153 OA
ATOM      9  O   UNL     1       2.201  -3.908  -1.045  0.00  0.00    -0.153 OA
BRANCH   7  14
ATOM     10  C   UNL     1       0.180   2.130  -0.001  0.00  0.00    +0.007 C 
ATOM     11  C   UNL     1       0.084   0.605   0.066  0.00  0.00    -0.012 C 
ATOM     12  C   UNL     1       0.739  -0.002  -1.177  0.00  0.00    +0.020 C 
ATOM     13  C   UNL     1       0.610  -1.528  -1.124  0.00  0.00    +0.110 C 
ATOM     14  N   UNL     1       1.170  -2.005   0.148  0.00  0.00    -0.177 NA
ATOM     15  C   UNL     1       0.675  -1.421   1.402  0.00  0.00    +0.110 C 
ATOM     16  C   UNL     1       0.803   0.103   1.320  0.00  0.00    +0.020 C 
ENDBRANCH   7  14
ENDBRANCH   1   7
BRANCH   4  17
ATOM     17  C   UNL     1       7.662  -0.400  -0.089  0.00  0.00    +0.269 C 
ATOM     18  O   UNL     1       8.172  -0.158  -1.169  0.00  0.00    -0.268 OA
BRANCH  17  19
ATOM     19  N   UNL     1       8.287  -0.046   1.039  0.00  0.00    -0.152 NA
ATOM     20  C   UNL     1       8.995  -0.944   1.715  0.00  0.00    +0.166 A 
ATOM     21  N   UNL     1       9.317  -2.208   1.336  0.00  0.00    -0.324 N 
ATOM     22  C   UNL     1      10.070  -3.007   2.177  0.00  0.00    +0.057 A 
ATOM     23  C   UNL     1      10.510  -4.324   1.987  0.00  0.00    +0.028 A 
ATOM     24  C   UNL     1      11.259  -4.959   2.951  0.00  0.00    +0.017 A 
ATOM     25  C   UNL     1      11.599  -4.318   4.132  0.00  0.00    +0.019 A 
ATOM     26  C   UNL     1      11.177  -3.017   4.343  0.00  0.00    +0.032 A 
ATOM     27  C   UNL     1      10.428  -2.382   3.380  0.00  0.00    +0.040 A 
ATOM     28  S   UNL     1       9.703  -0.770   3.230  0.00  0.00    -0.052 S 
ATOM     29 BR   UNL     1      12.628  -5.213   5.441  0.00  0.00    -0.050 Br
ATOM     30  C   UNL     1       8.867  -2.724   0.041  0.00  0.00    +0.151 C 
ENDBRANCH  17  19
ENDBRANCH   4  17
TORSDOF 4
