REMARK  Name = ZINC39657132
REMARK  5 active torsions:
REMARK  status: ('A' for Active; 'I' for Inactive)
REMARK    1  A    between atoms: C_1  and  C_2
REMARK    2  A    between atoms: C_2  and  C_4
REMARK    3  A    between atoms: C_2  and  N_11
REMARK    4  A    between atoms: C_12  and  C_14
REMARK    5  A    between atoms: C_25  and  C_27
REMARK                            x       y       z     vdW  Elec       q    Type
REMARK                         _______ _______ _______ _____ _____    ______ ____
ROOT
ATOM      1  C   UNL     1       0.272  -0.566   2.974  0.00  0.00    +0.100 C 
ATOM      2  C   UNL     1       1.579  -0.059   3.623  0.00  0.00    +0.121 C 
ATOM      3  N   UNL     1       1.133   0.884   4.675  0.00  0.00    -0.300 N 
ATOM      4  C   UNL     1      -0.069   0.243   5.259  0.00  0.00    +0.115 C 
ATOM      5  C   UNL     1      -0.807  -0.369   4.052  0.00  0.00    -0.004 C 
ATOM      6  C   UNL     1      -1.885   0.588   3.552  0.00  0.00    -0.010 C 
ATOM      7  C   UNL     1      -2.975   0.724   4.619  0.00  0.00    -0.082 C 
ATOM      8  N   UNL     1      -3.555  -0.596   4.899  0.00  0.00    +0.379 N 
ATOM      9  C   UNL     1      -2.532  -1.483   5.466  0.00  0.00    -0.082 C 
ATOM     10  C   UNL     1      -1.423  -1.711   4.435  0.00  0.00    -0.010 C 
ATOM     11  C   UNL     1       1.694   2.059   5.023  0.00  0.00    +0.219 C 
ATOM     12  O   UNL     1       2.638   2.490   4.395  0.00  0.00    -0.275 OA
ATOM     13  H   UNL     1      -4.313  -0.495   5.557  0.00  0.00    -0.086 HD
ATOM     14  H   UNL     1      -3.907  -0.995   4.042  0.00  0.00    -0.086 HD
ENDROOT
BRANCH  11  15
ATOM     15  C   UNL     1       1.148   2.838   6.191  0.00  0.00    +0.079 C 
ATOM     16  C   UNL     1       1.476   4.327   6.017  0.00  0.00    +0.017 C 
ATOM     17  C   UNL     1       0.760   5.112   7.119  0.00  0.00    +0.027 C 
ATOM     18  C   UNL     1       1.023   4.483   8.456  0.00  0.00    -0.031 C 
ATOM     19  C   UNL     1       1.471   3.280   8.616  0.00  0.00    -0.030 C 
ATOM     20  C   UNL     1       1.796   2.344   7.487  0.00  0.00    +0.039 C 
ENDBRANCH  11  15
BRANCH   1  22
ATOM     21  N   UNL     1      -0.747  -0.309   0.734  0.00  0.00    -0.308 N 
ATOM     22  C   UNL     1      -0.056   0.248   1.748  0.00  0.00    +0.219 C 
ATOM     23  O   UNL     1       0.302   1.404   1.675  0.00  0.00    -0.275 OA
ATOM     24  H   UNL     1      -1.033  -1.234   0.793  0.00  0.00    +0.149 HD
BRANCH  21  26
ATOM     25  C   UNL     1       0.114   0.437  -1.430  0.00  0.00    +0.033 C 
ATOM     26  C   UNL     1      -1.066   0.482  -0.457  0.00  0.00    +0.100 C 
BRANCH  26  27
ATOM     27  C   UNL     1      -2.290  -0.087  -1.125  0.00  0.00    -0.027 A 
ATOM     28  C   UNL     1      -2.460  -1.456  -1.205  0.00  0.00    +0.006 A 
ATOM     29  C   UNL     1      -3.584  -1.979  -1.818  0.00  0.00    +0.015 A 
ATOM     30  C   UNL     1      -4.538  -1.131  -2.351  0.00  0.00    +0.018 A 
ATOM     31  C   UNL     1      -4.367   0.239  -2.271  0.00  0.00    +0.015 A 
ATOM     32  C   UNL     1      -3.246   0.761  -1.653  0.00  0.00    +0.006 A 
ATOM     33 BR   UNL     1      -6.075  -1.845  -3.190  0.00  0.00    -0.050 Br
ENDBRANCH  26  27
ENDBRANCH  21  26
ENDBRANCH   1  22
TORSDOF 4
