REMARK  Name = ZINC30826996
REMARK  5 active torsions:
REMARK  status: ('A' for Active; 'I' for Inactive)
REMARK    1  A    between atoms: C_3  and  C_10
REMARK    2  A    between atoms: C_5  and  N_7
REMARK    3  A    between atoms: C_11  and  C_12
REMARK    4  A    between atoms: N_14  and  C_15
REMARK    5  A    between atoms: C_22  and  C_24
REMARK                            x       y       z     vdW  Elec       q    Type
REMARK                         _______ _______ _______ _____ _____    ______ ____
ROOT
ATOM      1  C   UNL     1      -2.410   9.493   0.169  0.00  0.00    +0.036 A 
ATOM      2  C   UNL     1      -1.187  10.161   0.159  0.00  0.00    +0.027 A 
ATOM      3  C   UNL     1      -1.142  11.535   0.253  0.00  0.00    +0.050 A 
ATOM      4  C   UNL     1      -2.317  12.262   0.367  0.00  0.00    +0.156 A 
ATOM      5  C   UNL     1      -3.554  11.596   0.383  0.00  0.00    +0.112 A 
ATOM      6  C   UNL     1      -3.591  10.203   0.283  0.00  0.00    +0.055 A 
ATOM      7  N   UNL     1      -4.510  12.552   0.503  0.00  0.00    -0.209 NA
ATOM      8  C   UNL     1      -3.930  13.724   0.558  0.00  0.00    +0.228 A 
ATOM      9  O   UNL     1      -2.593  13.581   0.478  0.00  0.00    -0.435 OA
ENDROOT
BRANCH   8  10
ATOM     10  C   UNL     1      -4.638  15.015   0.689  0.00  0.00    +0.038 A 
ATOM     11  C   UNL     1      -3.915  16.208   0.739  0.00  0.00    +0.013 A 
ATOM     12  C   UNL     1      -4.582  17.410   0.861  0.00  0.00    +0.002 A 
ATOM     13  C   UNL     1      -5.963  17.434   0.933  0.00  0.00    +0.014 A 
ATOM     14  C   UNL     1      -6.686  16.255   0.884  0.00  0.00    +0.014 A 
ATOM     15  C   UNL     1      -6.031  15.046   0.758  0.00  0.00    +0.027 A 
ATOM     16  I   UNL     1      -8.777  16.305   0.993  0.00  0.00    -0.044 I 
ENDBRANCH   8  10
BRANCH   1  19
ATOM     17  C   UNL     1      -1.519   7.453  -0.672  0.00  0.00    +0.241 C 
ATOM     18  O   UNL     1      -0.716   8.088  -1.330  0.00  0.00    -0.270 OA
ATOM     19  N   UNL     1      -2.443   8.097   0.069  0.00  0.00    -0.282 N 
ATOM     20  H   UNL     1      -3.222   7.526   0.594  0.00  0.00    +0.155 HD
BRANCH  17  22
ATOM     21  C   UNL     1      -0.558   5.345  -1.425  0.00  0.00    +0.013 C 
ATOM     22  C   UNL     1      -1.482   5.990  -0.685  0.00  0.00    +0.068 C 
BRANCH  21  25
ATOM     23  C   UNL     1      -1.403   1.762  -0.704  0.00  0.00    +0.003 A 
ATOM     24  C   UNL     1      -1.441   3.141  -0.683  0.00  0.00    +0.008 A 
ATOM     25  C   UNL     1      -0.520   3.874  -1.438  0.00  0.00    -0.023 A 
ATOM     26  C   UNL     1       0.437   3.201  -2.205  0.00  0.00    +0.040 A 
ATOM     27  C   UNL     1       0.466   1.823  -2.211  0.00  0.00    +0.127 A 
ATOM     28  C   UNL     1      -0.449   1.105  -1.461  0.00  0.00    +0.033 A 
BRANCH  27  29
ATOM     29  N   UNL     1       1.478   1.110  -3.022  0.00  0.00    +0.056 N 
ATOM     30  O   UNL     1       1.505  -0.108  -3.029  0.00  0.00    -0.126 OA
ATOM     31  O   UNL     1       2.283   1.740  -3.683  0.00  0.00    -0.126 OA
ENDBRANCH  27  29
ENDBRANCH  21  25
ENDBRANCH  17  22
ENDBRANCH   1  19
TORSDOF 5
