REMARK  Name = ZINC15674903
REMARK  7 active torsions:
REMARK  status: ('A' for Active; 'I' for Inactive)
REMARK    1  A    between atoms: C_3  and  O_27
REMARK    2  A    between atoms: C_6  and  C_7
REMARK    3  A    between atoms: C_7  and  N_47
REMARK    4  A    between atoms: C_9  and  O_26
REMARK    5  A    between atoms: C_12  and  C_14
REMARK    6  A    between atoms: C_16  and  C_19
REMARK    7  A    between atoms: O_27  and  C_28
REMARK                            x       y       z     vdW  Elec       q    Type
REMARK                         _______ _______ _______ _____ _____    ______ ____
ROOT
ATOM      1  C   UNL     1      -1.984   0.816  -1.396  0.00  0.00    -0.046 C 
ATOM      2  C   UNL     1      -2.319   1.032  -2.887  0.00  0.00    +0.097 C 
ATOM      3  C   UNL     1      -0.970   1.364  -3.557  0.00  0.00    +0.023 C 
ATOM      4  C   UNL     1       0.067   1.320  -2.414  0.00  0.00    +0.025 C 
ATOM      5  N   UNL     1      -0.732   1.561  -1.216  0.00  0.00    +0.392 N 
ATOM      6  H   UNL     1      -0.931   2.564  -1.122  0.00  0.00    -0.080 HD
ENDROOT
BRANCH   4   7
ATOM      7  C   UNL     1       1.104   2.398  -2.604  0.00  0.00    +0.214 A 
ATOM      8  N   UNL     1       2.361   2.220  -2.925  0.00  0.00    -0.193 NA
ATOM      9  C   UNL     1       2.900   3.459  -2.984  0.00  0.00    +0.202 A 
ATOM     10  N   UNL     1       1.949   4.307  -2.689  0.00  0.00    -0.056 NA
ATOM     11  O   UNL     1       0.914   3.714  -2.469  0.00  0.00    -0.339 OA
BRANCH   9  12
ATOM     12  C   UNL     1       4.307   3.793  -3.314  0.00  0.00    +0.023 A 
ATOM     13  C   UNL     1       5.216   2.777  -3.604  0.00  0.00    +0.014 A 
ATOM     14  C   UNL     1       6.523   3.092  -3.916  0.00  0.00    +0.039 A 
ATOM     15  C   UNL     1       6.934   4.416  -3.931  0.00  0.00    +0.123 A 
ATOM     16  C   UNL     1       6.034   5.428  -3.638  0.00  0.00    +0.039 A 
ATOM     17  C   UNL     1       4.725   5.122  -3.330  0.00  0.00    +0.014 A 
ATOM     18  F   UNL     1       8.216   4.720  -4.231  0.00  0.00    -0.205 F 
ENDBRANCH   9  12
ENDBRANCH   4   7
BRANCH   2  19
ATOM     19  O   UNL     1      -2.872  -0.160  -3.449  0.00  0.00    -0.394 OA
ATOM     20  H   UNL     1      -3.722  -0.417  -3.066  0.00  0.00    +0.210 HD
ENDBRANCH   2  19
BRANCH   5  21
ATOM     21  C   UNL     1      -0.013   1.086   0.008  0.00  0.00    -0.042 C 
BRANCH  21  27
ATOM     22  C   UNL     1      -0.359   2.779   1.818  0.00  0.00    +0.005 A 
ATOM     23  C   UNL     1      -1.008   3.230   2.951  0.00  0.00    +0.046 A 
ATOM     24  C   UNL     1      -2.013   2.464   3.524  0.00  0.00    +0.130 A 
ATOM     25  C   UNL     1      -2.368   1.250   2.953  0.00  0.00    +0.046 A 
ATOM     26  C   UNL     1      -1.720   0.807   1.817  0.00  0.00    +0.005 A 
ATOM     27  C   UNL     1      -0.718   1.572   1.248  0.00  0.00    -0.064 A 
BRANCH  24  28
ATOM     28  O   UNL     1      -2.649   2.902   4.642  0.00  0.00    -0.406 OA
BRANCH  28  29
ATOM     29  C   UNL     1      -2.232   4.161   5.174  0.00  0.00    +0.575 C 
ATOM     30  F   UNL     1      -2.426   5.161   4.215  0.00  0.00    -0.133 F 
ATOM     31  F   UNL     1      -2.985   4.457   6.316  0.00  0.00    -0.133 F 
ATOM     32  F   UNL     1      -0.876   4.098   5.514  0.00  0.00    -0.133 F 
ENDBRANCH  28  29
ENDBRANCH  24  28
ENDBRANCH  21  27
ENDBRANCH   5  21
TORSDOF 7
