REMARK  Name = ZINC60379575
REMARK  5 active torsions:
REMARK  status: ('A' for Active; 'I' for Inactive)
REMARK    1  A    between atoms: C_1  and  C_2
REMARK    2  A    between atoms: C_3  and  C_21
REMARK    3  A    between atoms: N_5  and  C_20
REMARK    4  A    between atoms: C_8  and  C_9
REMARK    5  A    between atoms: N_11  and  C_12
REMARK                            x       y       z     vdW  Elec       q    Type
REMARK                         _______ _______ _______ _____ _____    ______ ____
ROOT
ATOM      1  C   UNL     1      -0.201  -0.211   2.575  0.00  0.00    +0.254 C 
ATOM      2  O   UNL     1      -0.703   0.889   2.696  0.00  0.00    -0.270 OA
ATOM      3  N   UNL     1       0.465  -0.766   3.607  0.00  0.00    -0.280 N 
ATOM      4  H   UNL     1       0.939  -1.603   3.485  0.00  0.00    +0.155 HD
ENDROOT
BRANCH   1  12
ATOM      5  C   UNL     1      -1.328   1.101   0.203  0.00  0.00    +0.046 C 
ATOM      6  C   UNL     1      -0.852  -0.329   0.165  0.00  0.00    -0.010 A 
ATOM      7  C   UNL     1      -0.926  -1.082  -1.014  0.00  0.00    +0.062 A 
ATOM      8  N   UNL     1      -0.511  -2.319  -1.039  0.00  0.00    -0.173 NA
ATOM      9  N   UNL     1      -0.020  -2.912  -0.013  0.00  0.00    -0.232 N 
ATOM     10  C   UNL     1       0.103  -2.292   1.177  0.00  0.00    +0.279 A 
ATOM     11  O   UNL     1       0.574  -2.881   2.135  0.00  0.00    -0.265 OA
ATOM     12  C   UNL     1      -0.318  -0.938   1.298  0.00  0.00    +0.107 A 
ATOM     13  C   UNL     1       0.419  -4.304  -0.138  0.00  0.00    +0.176 C 
ATOM     14  C   UNL     1      -1.491  -0.458  -2.264  0.00  0.00    +0.068 C 
ENDBRANCH   1  12
BRANCH   3  15
ATOM     15  C   UNL     1       0.471  -0.134   4.856  0.00  0.00    +0.049 A 
ATOM     16  C   UNL     1       0.348   1.246   4.937  0.00  0.00    +0.039 A 
ATOM     17  C   UNL     1       0.354   1.867   6.172  0.00  0.00    +0.020 A 
ATOM     18  C   UNL     1       0.483   1.115   7.326  0.00  0.00    +0.016 A 
ATOM     19  C   UNL     1       0.606  -0.260   7.248  0.00  0.00    +0.018 A 
ATOM     20  C   UNL     1       0.595  -0.888   6.017  0.00  0.00    +0.039 A 
ATOM     21 BR   UNL     1       0.755  -2.769   5.912  0.00  0.00    -0.048 Br
ATOM     22 BR   UNL     1       0.186   3.748   6.284  0.00  0.00    -0.050 Br
ENDBRANCH   3  15
TORSDOF 2
