REMARK  Name = ZINC22418991
REMARK  8 active torsions:
REMARK  status: ('A' for Active; 'I' for Inactive)
REMARK    1  A    between atoms: C_1  and  N_2
REMARK    2  A    between atoms: N_2  and  C_3
REMARK    3  A    between atoms: N_2  and  C_4
REMARK    4  A    between atoms: C_7  and  C_10
REMARK    5  A    between atoms: C_10  and  C_12
REMARK    6  A    between atoms: C_10  and  N_22
REMARK    7  A    between atoms: C_12  and  N_13
REMARK    8  A    between atoms: N_16  and  C_17
REMARK                            x       y       z     vdW  Elec       q    Type
REMARK                         _______ _______ _______ _____ _____    ______ ____
ROOT
ATOM      1  C   UNL     1      -2.173   1.787   0.897  0.00  0.00    +0.121 C 
ENDROOT
BRANCH   1   2
ATOM      2  N   UNL     1      -1.221   2.595   0.123  0.00  0.00    -0.321 N 
ATOM      3  C   UNL     1      -1.316   4.024   0.492  0.00  0.00    +0.110 C 
ATOM      4  C   UNL     1       0.128   4.528   0.269  0.00  0.00    +0.056 C 
ATOM      5  C   UNL     1       0.955   3.268   0.438  0.00  0.00    -0.025 A 
ATOM      6  C   UNL     1       0.096   2.178   0.356  0.00  0.00    +0.033 A 
ATOM      7  C   UNL     1       0.617   0.893   0.497  0.00  0.00    +0.023 A 
ATOM      8  C   UNL     1       1.967   0.711   0.710  0.00  0.00    +0.002 A 
ATOM      9  C   UNL     1       2.814   1.802   0.784  0.00  0.00    +0.000 A 
ATOM     10  C   UNL     1       2.304   3.081   0.647  0.00  0.00    +0.005 A 
ENDBRANCH   1   2
BRANCH   1  14
ATOM     11  C   UNL     1      -0.592   1.076   4.804  0.00  0.00    +0.029 A 
ATOM     12  C   UNL     1      -1.434   0.142   4.213  0.00  0.00    +0.023 A 
ATOM     13  C   UNL     1      -1.943   0.375   2.951  0.00  0.00    +0.007 A 
ATOM     14  C   UNL     1      -1.615   1.536   2.275  0.00  0.00    -0.025 A 
ATOM     15  C   UNL     1      -0.773   2.465   2.857  0.00  0.00    +0.007 A 
ATOM     16  C   UNL     1      -0.265   2.241   4.122  0.00  0.00    +0.023 A 
BRANCH  11  18
ATOM     17  C   UNL     1      -0.420  -0.386   6.798  0.00  0.00    +0.129 C 
ATOM     18  N   UNL     1      -0.075   0.844   6.080  0.00  0.00    -0.336 N 
ATOM     19  C   UNL     1       0.813   1.829   6.702  0.00  0.00    +0.129 C 
ENDBRANCH  11  18
ENDBRANCH   1  14
BRANCH   1  20
ATOM     20  C   UNL     1      -3.501   2.536   1.013  0.00  0.00    +0.133 C 
BRANCH  20  21
ATOM     21  N   UNL     1      -3.984   2.885  -0.325  0.00  0.00    -0.297 N 
ATOM     22  C   UNL     1      -5.145   3.554  -0.470  0.00  0.00    +0.304 C 
ATOM     23  O   UNL     1      -5.792   3.868   0.510  0.00  0.00    -0.252 OA
ATOM     24  N   UNL     1      -5.589   3.874  -1.701  0.00  0.00    -0.264 N 
ATOM     25  H   UNL     1      -3.399   2.601  -1.212  0.00  0.00    +0.150 HD
ATOM     26  H   UNL     1      -5.004   3.590  -2.588  0.00  0.00    +0.157 HD
BRANCH  24  27
ATOM     27  C   UNL     1      -6.794   4.568  -1.851  0.00  0.00    +0.073 A 
ATOM     28  C   UNL     1      -7.407   4.986  -2.994  0.00  0.00    +0.031 A 
ATOM     29  C   UNL     1      -8.610   5.660  -2.896  0.00  0.00    +0.009 A 
ATOM     30  C   UNL     1      -9.137   5.893  -1.670  0.00  0.00    +0.047 A 
ATOM     31  S   UNL     1      -7.925   5.143  -0.595  0.00  0.00    -0.082 S 
ENDBRANCH  24  27
ENDBRANCH  20  21
ENDBRANCH   1  20
TORSDOF 6
