REMARK  Name = ZINC04324957
REMARK  8 active torsions:
REMARK  status: ('A' for Active; 'I' for Inactive)
REMARK    1  A    between atoms: C_1  and  C_2
REMARK    2  A    between atoms: C_4  and  N_11
REMARK    3  A    between atoms: C_5  and  C_7
REMARK    4  A    between atoms: N_14  and  C_15
REMARK    5  A    between atoms: C_15  and  C_16
REMARK    6  A    between atoms: C_16  and  N_17
REMARK    7  A    between atoms: N_17  and  C_18
REMARK    8  A    between atoms: C_19  and  C_23
REMARK                            x       y       z     vdW  Elec       q    Type
REMARK                         _______ _______ _______ _____ _____    ______ ____
ROOT
ATOM      1  N   UNL     1       3.497   0.629  -0.028  0.00  0.00    -0.266 N 
ATOM      2  C   UNL     1       4.179   1.791  -0.028  0.00  0.00    +0.304 C 
ATOM      3  O   UNL     1       3.580   2.849  -0.017  0.00  0.00    -0.253 OA
ATOM      4  N   UNL     1       5.527   1.781  -0.040  0.00  0.00    -0.298 N 
ATOM      5  H   UNL     1       3.975  -0.214  -0.036  0.00  0.00    +0.156 HD
ATOM      6  H   UNL     1       6.006   0.937  -0.049  0.00  0.00    +0.150 HD
ENDROOT
BRANCH   1  10
ATOM      7  C   UNL     1      -1.251   2.202   0.020  0.00  0.00    +0.086 C 
ATOM      8  C   UNL     1      -0.016   1.339   0.009  0.00  0.00    +0.104 A 
ATOM      9  C   UNL     1       1.253   1.784  -0.000  0.00  0.00    +0.068 A 
ATOM     10  C   UNL     1       2.090   0.640  -0.015  0.00  0.00    +0.085 A 
ATOM     11  C   UNL     1       1.276  -0.437  -0.013  0.00  0.00    +0.229 A 
ATOM     12  O   UNL     1       0.002  -0.004   0.002  0.00  0.00    -0.454 OA
BRANCH  11  13
ATOM     13  C   UNL     1       1.719  -1.877  -0.024  0.00  0.00    +0.452 C 
ATOM     14  F   UNL     1       1.868  -2.330   1.291  0.00  0.00    -0.163 F 
ATOM     15  F   UNL     1       0.758  -2.655  -0.679  0.00  0.00    -0.163 F 
ATOM     16  F   UNL     1       2.941  -1.984  -0.695  0.00  0.00    -0.163 F 
ENDBRANCH  11  13
ENDBRANCH   1  10
BRANCH   4  17
ATOM     17  C   UNL     1       6.269   3.044  -0.041  0.00  0.00    +0.124 C 
BRANCH  17  18
ATOM     18  C   UNL     1       7.771   2.753  -0.056  0.00  0.00    +0.121 C 
BRANCH  18  19
ATOM     19  N   UNL     1       8.514   4.016  -0.057  0.00  0.00    -0.329 N 
ATOM     20  H   UNL     1       8.035   4.860  -0.048  0.00  0.00    +0.147 HD
BRANCH  19  21
ATOM     21  C   UNL     1       9.904   4.005  -0.070  0.00  0.00    +0.108 A 
ATOM     22  C   UNL     1      10.602   5.208  -0.070  0.00  0.00    +0.093 A 
ATOM     23  C   UNL     1      11.985   5.183  -0.083  0.00  0.00    +0.017 A 
ATOM     24  C   UNL     1      12.625   3.951  -0.095  0.00  0.00    +0.018 A 
ATOM     25  C   UNL     1      11.869   2.796  -0.094  0.00  0.00    +0.084 A 
ATOM     26  N   UNL     1      10.509   2.783  -0.075  0.00  0.00    -0.349 N 
ATOM     27  H   UNL     1       9.973   1.908  -0.066  0.00  0.00    +0.167 HD
BRANCH  22  28
ATOM     28  C   UNL     1       9.863   6.521  -0.057  0.00  0.00    +0.421 C 
ATOM     29  F   UNL     1      10.783   7.575  -0.060  0.00  0.00    -0.166 F 
ATOM     30  F   UNL     1       9.049   6.609  -1.191  0.00  0.00    -0.166 F 
ATOM     31  F   UNL     1       9.069   6.598   1.093  0.00  0.00    -0.166 F 
ENDBRANCH  22  28
ENDBRANCH  19  21
ENDBRANCH  18  19
ENDBRANCH  17  18
ENDBRANCH   4  17
TORSDOF 7
