REMARK  Name = ZINC67218138
REMARK  6 active torsions:
REMARK  status: ('A' for Active; 'I' for Inactive)
REMARK    1  A    between atoms: C_1  and  O_2
REMARK    2  A    between atoms: O_2  and  C_3
REMARK    3  A    between atoms: C_6  and  N_10
REMARK    4  A    between atoms: C_11  and  C_13
REMARK    5  A    between atoms: C_13  and  N_14
REMARK    6  A    between atoms: N_22  and  C_25
REMARK                            x       y       z     vdW  Elec       q    Type
REMARK                         _______ _______ _______ _____ _____    ______ ____
ROOT
ATOM      1  N   UNL     1      -5.513  -6.096  -0.308  0.00  0.00    -0.284 N 
ATOM      2  C   UNL     1      -5.898  -6.659  -1.534  0.00  0.00    +0.066 A 
ATOM      3  C   UNL     1      -5.984  -6.079  -2.797  0.00  0.00    +0.034 A 
ATOM      4  C   UNL     1      -6.384  -6.826  -3.849  0.00  0.00    +0.048 A 
ATOM      5  S   UNL     1      -6.667  -8.350  -3.198  0.00  0.00    -0.090 S 
ATOM      6  C   UNL     1      -6.254  -8.010  -1.510  0.00  0.00    +0.101 A 
ATOM      7  C   UNL     1      -6.225  -8.749  -0.324  0.00  0.00    +0.275 A 
ATOM      8  O   UNL     1      -6.538  -9.926  -0.321  0.00  0.00    -0.266 OA
ATOM      9  N   UNL     1      -5.843  -8.138   0.821  0.00  0.00    -0.228 N 
ATOM     10  C   UNL     1      -5.493  -6.840   0.809  0.00  0.00    +0.337 A 
ATOM     11  O   UNL     1      -5.149  -6.318   1.852  0.00  0.00    -0.246 OA
ENDROOT
BRANCH   9  12
ATOM     12  C   UNL     1      -5.807  -8.860   2.021  0.00  0.00    +0.054 A 
ATOM     13  C   UNL     1      -4.636  -9.493   2.417  0.00  0.00    +0.028 A 
ATOM     14  C   UNL     1      -4.603 -10.204   3.600  0.00  0.00    +0.022 A 
ATOM     15  C   UNL     1      -5.735 -10.287   4.391  0.00  0.00    +0.041 A 
ATOM     16  C   UNL     1      -6.904  -9.658   3.999  0.00  0.00    +0.022 A 
ATOM     17  C   UNL     1      -6.940  -8.940   2.819  0.00  0.00    +0.028 A 
ATOM     18 CL   UNL     1      -5.690 -11.182   5.878  0.00  0.00    -0.084 Cl
ENDBRANCH   9  12
BRANCH   1  19
ATOM     19  C   UNL     1      -5.125  -4.685  -0.247  0.00  0.00    +0.222 C 
BRANCH  19  21
ATOM     20  N   UNL     1      -3.058  -3.347  -0.481  0.00  0.00    -0.284 N 
ATOM     21  C   UNL     1      -3.643  -4.561  -0.490  0.00  0.00    +0.237 C 
ATOM     22  O   UNL     1      -2.977  -5.554  -0.695  0.00  0.00    -0.274 OA
ATOM     23  H   UNL     1      -3.574  -2.562  -0.240  0.00  0.00    +0.155 HD
BRANCH  20  27
ATOM     24  C   UNL     1       0.971  -2.966  -1.491  0.00  0.00    +0.138 A 
ATOM     25  C   UNL     1       0.204  -3.971  -2.063  0.00  0.00    +0.049 A 
ATOM     26  C   UNL     1      -1.130  -4.098  -1.729  0.00  0.00    +0.027 A 
ATOM     27  C   UNL     1      -1.704  -3.219  -0.820  0.00  0.00    +0.035 A 
ATOM     28  C   UNL     1      -0.937  -2.214  -0.246  0.00  0.00    +0.047 A 
ATOM     29  C   UNL     1       0.399  -2.091  -0.578  0.00  0.00    +0.084 A 
ATOM     30 CL   UNL     1       1.361  -0.839   0.143  0.00  0.00    -0.080 Cl
BRANCH  24  32
ATOM     31  C   UNL     1       2.806  -3.777  -2.767  0.00  0.00    +0.277 C 
ATOM     32  O   UNL     1       2.284  -2.842  -1.821  0.00  0.00    -0.494 OA
ENDBRANCH  24  32
ENDBRANCH  20  27
ENDBRANCH  19  21
ENDBRANCH   1  19
TORSDOF 5
