REMARK  Name = ZINC21672070
REMARK  7 active torsions:
REMARK  status: ('A' for Active; 'I' for Inactive)
REMARK    1  A    between atoms: C_1  and  C_2
REMARK    2  A    between atoms: C_5  and  C_7
REMARK    3  A    between atoms: C_7  and  C_8
REMARK    4  A    between atoms: N_10  and  N_11
REMARK    5  A    between atoms: C_12  and  C_14
REMARK    6  A    between atoms: C_14  and  N_15
REMARK    7  A    between atoms: C_24  and  C_26
REMARK                            x       y       z     vdW  Elec       q    Type
REMARK                         _______ _______ _______ _____ _____    ______ ____
ROOT
ATOM      1  C   UNL     1      -1.644  -0.281  -0.752  0.00  0.00    +0.022 C 
ENDROOT
BRANCH   1   2
ATOM      2  N   UNL     1      -0.317   0.138  -0.281  0.00  0.00    +0.396 N 
ATOM      3  C   UNL     1      -0.205   1.600  -0.259  0.00  0.00    -0.041 C 
ATOM      4  C   UNL     1       1.190   2.016   0.131  0.00  0.00    -0.061 A 
ATOM      5  C   UNL     1       1.395   3.319   0.560  0.00  0.00    +0.002 A 
ATOM      6  C   UNL     1       2.656   3.744   0.923  0.00  0.00    +0.000 A 
ATOM      7  C   UNL     1       3.723   2.867   0.858  0.00  0.00    +0.000 A 
ATOM      8  C   UNL     1       3.521   1.569   0.433  0.00  0.00    +0.004 A 
ATOM      9  C   UNL     1       2.253   1.141   0.070  0.00  0.00    -0.047 A 
ATOM     10  C   UNL     1       2.079  -0.285  -0.385  0.00  0.00    +0.029 C 
ATOM     11  C   UNL     1       0.746  -0.441  -1.117  0.00  0.00    +0.024 C 
ATOM     12  H   UNL     1      -0.196  -0.233   0.747  0.00  0.00    -0.080 HD
BRANCH  11  13
ATOM     13  C   UNL     1       0.463  -1.902  -1.357  0.00  0.00    +0.197 C 
ATOM     14  O   UNL     1      -0.070  -2.565  -0.493  0.00  0.00    -0.278 OA
ATOM     15  N   UNL     1       0.802  -2.470  -2.531  0.00  0.00    -0.331 N 
ATOM     16  H   UNL     1       0.595  -3.537  -2.705  0.00  0.00    +0.145 HD
ATOM     17  H   UNL     1       1.286  -1.868  -3.314  0.00  0.00    +0.145 HD
ENDBRANCH  11  13
ENDBRANCH   1   2
BRANCH   1  19
ATOM     18  N   UNL     1      -2.977  -0.131  -2.830  0.00  0.00    -0.236 N 
ATOM     19  C   UNL     1      -1.827   0.148  -2.185  0.00  0.00    +0.213 C 
ATOM     20  O   UNL     1      -0.940   0.744  -2.758  0.00  0.00    -0.276 OA
ATOM     21  H   UNL     1      -3.782  -0.671  -2.310  0.00  0.00    +0.173 HD
BRANCH  18  24
ATOM     22  C   UNL     1      -4.298  -0.011  -4.807  0.00  0.00    +0.235 C 
ATOM     23  O   UNL     1      -5.185  -0.607  -4.234  0.00  0.00    -0.274 OA
ATOM     24  N   UNL     1      -3.147   0.268  -4.162  0.00  0.00    -0.234 N 
ATOM     25  H   UNL     1      -2.342   0.808  -4.682  0.00  0.00    +0.173 HD
BRANCH  22  26
ATOM     26  C   UNL     1      -4.481   0.418  -6.240  0.00  0.00    +0.160 C 
BRANCH  26  31
ATOM     27  C   UNL     1      -9.391   0.884  -7.077  0.00  0.00    +0.066 C 
ATOM     28  C   UNL     1      -8.093   0.120  -7.143  0.00  0.00    +0.046 A 
ATOM     29  C   UNL     1      -8.043  -1.121  -7.690  0.00  0.00    +0.070 A 
ATOM     30  S   UNL     1      -6.308  -1.499  -7.490  0.00  0.00    -0.080 S 
ATOM     31  C   UNL     1      -5.842  -0.012  -6.723  0.00  0.00    +0.087 A 
ATOM     32  N   UNL     1      -6.981   0.639  -6.667  0.00  0.00    -0.249 NA
ENDBRANCH  26  31
ENDBRANCH  22  26
ENDBRANCH  18  24
ENDBRANCH   1  19
TORSDOF 6
