REMARK  Name = ZINC16922230
REMARK  6 active torsions:
REMARK  status: ('A' for Active; 'I' for Inactive)
REMARK    1  A    between atoms: C_6  and  C_7
REMARK    2  A    between atoms: N_11  and  C_15
REMARK    3  A    between atoms: C_15  and  C_16
REMARK    4  A    between atoms: N_18  and  C_19
REMARK    5  A    between atoms: C_21  and  C_27
REMARK    6  A    between atoms: C_23  and  C_25
REMARK                            x       y       z     vdW  Elec       q    Type
REMARK                         _______ _______ _______ _____ _____    ______ ____
ROOT
ATOM      1  C   UNL     1      -1.032  -0.009   1.897  0.00  0.00    +0.211 C 
ENDROOT
BRANCH   1   6
ATOM      2  C   UNL     1       1.800   3.279  -0.508  0.00  0.00    +0.028 C 
ATOM      3  C   UNL     1       1.474   2.096   0.071  0.00  0.00    +0.077 C 
ATOM      4  C   UNL     1       0.223   1.688   0.742  0.00  0.00    +0.259 C 
ATOM      5  O   UNL     1      -0.724   2.446   0.845  0.00  0.00    -0.269 OA
ATOM      6  N   UNL     1       0.182   0.456   1.221  0.00  0.00    -0.246 N 
ATOM      7  C   UNL     1       1.231  -0.382   1.100  0.00  0.00    +0.121 C 
ATOM      8  S   UNL     1       1.369  -1.998   1.649  0.00  0.00    -0.027 S 
ATOM      9  S   UNL     1       2.442   0.601   0.230  0.00  0.00    -0.061 S 
BRANCH   2  15
ATOM     10  C   UNL     1       4.215   2.684  -0.492  0.00  0.00    +0.011 A 
ATOM     11  C   UNL     1       5.516   2.939  -0.867  0.00  0.00    +0.039 A 
ATOM     12  C   UNL     1       5.813   4.053  -1.638  0.00  0.00    +0.123 A 
ATOM     13  C   UNL     1       4.804   4.914  -2.042  0.00  0.00    +0.039 A 
ATOM     14  C   UNL     1       3.498   4.669  -1.678  0.00  0.00    +0.011 A 
ATOM     15  C   UNL     1       3.191   3.547  -0.900  0.00  0.00    -0.024 A 
ATOM     16  F   UNL     1       7.092   4.300  -1.998  0.00  0.00    -0.205 F 
ENDBRANCH   2  15
ENDBRANCH   1   6
BRANCH   1  17
ATOM     17  C   UNL     1      -1.961  -0.633   0.889  0.00  0.00    +0.235 C 
ATOM     18  O   UNL     1      -1.642  -0.685  -0.280  0.00  0.00    -0.274 OA
ATOM     19  N   UNL     1      -3.148  -1.134   1.286  0.00  0.00    -0.284 N 
ATOM     20  H   UNL     1      -3.376  -1.151   2.229  0.00  0.00    +0.155 HD
BRANCH  19  21
ATOM     21  C   UNL     1      -4.051  -1.630   0.338  0.00  0.00    +0.035 A 
ATOM     22  C   UNL     1      -4.068  -1.101  -0.944  0.00  0.00    +0.038 A 
ATOM     23  C   UNL     1      -4.964  -1.596  -1.894  0.00  0.00    +0.066 A 
ATOM     24  C   UNL     1      -5.849  -2.616  -1.549  0.00  0.00    +0.030 A 
ATOM     25  C   UNL     1      -5.832  -3.142  -0.258  0.00  0.00    +0.066 A 
ATOM     26  C   UNL     1      -4.930  -2.645   0.685  0.00  0.00    +0.038 A 
BRANCH  25  27
ATOM     27  C   UNL     1      -6.769  -4.223   0.113  0.00  0.00    +0.387 C 
ATOM     28  O   UNL     1      -6.755  -4.680   1.238  0.00  0.00    -0.241 OA
ATOM     29  O   UNL     1      -7.639  -4.701  -0.797  0.00  0.00    -0.241 OA
ENDBRANCH  25  27
BRANCH  23  30
ATOM     30  C   UNL     1      -4.977  -1.036  -3.261  0.00  0.00    +0.387 C 
ATOM     31  O   UNL     1      -4.205  -0.147  -3.561  0.00  0.00    -0.241 OA
ATOM     32  O   UNL     1      -5.846  -1.511  -4.175  0.00  0.00    -0.241 OA
ENDBRANCH  23  30
ENDBRANCH  19  21
ENDBRANCH   1  17
TORSDOF 6
