REMARK  Name = ZINC48693129
REMARK  13 active torsions:
REMARK  status: ('A' for Active; 'I' for Inactive)
REMARK    1  A    between atoms: C_1  and  C_2
REMARK    2  A    between atoms: C_2  and  C_3
REMARK    3  A    between atoms: C_2  and  N_4
REMARK    4  A    between atoms: N_4  and  C_5
REMARK    5  A    between atoms: N_4  and  C_24
REMARK    6  A    between atoms: C_5  and  C_6
REMARK    7  A    between atoms: C_6  and  N_7
REMARK    8  A    between atoms: C_8  and  C_10
REMARK    9  A    between atoms: N_12  and  C_13
REMARK   10  A    between atoms: C_17  and  N_19
REMARK   11  A    between atoms: C_20  and  C_22
REMARK   12  A    between atoms: C_24  and  C_25
REMARK   13  A    between atoms: C_24  and  C_26
REMARK                            x       y       z     vdW  Elec       q    Type
REMARK                         _______ _______ _______ _____ _____    ______ ____
ROOT
ATOM      1  C   UNL     1       0.400   3.002   7.104  0.00  0.00    +0.303 C 
ATOM      2  O   UNL     1      -0.670   2.540   7.443  0.00  0.00    -0.265 OA
ATOM      3  N   UNL     1       1.119   3.744   7.969  0.00  0.00    -0.278 N 
ATOM      4  H   UNL     1       1.935   4.178   7.675  0.00  0.00    +0.155 HD
ENDROOT
BRANCH   3   5
ATOM      5  C   UNL     1       0.689   3.888   9.292  0.00  0.00    +0.036 A 
ATOM      6  C   UNL     1      -0.001   2.855   9.914  0.00  0.00    +0.026 A 
ATOM      7  C   UNL     1      -0.426   2.995  11.221  0.00  0.00    +0.042 A 
ATOM      8  C   UNL     1      -0.167   4.164  11.914  0.00  0.00    +0.145 A 
ATOM      9  C   UNL     1       0.524   5.201  11.296  0.00  0.00    +0.071 A 
ATOM     10  C   UNL     1       0.956   5.060   9.986  0.00  0.00    +0.049 A 
ATOM     11  F   UNL     1      -0.584   4.298  13.192  0.00  0.00    -0.204 F 
BRANCH   9  12
ATOM     12  N   UNL     1       0.786   6.385  11.997  0.00  0.00    -0.283 N 
ATOM     13  C   UNL     1       1.008   7.531  11.324  0.00  0.00    +0.214 C 
ATOM     14  O   UNL     1       0.882   7.561  10.118  0.00  0.00    -0.276 OA
ATOM     15  C   UNL     1       1.411   8.777  12.070  0.00  0.00    +0.109 C 
ATOM     16  H   UNL     1       0.809   6.379  12.966  0.00  0.00    +0.155 HD
ENDBRANCH   9  12
ENDBRANCH   3   5
BRANCH   1  18
ATOM     17  N   UNL     1       0.200   2.008   4.861  0.00  0.00    -0.309 N 
ATOM     18  C   UNL     1       0.919   2.749   5.726  0.00  0.00    +0.299 C 
ATOM     19  O   UNL     1       1.988   3.212   5.386  0.00  0.00    -0.265 OA
ATOM     20  H   UNL     1      -0.655   1.638   5.132  0.00  0.00    +0.149 HD
BRANCH  17  21
ATOM     21  C   UNL     1       0.709   1.760   3.510  0.00  0.00    +0.086 C 
BRANCH  21  22
ATOM     22  C   UNL     1      -0.292   0.898   2.738  0.00  0.00    -0.059 C 
BRANCH  22  23
ATOM     23  N   UNL     1       0.237   0.616   1.396  0.00  0.00    +0.384 N 
ATOM     24  H   UNL     1       0.458   1.484   0.933  0.00  0.00    -0.081 HD
BRANCH  23  26
ATOM     25  C   UNL     1      -2.049   0.724   0.524  0.00  0.00    -0.014 C 
ATOM     26  C   UNL     1      -0.771  -0.113   0.616  0.00  0.00    -0.074 C 
ATOM     27  C   UNL     1      -0.233  -0.378  -0.792  0.00  0.00    -0.014 C 
ENDBRANCH  23  26
BRANCH  23  28
ATOM     28  C   UNL     1       1.452  -0.201   1.511  0.00  0.00    -0.074 C 
ATOM     29  C   UNL     1       1.065  -1.675   1.646  0.00  0.00    -0.014 C 
ATOM     30  C   UNL     1       2.313  -0.013   0.261  0.00  0.00    -0.014 C 
ENDBRANCH  23  28
ENDBRANCH  22  23
ENDBRANCH  21  22
ENDBRANCH  17  21
ENDBRANCH   1  18
TORSDOF 8
