REMARK  Name = ZINC63137190
REMARK  6 active torsions:
REMARK  status: ('A' for Active; 'I' for Inactive)
REMARK    1  A    between atoms: C_1  and  O_2
REMARK    2  A    between atoms: O_2  and  C_3
REMARK    3  A    between atoms: C_7  and  C_11
REMARK    4  A    between atoms: C_8  and  O_9
REMARK    5  A    between atoms: O_9  and  C_10
REMARK    6  A    between atoms: N_30  and  C_33
REMARK                            x       y       z     vdW  Elec       q    Type
REMARK                         _______ _______ _______ _____ _____    ______ ____
ROOT
ATOM      1  C   UNL     1       1.186  -3.904   2.699  0.00  0.00    +0.137 C 
ATOM      2  C   UNL     1       2.335  -4.634   2.004  0.00  0.00    +0.131 C 
ATOM      3  C   UNL     1       3.600  -4.238   2.762  0.00  0.00    -0.034 C 
ATOM      4  C   UNL     1       4.390  -3.623   1.893  0.00  0.00    -0.001 A 
ATOM      5  C   UNL     1       5.739  -3.049   2.030  0.00  0.00    +0.010 A 
ATOM      6  C   UNL     1       6.265  -2.479   0.914  0.00  0.00    +0.001 A 
ATOM      7  C   UNL     1       5.592  -2.423  -0.311  0.00  0.00    +0.002 A 
ATOM      8  C   UNL     1       4.351  -2.926  -0.528  0.00  0.00    +0.026 A 
ATOM      9  C   UNL     1       3.695  -3.553   0.572  0.00  0.00    +0.043 A 
ATOM     10  N   UNL     1       2.511  -4.130   0.635  0.00  0.00    -0.375 N 
ATOM     11  C   UNL     1       3.755  -4.534   4.228  0.00  0.00    +0.065 C 
ATOM     12  C   UNL     1       2.456  -4.266   4.944  0.00  0.00    +0.167 C 
ATOM     13  N   UNL     1       1.277  -4.004   4.148  0.00  0.00    -0.279 N 
ATOM     14  C   UNL     1       0.126  -3.778   4.862  0.00  0.00    +0.234 C 
ATOM     15  O   UNL     1      -0.942  -3.614   4.310  0.00  0.00    -0.274 OA
ATOM     16  C   UNL     1       0.252  -3.745   6.371  0.00  0.00    +0.204 C 
ATOM     17  N   UNL     1       1.445  -2.954   6.723  0.00  0.00    -0.288 N 
ATOM     18  C   UNL     1       2.582  -3.220   6.022  0.00  0.00    +0.237 C 
ATOM     19  O   UNL     1       3.628  -2.653   6.253  0.00  0.00    -0.274 OA
ATOM     20  H   UNL     1       1.866  -4.209  -0.084  0.00  0.00    +0.160 HD
ENDROOT
BRANCH   1  25
ATOM     21  C   UNL     1       0.271  -0.592   1.111  0.00  0.00    +0.162 A 
ATOM     22  C   UNL     1       1.286   0.225   1.583  0.00  0.00    +0.049 A 
ATOM     23  C   UNL     1       2.262  -0.295   2.412  0.00  0.00    +0.004 A 
ATOM     24  C   UNL     1       2.229  -1.630   2.772  0.00  0.00    +0.009 A 
ATOM     25  C   UNL     1       1.219  -2.450   2.305  0.00  0.00    +0.021 A 
ATOM     26  C   UNL     1       0.234  -1.933   1.478  0.00  0.00    +0.166 A 
BRANCH  21  28
ATOM     27  C   UNL     1      -0.589   1.304  -0.039  0.00  0.00    +0.277 C 
ATOM     28  O   UNL     1      -0.691  -0.081   0.296  0.00  0.00    -0.491 OA
ENDBRANCH  21  28
BRANCH  26  29
ATOM     29  O   UNL     1      -0.764  -2.737   1.022  0.00  0.00    -0.491 OA
ATOM     30  C   UNL     1      -0.598  -3.302  -0.280  0.00  0.00    +0.277 C 
ENDBRANCH  26  29
ENDBRANCH   1  25
BRANCH  17  31
ATOM     31  C   UNL     1       1.409  -1.934   7.773  0.00  0.00    +0.077 C 
ATOM     32  C   UNL     1       1.020  -2.583   9.102  0.00  0.00    +0.022 C 
ATOM     33  C   UNL     1       0.983  -1.518  10.200  0.00  0.00    +0.002 C 
ATOM     34  C   UNL     1      -0.047  -0.446   9.835  0.00  0.00    +0.000 C 
ATOM     35  C   UNL     1       0.342   0.203   8.505  0.00  0.00    +0.002 C 
ATOM     36  C   UNL     1       0.380  -0.862   7.408  0.00  0.00    +0.022 C 
ENDBRANCH  17  31
TORSDOF 4
