REMARK  Name = ZINC39600892
REMARK  4 active torsions:
REMARK  status: ('A' for Active; 'I' for Inactive)
REMARK    1  A    between atoms: C_4  and  C_8
REMARK    2  A    between atoms: C_8  and  N_9
REMARK    3  A    between atoms: C_10  and  C_12
REMARK    4  A    between atoms: C_23  and  C_25
REMARK                            x       y       z     vdW  Elec       q    Type
REMARK                         _______ _______ _______ _____ _____    ______ ____
ROOT
ATOM      1  C   UNL     1       6.020  -1.397   2.938  0.00  0.00    +0.100 C 
ATOM      2  C   UNL     1       6.438   0.022   3.386  0.00  0.00    +0.121 C 
ATOM      3  N   UNL     1       7.682  -0.184   4.166  0.00  0.00    -0.300 N 
ATOM      4  C   UNL     1       8.415  -1.235   3.420  0.00  0.00    +0.115 C 
ATOM      5  C   UNL     1       7.320  -2.218   2.961  0.00  0.00    -0.004 C 
ATOM      6  C   UNL     1       7.637  -2.744   1.564  0.00  0.00    -0.010 C 
ATOM      7  C   UNL     1       8.901  -3.606   1.623  0.00  0.00    -0.082 C 
ATOM      8  N   UNL     1       8.693  -4.722   2.553  0.00  0.00    +0.379 N 
ATOM      9  C   UNL     1       8.481  -4.209   3.912  0.00  0.00    -0.082 C 
ATOM     10  C   UNL     1       7.199  -3.373   3.950  0.00  0.00    -0.010 C 
ATOM     11  C   UNL     1       8.061   0.443   5.297  0.00  0.00    +0.219 C 
ATOM     12  O   UNL     1       9.118   0.162   5.821  0.00  0.00    -0.275 OA
ATOM     13  H   UNL     1       7.883  -5.251   2.265  0.00  0.00    -0.086 HD
ATOM     14  H   UNL     1       9.504  -5.322   2.544  0.00  0.00    -0.086 HD
ENDROOT
BRANCH  11  15
ATOM     15  C   UNL     1       7.170   1.492   5.912  0.00  0.00    +0.079 C 
ATOM     16  C   UNL     1       7.832   2.054   7.176  0.00  0.00    +0.017 C 
ATOM     17  C   UNL     1       6.834   2.981   7.874  0.00  0.00    +0.027 C 
ATOM     18  C   UNL     1       6.258   3.954   6.888  0.00  0.00    -0.031 C 
ATOM     19  C   UNL     1       6.313   3.804   5.603  0.00  0.00    -0.030 C 
ATOM     20  C   UNL     1       6.965   2.638   4.918  0.00  0.00    +0.039 C 
ENDBRANCH  11  15
BRANCH   1  22
ATOM     21  N   UNL     1       4.531  -2.272   1.168  0.00  0.00    -0.311 N 
ATOM     22  C   UNL     1       5.447  -1.359   1.545  0.00  0.00    +0.218 C 
ATOM     23  O   UNL     1       5.811  -0.506   0.762  0.00  0.00    -0.275 OA
ATOM     24  H   UNL     1       4.240  -2.954   1.793  0.00  0.00    +0.149 HD
BRANCH  21  25
ATOM     25  C   UNL     1       3.974  -2.236  -0.187  0.00  0.00    +0.142 C 
BRANCH  25  29
ATOM     26  C   UNL     1       1.153  -5.412  -0.655  0.00  0.00    +0.018 A 
ATOM     27  C   UNL     1       0.780  -4.248  -0.009  0.00  0.00    +0.040 A 
ATOM     28  C   UNL     1       1.693  -3.218   0.143  0.00  0.00    +0.128 A 
ATOM     29  C   UNL     1       2.979  -3.356  -0.352  0.00  0.00    +0.006 A 
ATOM     30  C   UNL     1       3.350  -4.520  -0.997  0.00  0.00    +0.023 A 
ATOM     31  C   UNL     1       2.437  -5.548  -1.149  0.00  0.00    +0.018 A 
ATOM     32 BR   UNL     1       2.946  -7.141  -2.032  0.00  0.00    -0.050 Br
ATOM     33  F   UNL     1       1.330  -2.080   0.774  0.00  0.00    -0.205 F 
ENDBRANCH  25  29
ENDBRANCH  21  25
ENDBRANCH   1  22
TORSDOF 4
