REMARK  Name = ZINC01140972
REMARK  5 active torsions:
REMARK  status: ('A' for Active; 'I' for Inactive)
REMARK    1  A    between atoms: C_1  and  C_2
REMARK    2  A    between atoms: C_2  and  C_3
REMARK    3  A    between atoms: C_15  and  S_18
REMARK    4  A    between atoms: S_18  and  C_19
REMARK    5  A    between atoms: C_21  and  C_23
REMARK                            x       y       z     vdW  Elec       q    Type
REMARK                         _______ _______ _______ _____ _____    ______ ____
ROOT
ATOM      1  C   UNL     1       0.880  -0.215  -2.344  0.00  0.00    +0.223 C 
ATOM      2  O   UNL     1       1.377   0.101  -3.404  0.00  0.00    -0.275 OA
ATOM      3  N   UNL     1       1.491   0.115  -1.188  0.00  0.00    -0.230 N 
ATOM      4  C   UNL     1       0.928  -0.244   0.044  0.00  0.00    +0.049 A 
ATOM      5  C   UNL     1       0.882  -1.562   0.458  0.00  0.00    +0.024 A 
ATOM      6  C   UNL     1       0.352  -1.877   1.696  0.00  0.00    +0.002 A 
ATOM      7  C   UNL     1      -0.134  -0.879   2.523  0.00  0.00    +0.001 A 
ATOM      8  C   UNL     1      -0.101   0.441   2.121  0.00  0.00    +0.012 A 
ATOM      9  C   UNL     1       0.424   0.771   0.877  0.00  0.00    +0.029 A 
ATOM     10  C   UNL     1       0.466   2.169   0.401  0.00  0.00    +0.156 A 
ATOM     11  C   UNL     1       1.660   2.682  -0.154  0.00  0.00    +0.248 A 
ATOM     12  N   UNL     1       1.675   3.932  -0.585  0.00  0.00    -0.184 NA
ATOM     13  C   UNL     1       0.573   4.670  -0.479  0.00  0.00    +0.212 A 
ATOM     14  N   UNL     1      -0.536   4.171   0.052  0.00  0.00    -0.122 NA
ATOM     15  N   UNL     1      -0.597   2.956   0.477  0.00  0.00    -0.141 NA
ATOM     16  O   UNL     1       2.760   1.896  -0.232  0.00  0.00    -0.448 OA
ATOM     17  C   UNL     1       2.752   0.851  -1.198  0.00  0.00    +0.304 C 
ENDROOT
BRANCH  17  18
ATOM     18  C   UNL     1       3.879  -0.102  -0.897  0.00  0.00    +0.029 A 
ATOM     19  C   UNL     1       4.072  -0.559   0.394  0.00  0.00    +0.059 A 
ATOM     20  C   UNL     1       5.107  -1.435   0.672  0.00  0.00    +0.167 A 
ATOM     21  C   UNL     1       5.955  -1.855  -0.351  0.00  0.00    +0.167 A 
ATOM     22  C   UNL     1       5.757  -1.394  -1.642  0.00  0.00    +0.065 A 
ATOM     23  C   UNL     1       4.717  -0.523  -1.914  0.00  0.00    +0.030 A 
ATOM     24 BR   UNL     1       4.444   0.099  -3.679  0.00  0.00    -0.050 Br
ATOM     25  O   UNL     1       6.883  -2.707   0.174  0.00  0.00    -0.453 OA
ATOM     26  C   UNL     1       6.849  -2.485   1.596  0.00  0.00    +0.466 C 
ATOM     27  O   UNL     1       5.506  -2.024   1.838  0.00  0.00    -0.453 OA
ENDBRANCH  17  18
BRANCH   1  29
ATOM     28  C   UNL     1      -0.897  -1.220  -3.751  0.00  0.00    +0.013 C 
ATOM     29  C   UNL     1      -0.420  -0.976  -2.318  0.00  0.00    +0.093 C 
ENDBRANCH   1  29
BRANCH  13  30
ATOM     30  S   UNL     1       0.587   6.336  -1.052  0.00  0.00    -0.088 S 
ATOM     31  C   UNL     1      -1.114   6.816  -0.663  0.00  0.00    +0.093 C 
ENDBRANCH  13  30
TORSDOF 3
