REMARK  Name = ZINC13223380
REMARK  8 active torsions:
REMARK  status: ('A' for Active; 'I' for Inactive)
REMARK    1  A    between atoms: C_1  and  C_2
REMARK    2  A    between atoms: C_5  and  N_8
REMARK    3  A    between atoms: C_12  and  S_13
REMARK    4  A    between atoms: S_13  and  C_14
REMARK    5  A    between atoms: C_14  and  C_15
REMARK    6  A    between atoms: N_17  and  C_18
REMARK    7  A    between atoms: C_20  and  C_26
REMARK    8  A    between atoms: C_22  and  C_24
REMARK                            x       y       z     vdW  Elec       q    Type
REMARK                         _______ _______ _______ _____ _____    ______ ____
ROOT
ATOM      1  S   UNL     1      -3.909   1.879   0.119  0.00  0.00    -0.076 S 
ENDROOT
BRANCH   1   6
ATOM      2  N   UNL     1      -6.606   1.164   0.292  0.00  0.00    -0.259 N 
ATOM      3  C   UNL     1      -7.361   0.029   0.407  0.00  0.00    +0.225 A 
ATOM      4  N   UNL     1      -6.547  -0.997   0.444  0.00  0.00    -0.112 NA
ATOM      5  N   UNL     1      -5.235  -0.514   0.345  0.00  0.00    -0.120 NA
ATOM      6  C   UNL     1      -5.289   0.792   0.259  0.00  0.00    +0.198 A 
ATOM      7  N   UNL     1      -8.748  -0.027   0.474  0.00  0.00    -0.299 N 
ATOM      8  C   UNL     1      -9.361   0.500  -0.772  0.00  0.00    +0.108 C 
ATOM      9  C   UNL     1     -10.787  -0.107  -0.749  0.00  0.00    +0.020 C 
ATOM     10  C   UNL     1     -10.551  -1.520  -0.168  0.00  0.00    +0.020 C 
ATOM     11  C   UNL     1      -9.217  -1.424   0.595  0.00  0.00    +0.108 C 
BRANCH   2  16
ATOM     12  C   UNL     1      -8.586   6.476   0.001  0.00  0.00    +0.044 C 
ATOM     13  C   UNL     1      -8.061   5.066   0.078  0.00  0.00    -0.050 A 
ATOM     14  C   UNL     1      -7.395   4.517  -1.002  0.00  0.00    +0.005 A 
ATOM     15  C   UNL     1      -6.911   3.225  -0.934  0.00  0.00    +0.026 A 
ATOM     16  C   UNL     1      -7.095   2.477   0.220  0.00  0.00    +0.052 A 
ATOM     17  C   UNL     1      -7.769   3.028   1.301  0.00  0.00    +0.026 A 
ATOM     18  C   UNL     1      -8.246   4.322   1.229  0.00  0.00    +0.005 A 
ENDBRANCH   2  16
ENDBRANCH   1   6
BRANCH   1  19
ATOM     19  C   UNL     1      -2.474   0.770   0.133  0.00  0.00    +0.173 C 
BRANCH  19  20
ATOM     20  C   UNL     1      -1.210   1.582   0.018  0.00  0.00    +0.227 C 
ATOM     21  O   UNL     1      -1.271   2.791  -0.067  0.00  0.00    -0.275 OA
ATOM     22  N   UNL     1      -0.011   0.966   0.007  0.00  0.00    -0.285 N 
ATOM     23  H   UNL     1       0.036  -0.003   0.007  0.00  0.00    +0.155 HD
BRANCH  22  24
ATOM     24  C   UNL     1       1.166   1.724  -0.008  0.00  0.00    +0.035 A 
ATOM     25  C   UNL     1       1.209   2.920  -0.710  0.00  0.00    +0.038 A 
ATOM     26  C   UNL     1       2.379   3.681  -0.724  0.00  0.00    +0.066 A 
ATOM     27  C   UNL     1       3.508   3.233  -0.040  0.00  0.00    +0.030 A 
ATOM     28  C   UNL     1       3.463   2.028   0.659  0.00  0.00    +0.066 A 
ATOM     29  C   UNL     1       2.287   1.275   0.673  0.00  0.00    +0.038 A 
BRANCH  28  30
ATOM     30  C   UNL     1       4.657   1.549   1.386  0.00  0.00    +0.387 C 
ATOM     31  O   UNL     1       4.616   0.499   1.995  0.00  0.00    -0.241 OA
ATOM     32  O   UNL     1       5.790   2.277   1.372  0.00  0.00    -0.241 OA
ENDBRANCH  28  30
BRANCH  26  33
ATOM     33  C   UNL     1       2.423   4.958  -1.466  0.00  0.00    +0.387 C 
ATOM     34  O   UNL     1       1.438   5.348  -2.062  0.00  0.00    -0.241 OA
ATOM     35  O   UNL     1       3.554   5.689  -1.483  0.00  0.00    -0.241 OA
ENDBRANCH  26  33
ENDBRANCH  22  24
ENDBRANCH  19  20
ENDBRANCH   1  19
TORSDOF 7
