REMARK  Name = ZINC53097224
REMARK  9 active torsions:
REMARK  status: ('A' for Active; 'I' for Inactive)
REMARK    1  A    between atoms: C_3  and  O_8
REMARK    2  A    between atoms: O_8  and  C_9
REMARK    3  A    between atoms: C_9  and  C_10
REMARK    4  A    between atoms: C_10  and  C_12
REMARK    5  A    between atoms: C_10  and  O_22
REMARK    6  A    between atoms: C_12  and  N_13
REMARK    7  A    between atoms: N_13  and  C_14
REMARK    8  A    between atoms: C_14  and  C_20
REMARK    9  A    between atoms: C_20  and  O_21
REMARK                            x       y       z     vdW  Elec       q    Type
REMARK                         _______ _______ _______ _____ _____    ______ ____
ROOT
ATOM      1  C   UNL     1       7.247   1.479  -0.186  0.00  0.00    -0.047 C 
ENDROOT
BRANCH   1   2
ATOM      2  N   UNL     1       8.400   2.389  -0.193  0.00  0.00    +0.386 N 
ATOM      3  H   UNL     1       8.319   3.030  -0.968  0.00  0.00    -0.085 HD
ATOM      4  H   UNL     1       8.424   2.909   0.672  0.00  0.00    -0.085 HD
BRANCH   2   5
ATOM      5  C   UNL     1       9.638   1.611  -0.329  0.00  0.00    -0.045 C 
ATOM      6  C   UNL     1       9.603   0.823  -1.640  0.00  0.00    -0.010 C 
ATOM      7  C   UNL     1       9.479   1.794  -2.816  0.00  0.00    -0.001 C 
ATOM      8  C   UNL     1      10.680   2.742  -2.823  0.00  0.00    -0.000 C 
ATOM      9  C   UNL     1      10.715   3.530  -1.512  0.00  0.00    -0.001 C 
ATOM     10  C   UNL     1      10.839   2.559  -0.336  0.00  0.00    -0.010 C 
BRANCH   5  11
ATOM     11  C   UNL     1       9.762   0.639   0.846  0.00  0.00    +0.143 C 
BRANCH  11  12
ATOM     12  O   UNL     1      10.966  -0.118   0.713  0.00  0.00    -0.396 OA
ATOM     13  H   UNL     1      11.110  -0.756   1.426  0.00  0.00    +0.209 HD
ENDBRANCH  11  12
ENDBRANCH   5  11
ENDBRANCH   2   5
ENDBRANCH   1   2
BRANCH   1  14
ATOM     14  C   UNL     1       5.958   2.291  -0.043  0.00  0.00    +0.135 C 
BRANCH  14  15
ATOM     15  O   UNL     1       5.991   3.026   1.181  0.00  0.00    -0.390 OA
ATOM     16  H   UNL     1       6.069   2.473   1.970  0.00  0.00    +0.210 HD
ENDBRANCH  14  15
BRANCH  14  17
ATOM     17  C   UNL     1       4.757   1.343  -0.037  0.00  0.00    +0.258 C 
BRANCH  17  18
ATOM     18  O   UNL     1       3.548   2.105  -0.021  0.00  0.00    -0.489 OA
BRANCH  18  21
ATOM     19  C   UNL     1      -0.017   1.378   0.010  0.00  0.00    +0.005 A 
ATOM     20  C   UNL     1       1.170   2.087   0.002  0.00  0.00    +0.046 A 
ATOM     21  C   UNL     1       2.381   1.410  -0.013  0.00  0.00    +0.122 A 
ATOM     22  C   UNL     1       2.398   0.023  -0.021  0.00  0.00    +0.061 A 
ATOM     23  C   UNL     1       1.208  -0.682  -0.013  0.00  0.00    +0.021 A 
ATOM     24  C   UNL     1       0.002  -0.004   0.002  0.00  0.00    +0.015 A 
ATOM     25 BR   UNL     1       1.230  -2.573  -0.024  0.00  0.00    -0.050 Br
ENDBRANCH  18  21
ENDBRANCH  17  18
ENDBRANCH  14  17
ENDBRANCH   1  14
TORSDOF 9
