REMARK  Name = ZINC63279228
REMARK  3 active torsions:
REMARK  status: ('A' for Active; 'I' for Inactive)
REMARK    1  A    between atoms: C_1  and  C_2
REMARK    2  A    between atoms: N_4  and  C_5
REMARK    3  A    between atoms: C_8  and  C_11
REMARK                            x       y       z     vdW  Elec       q    Type
REMARK                         _______ _______ _______ _____ _____    ______ ____
ROOT
ATOM      1  C   UNL     1      -1.455  -6.317  -0.222  0.00  0.00    +0.018 C 
ATOM      2  C   UNL     1      -2.650  -6.923  -0.395  0.00  0.00    +0.038 C 
ATOM      3  C   UNL     1      -3.961  -6.156  -0.429  0.00  0.00    +0.268 C 
ATOM      4  O   UNL     1      -4.675  -6.537  -1.605  0.00  0.00    -0.485 OA
ATOM      5  C   UNL     1      -4.802  -7.847  -1.919  0.00  0.00    +0.146 A 
ATOM      6  C   UNL     1      -3.896  -8.810  -1.457  0.00  0.00    +0.065 A 
ATOM      7  C   UNL     1      -4.042 -10.148  -1.815  0.00  0.00    +0.015 A 
ATOM      8  C   UNL     1      -5.095 -10.529  -2.621  0.00  0.00    +0.002 A 
ATOM      9  C   UNL     1      -6.000  -9.582  -3.071  0.00  0.00    +0.019 A 
ATOM     10  C   UNL     1      -5.860  -8.252  -2.727  0.00  0.00    +0.060 A 
ATOM     11 BR   UNL     1      -7.108  -6.979  -3.355  0.00  0.00    -0.046 Br
ATOM     12  C   UNL     1      -2.785  -8.387  -0.572  0.00  0.00    +0.196 C 
ATOM     13  O   UNL     1      -2.041  -9.185  -0.030  0.00  0.00    -0.287 OA
ENDROOT
BRANCH   1  17
ATOM     14  C   UNL     1      -1.292  -2.196   0.767  0.00  0.00    +0.033 A 
ATOM     15  C   UNL     1      -0.356  -2.736  -0.110  0.00  0.00    +0.024 A 
ATOM     16  C   UNL     1      -0.405  -4.073  -0.433  0.00  0.00    +0.010 A 
ATOM     17  C   UNL     1      -1.398  -4.889   0.121  0.00  0.00    -0.024 A 
ATOM     18  C   UNL     1      -2.338  -4.341   1.003  0.00  0.00    +0.010 A 
ATOM     19  C   UNL     1      -2.278  -3.005   1.325  0.00  0.00    +0.024 A 
BRANCH  14  23
ATOM     20  C   UNL     1      -0.912   1.534   0.482  0.00  0.00    +0.109 C 
ATOM     21  C   UNL     1      -0.873   0.062   0.161  0.00  0.00    +0.214 C 
ATOM     22  O   UNL     1      -0.512  -0.310  -0.935  0.00  0.00    -0.276 OA
ATOM     23  N   UNL     1      -1.238  -0.841   1.093  0.00  0.00    -0.286 N 
ATOM     24  H   UNL     1      -1.464  -0.548   1.989  0.00  0.00    +0.155 HD
ENDBRANCH  14  23
ENDBRANCH   1  17
TORSDOF 2
