REMARK  Name = ZINC35844107
REMARK  4 active torsions:
REMARK  status: ('A' for Active; 'I' for Inactive)
REMARK    1  A    between atoms: C_1  and  C_2
REMARK    2  A    between atoms: C_4  and  C_37
REMARK    3  A    between atoms: N_21  and  C_24
REMARK    4  A    between atoms: C_28  and  N_30
REMARK                            x       y       z     vdW  Elec       q    Type
REMARK                         _______ _______ _______ _____ _____    ______ ____
ROOT
ATOM      1  C   UNL     1      -0.018   1.503   0.010  0.00  0.00    +0.044 C 
ATOM      2  C   UNL     1       0.002  -0.004   0.002  0.00  0.00    -0.050 A 
ATOM      3  C   UNL     1       0.006  -0.690  -1.199  0.00  0.00    +0.008 A 
ATOM      4  C   UNL     1       0.025  -2.069  -1.208  0.00  0.00    -0.029 A 
ATOM      5  C   UNL     1       0.042  -2.780  -0.011  0.00  0.00    +0.042 A 
ATOM      6  C   UNL     1       0.036  -2.081   1.194  0.00  0.00    +0.004 A 
ATOM      7  C   UNL     1       0.023  -0.703   1.195  0.00  0.00    +0.011 A 
ATOM      8  C   UNL     1       0.060  -3.123   2.271  0.00  0.00    +0.138 C 
ATOM      9  C   UNL     1       1.242  -2.978   3.215  0.00  0.00    +0.123 C 
ATOM     10  C   UNL     1       0.660  -1.786   4.069  0.00  0.00    +0.107 C 
ATOM     11  C   UNL     1      -0.730  -2.178   4.355  0.00  0.00    +0.071 C 
ATOM     12  N   UNL     1      -1.107  -3.036   3.172  0.00  0.00    -0.281 NA
ATOM     13  C   UNL     1      -2.321  -2.529   2.548  0.00  0.00    +0.086 C 
ATOM     14  C   UNL     1      -2.921  -1.489   3.521  0.00  0.00    +0.017 C 
ATOM     15  C   UNL     1      -1.673  -0.953   4.293  0.00  0.00    +0.021 C 
ATOM     16  C   UNL     1       1.837  -1.302   4.750  0.00  0.00    +0.232 C 
ATOM     17  O   UNL     1       1.907  -0.835   5.866  0.00  0.00    -0.274 OA
ATOM     18  N   UNL     1       2.860  -1.489   3.852  0.00  0.00    -0.210 N 
ATOM     19  C   UNL     1       2.509  -2.302   2.793  0.00  0.00    +0.233 C 
ATOM     20  O   UNL     1       3.095  -2.440   1.741  0.00  0.00    -0.274 OA
ATOM     21  C   UNL     1       0.079  -4.442   1.544  0.00  0.00    +0.243 C 
ATOM     22  O   UNL     1       0.103  -5.546   2.046  0.00  0.00    -0.273 OA
ATOM     23  N   UNL     1       0.065  -4.156   0.229  0.00  0.00    -0.283 N 
ATOM     24  C   UNL     1       0.028  -2.810  -2.521  0.00  0.00    +0.045 C 
ATOM     25  H   UNL     1       0.070  -4.828  -0.471  0.00  0.00    +0.155 HD
ENDROOT
BRANCH  18  26
ATOM     26  C   UNL     1       4.135  -0.924   4.000  0.00  0.00    +0.046 A 
ATOM     27  C   UNL     1       5.114  -1.157   3.043  0.00  0.00    +0.025 A 
ATOM     28  C   UNL     1       6.368  -0.599   3.191  0.00  0.00    +0.024 A 
ATOM     29  C   UNL     1       6.651   0.191   4.291  0.00  0.00    +0.071 A 
ATOM     30  C   UNL     1       5.677   0.424   5.246  0.00  0.00    +0.146 A 
ATOM     31  C   UNL     1       4.418  -0.126   5.100  0.00  0.00    +0.058 A 
ATOM     32 CL   UNL     1       8.229   0.891   4.474  0.00  0.00    -0.081 Cl
BRANCH  30  33
ATOM     33  N   UNL     1       5.982   1.270   6.423  0.00  0.00    +0.058 N 
ATOM     34  O   UNL     1       5.131   1.474   7.257  0.00  0.00    -0.126 OA
ATOM     35  O   UNL     1       7.082   1.756   6.549  0.00  0.00    -0.126 OA
ENDBRANCH  30  33
ENDBRANCH  18  26
TORSDOF 2
