REMARK  Name = ZINC03777839
REMARK  9 active torsions:
REMARK  status: ('A' for Active; 'I' for Inactive)
REMARK    1  A    between atoms: C_1  and  C_2
REMARK    2  A    between atoms: C_2  and  C_3
REMARK    3  A    between atoms: C_4  and  C_11
REMARK    4  A    between atoms: C_5  and  N_10
REMARK    5  A    between atoms: C_14  and  N_20
REMARK    6  A    between atoms: C_15  and  N_17
REMARK    7  A    between atoms: N_20  and  C_21
REMARK    8  A    between atoms: N_20  and  C_22
REMARK    9  A    between atoms: C_22  and  C_23
REMARK                            x       y       z     vdW  Elec       q    Type
REMARK                         _______ _______ _______ _____ _____    ______ ____
ROOT
ATOM      1  C   UNL     1      -1.271  -0.352  -2.600  0.00  0.00    -0.011 A 
ATOM      2  C   UNL     1      -0.774   0.932  -2.822  0.00  0.00    +0.010 A 
ATOM      3  C   UNL     1      -0.081   1.210  -3.981  0.00  0.00    +0.026 A 
ATOM      4  C   UNL     1       0.122   0.213  -4.928  0.00  0.00    +0.060 A 
ATOM      5  C   UNL     1      -0.374  -1.067  -4.709  0.00  0.00    +0.148 A 
ATOM      6  C   UNL     1      -1.062  -1.352  -3.548  0.00  0.00    +0.043 A 
ENDROOT
BRANCH   1   8
ATOM      7  C   UNL     1      -1.371  -0.672  -0.120  0.00  0.00    +0.029 A 
ATOM      8  C   UNL     1      -2.017  -0.654  -1.354  0.00  0.00    +0.041 A 
ATOM      9  C   UNL     1      -3.397  -0.930  -1.387  0.00  0.00    +0.129 A 
ATOM     10  N   UNL     1      -4.025  -1.195  -0.248  0.00  0.00    -0.201 NA
ATOM     11  C   UNL     1      -3.368  -1.200   0.902  0.00  0.00    +0.192 A 
ATOM     12  N   UNL     1      -2.069  -0.951   0.969  0.00  0.00    -0.331 N 
ATOM     13  N   UNL     1      -4.059  -1.481   2.068  0.00  0.00    -0.329 N 
ATOM     14  H   UNL     1      -5.010  -1.669   2.036  0.00  0.00    +0.145 HD
ATOM     15  H   UNL     1      -3.592  -1.489   2.919  0.00  0.00    +0.145 HD
ATOM     16  H   UNL     1      -1.623  -0.968   1.830  0.00  0.00    +0.168 HD
BRANCH   9  17
ATOM     17  N   UNL     1      -4.087  -0.924  -2.587  0.00  0.00    -0.343 N 
ATOM     18  H   UNL     1      -3.619  -0.729  -3.414  0.00  0.00    +0.144 HD
ATOM     19  H   UNL     1      -5.037  -1.115  -2.600  0.00  0.00    +0.144 HD
ENDBRANCH   9  17
BRANCH   7  21
ATOM     20  C   UNL     1       0.893  -1.671  -0.283  0.00  0.00    +0.010 C 
ATOM     21  C   UNL     1       0.106  -0.384  -0.028  0.00  0.00    +0.050 C 
ENDBRANCH   7  21
ENDBRANCH   1   8
BRANCH   5  22
ATOM     22  N   UNL     1      -0.157  -2.127  -5.719  0.00  0.00    +0.058 N 
ATOM     23  O   UNL     1      -0.588  -3.240  -5.529  0.00  0.00    -0.126 OA
ATOM     24  O   UNL     1       0.450  -1.879  -6.735  0.00  0.00    -0.126 OA
ENDBRANCH   5  22
BRANCH   4  25
ATOM     25  N   UNL     1       0.824   0.497  -6.101  0.00  0.00    -0.327 N 
ATOM     26  C   UNL     1       2.278   0.325  -6.145  0.00  0.00    +0.129 C 
BRANCH  25  27
ATOM     27  C   UNL     1       0.106   0.969  -7.288  0.00  0.00    +0.140 C 
BRANCH  27  28
ATOM     28  C   UNL     1       0.032   2.474  -7.266  0.00  0.00    -0.030 A 
ATOM     29  C   UNL     1      -1.032   3.105  -6.650  0.00  0.00    +0.005 A 
ATOM     30  C   UNL     1      -1.099   4.485  -6.629  0.00  0.00    +0.000 A 
ATOM     31  C   UNL     1      -0.102   5.235  -7.225  0.00  0.00    +0.000 A 
ATOM     32  C   UNL     1       0.962   4.604  -7.841  0.00  0.00    +0.000 A 
ATOM     33  C   UNL     1       1.032   3.223  -7.857  0.00  0.00    +0.005 A 
ENDBRANCH  27  28
ENDBRANCH  25  27
ENDBRANCH   4  25
TORSDOF 7
