REMARK  Name = ZINC21664116
REMARK  2 active torsions:
REMARK  status: ('A' for Active; 'I' for Inactive)
REMARK    1  A    between atoms: C_4  and  N_7
REMARK    2  A    between atoms: C_13  and  C_15
REMARK                            x       y       z     vdW  Elec       q    Type
REMARK                         _______ _______ _______ _____ _____    ______ ____
ROOT
ATOM      1  C   UNL     1      -0.872   7.989   1.080  0.00  0.00    +0.078 C 
ATOM      2  C   UNL     1      -2.067   7.032   1.064  0.00  0.00    +0.032 C 
ATOM      3  C   UNL     1      -1.563   5.591   1.173  0.00  0.00    +0.108 C 
ATOM      4  N   UNL     1      -0.665   5.300   0.049  0.00  0.00    -0.308 N 
ATOM      5  C   UNL     1       0.515   6.175   0.070  0.00  0.00    +0.108 C 
ATOM      6  C   UNL     1       0.072   7.633  -0.072  0.00  0.00    +0.032 C 
ATOM      7  C   UNL     1      -0.293   3.966   0.044  0.00  0.00    +0.184 A 
ATOM      8  N   UNL     1       0.906   3.448   0.041  0.00  0.00    -0.139 NA
ATOM      9  N   UNL     1       1.100   2.070   0.035  0.00  0.00    -0.169 N 
ATOM     10  C   UNL     1       2.290   1.404   0.032  0.00  0.00    +0.279 A 
ATOM     11  O   UNL     1       3.338   2.032   0.035  0.00  0.00    -0.265 OA
ATOM     12  C   UNL     1       2.317   0.003   0.022  0.00  0.00    +0.040 A 
ATOM     13  C   UNL     1       1.134  -0.692   0.023  0.00  0.00    +0.053 A 
ATOM     14  N   UNL     1      -0.013  -0.009   0.028  0.00  0.00    -0.226 NA
ATOM     15  C   UNL     1      -0.028   1.298   0.033  0.00  0.00    +0.201 A 
ATOM     16  S   UNL     1      -1.329   2.512   0.046  0.00  0.00    -0.013 S 
ATOM     17  C   UNL     1       1.069  -2.195   0.022  0.00  0.00    +0.056 C 
ATOM     18  C   UNL     1       2.409  -2.789  -0.410  0.00  0.00    +0.006 C 
ATOM     19  C   UNL     1       3.518  -2.144   0.431  0.00  0.00    +0.005 C 
ATOM     20  C   UNL     1       3.658  -0.683   0.008  0.00  0.00    +0.042 C 
ENDROOT
BRANCH   1  27
ATOM     21  N   UNL     1       1.032  12.536   1.957  0.00  0.00    -0.296 NA
ATOM     22  C   UNL     1      -0.121  12.725   1.066  0.00  0.00    +0.103 C 
ATOM     23  C   UNL     1      -1.253  11.786   1.495  0.00  0.00    +0.123 C 
ATOM     24  N   UNL     1      -0.727  10.414   1.548  0.00  0.00    -0.299 N 
ATOM     25  C   UNL     1       0.504  10.169   2.316  0.00  0.00    +0.123 C 
ATOM     26  C   UNL     1       1.570  11.173   1.850  0.00  0.00    +0.103 C 
ATOM     27  C   UNL     1      -1.358   9.406   0.914  0.00  0.00    +0.219 C 
ATOM     28  O   UNL     1      -2.318   9.639   0.210  0.00  0.00    -0.275 OA
BRANCH  21  32
ATOM     29  C   UNL     1       4.814  14.216   0.905  0.00  0.00    +0.000 C 
ATOM     30  C   UNL     1       4.341  14.348   2.354  0.00  0.00    +0.002 C 
ATOM     31  C   UNL     1       3.256  13.307   2.633  0.00  0.00    +0.019 C 
ATOM     32  C   UNL     1       2.074  13.536   1.689  0.00  0.00    +0.057 C 
ATOM     33  C   UNL     1       2.547  13.404   0.239  0.00  0.00    +0.019 C 
ATOM     34  C   UNL     1       3.633  14.445  -0.040  0.00  0.00    +0.002 C 
ENDBRANCH  21  32
ENDBRANCH   1  27
TORSDOF 2
