REMARK  Name = ZINC40840310
REMARK  5 active torsions:
REMARK  status: ('A' for Active; 'I' for Inactive)
REMARK    1  A    between atoms: C_6  and  C_7
REMARK    2  A    between atoms: C_7  and  N_8
REMARK    3  A    between atoms: N_16  and  N_17
REMARK    4  A    between atoms: C_18  and  C_20
REMARK    5  A    between atoms: C_23  and  N_26
REMARK                            x       y       z     vdW  Elec       q    Type
REMARK                         _______ _______ _______ _____ _____    ______ ____
ROOT
ATOM      1  N   UNL     1      -1.726  -1.017  -1.368  0.00  0.00    -0.261 N 
ATOM      2  C   UNL     1      -2.541  -0.157  -2.095  0.00  0.00    +0.046 A 
ATOM      3  C   UNL     1      -3.126   1.061  -1.766  0.00  0.00    +0.025 A 
ATOM      4  C   UNL     1      -3.908   1.726  -2.688  0.00  0.00    +0.017 A 
ATOM      5  C   UNL     1      -4.120   1.193  -3.949  0.00  0.00    +0.019 A 
ATOM      6  C   UNL     1      -3.547  -0.015  -4.294  0.00  0.00    +0.027 A 
ATOM      7  C   UNL     1      -2.758  -0.693  -3.371  0.00  0.00    +0.029 A 
ATOM      8  C   UNL     1      -2.017  -1.974  -3.418  0.00  0.00    +0.153 C 
ATOM      9  N   UNL     1      -1.938  -2.815  -4.421  0.00  0.00    -0.174 NA
ATOM     10  C   UNL     1      -1.382  -2.096  -2.091  0.00  0.00    +0.272 C 
ATOM     11  O   UNL     1      -0.674  -3.013  -1.717  0.00  0.00    -0.268 OA
ATOM     12 BR   UNL     1      -5.195   2.121  -5.198  0.00  0.00    -0.050 Br
ENDROOT
BRANCH   9  13
ATOM     13  N   UNL     1      -1.187  -3.991  -4.293  0.00  0.00    -0.202 N 
ATOM     14  C   UNL     1      -1.106  -4.855  -5.324  0.00  0.00    +0.263 C 
ATOM     15  O   UNL     1      -1.685  -4.614  -6.365  0.00  0.00    -0.268 OA
ATOM     16  H   UNL     1      -0.725  -4.183  -3.462  0.00  0.00    +0.178 HD
BRANCH  14  17
ATOM     17  C   UNL     1      -0.314  -6.095  -5.188  0.00  0.00    +0.038 A 
ATOM     18  C   UNL     1       0.347  -6.377  -3.991  0.00  0.00    +0.015 A 
ATOM     19  C   UNL     1       1.085  -7.536  -3.872  0.00  0.00    +0.033 A 
ATOM     20  C   UNL     1       1.171  -8.418  -4.934  0.00  0.00    +0.126 A 
ATOM     21  C   UNL     1       0.518  -8.145  -6.123  0.00  0.00    +0.033 A 
ATOM     22  C   UNL     1      -0.228  -6.992  -6.255  0.00  0.00    +0.015 A 
BRANCH  20  23
ATOM     23  N   UNL     1       1.965  -9.660  -4.799  0.00  0.00    +0.056 N 
ATOM     24  O   UNL     1       2.536  -9.902  -3.761  0.00  0.00    -0.126 OA
ATOM     25  O   UNL     1       2.042 -10.433  -5.726  0.00  0.00    -0.126 OA
ENDBRANCH  20  23
ENDBRANCH  14  17
ENDBRANCH   9  13
BRANCH   1  26
ATOM     26  C   UNL     1      -1.293  -0.775   0.011  0.00  0.00    +0.149 C 
BRANCH  26  32
ATOM     27  C   UNL     1      -0.017   1.378   0.010  0.00  0.00    +0.006 A 
ATOM     28  C   UNL     1       1.171   2.086   0.002  0.00  0.00    +0.020 A 
ATOM     29  C   UNL     1       2.378   1.410  -0.013  0.00  0.00    +0.041 A 
ATOM     30  C   UNL     1       2.396   0.027  -0.021  0.00  0.00    +0.020 A 
ATOM     31  C   UNL     1       1.208  -0.679  -0.013  0.00  0.00    +0.006 A 
ATOM     32  C   UNL     1       0.002  -0.004   0.002  0.00  0.00    -0.030 A 
ATOM     33 CL   UNL     1       3.870   2.298  -0.023  0.00  0.00    -0.084 Cl
ENDBRANCH  26  32
ENDBRANCH   1  26
TORSDOF 5
