REMARK  Name = ZINC44925149
REMARK  4 active torsions:
REMARK  status: ('A' for Active; 'I' for Inactive)
REMARK    1  A    between atoms: C_1  and  C_2
REMARK    2  A    between atoms: C_2  and  C_4
REMARK    3  A    between atoms: C_2  and  N_9
REMARK    4  A    between atoms: C_11  and  N_17
REMARK                            x       y       z     vdW  Elec       q    Type
REMARK                         _______ _______ _______ _____ _____    ______ ____
ROOT
ATOM      1  N   UNL     1       0.711  -0.489   1.189  0.00  0.00    -0.318 N 
ATOM      2  C   UNL     1       0.029  -0.638   2.395  0.00  0.00    +0.140 A 
ATOM      3  C   UNL     1       0.712  -1.096   3.525  0.00  0.00    +0.066 A 
ATOM      4  C   UNL     1       0.017  -1.239   4.718  0.00  0.00    +0.043 A 
ATOM      5  C   UNL     1      -1.335  -0.919   4.740  0.00  0.00    +0.038 A 
ATOM      6  C   UNL     1      -1.943  -0.472   3.583  0.00  0.00    +0.128 A 
ATOM      7  N   UNL     1      -1.257  -0.340   2.462  0.00  0.00    -0.238 NA
ATOM      8 BR   UNL     1      -2.332  -1.094   6.337  0.00  0.00    -0.049 Br
ATOM      9  H   UNL     1       1.654  -0.707   1.135  0.00  0.00    +0.148 HD
ENDROOT
BRANCH   3  10
ATOM     10  N   UNL     1       2.075  -1.407   3.454  0.00  0.00    -0.355 N 
ATOM     11  H   UNL     1       2.553  -1.305   2.617  0.00  0.00    +0.142 HD
ATOM     12  H   UNL     1       2.542  -1.724   4.243  0.00  0.00    +0.142 HD
ENDBRANCH   3  10
BRANCH   1  14
ATOM     13  C   UNL     1      -0.019   1.526   0.010  0.00  0.00    +0.036 C 
ATOM     14  C   UNL     1       0.002  -0.004   0.002  0.00  0.00    +0.140 C 
BRANCH  14  15
ATOM     15  C   UNL     1       0.707  -0.490  -1.238  0.00  0.00    +0.196 A 
ATOM     16  N   UNL     1       0.141  -1.015  -2.315  0.00  0.00    -0.109 NA
ATOM     17  N   UNL     1       1.081  -1.301  -3.149  0.00  0.00    -0.021 NA
ATOM     18  N   UNL     1       2.214  -0.974  -2.633  0.00  0.00    -0.021 NA
ATOM     19  N   UNL     1       2.013  -0.470  -1.463  0.00  0.00    -0.109 NA
ENDBRANCH  14  15
ENDBRANCH   1  14
TORSDOF 3
