REMARK  Name = ZINC52471132
REMARK  7 active torsions:
REMARK  status: ('A' for Active; 'I' for Inactive)
REMARK    1  A    between atoms: C_1  and  C_2
REMARK    2  A    between atoms: C_2  and  C_4
REMARK    3  A    between atoms: C_2  and  N_14
REMARK    4  A    between atoms: C_8  and  S_10
REMARK    5  A    between atoms: S_10  and  N_13
REMARK    6  A    between atoms: N_17  and  C_18
REMARK    7  A    between atoms: C_22  and  C_24
REMARK                            x       y       z     vdW  Elec       q    Type
REMARK                         _______ _______ _______ _____ _____    ______ ____
ROOT
ATOM      1  N   UNL     1      -1.371  -0.517   0.012  0.00  0.00    -0.293 N 
ATOM      2  C   UNL     1      -2.052  -0.641  -1.144  0.00  0.00    +0.304 C 
ATOM      3  O   UNL     1      -1.526  -0.330  -2.196  0.00  0.00    -0.252 OA
ATOM      4  N   UNL     1      -3.315  -1.109  -1.135  0.00  0.00    -0.269 N 
ATOM      5  H   UNL     1      -1.790  -0.764   0.851  0.00  0.00    +0.151 HD
ATOM      6  H   UNL     1      -3.711  -1.420  -0.306  0.00  0.00    +0.156 HD
ENDROOT
BRANCH   4   7
ATOM      7  C   UNL     1      -4.056  -1.148  -2.322  0.00  0.00    +0.035 A 
ATOM      8  C   UNL     1      -5.424  -0.902  -2.296  0.00  0.00    +0.023 A 
ATOM      9  C   UNL     1      -6.160  -0.939  -3.465  0.00  0.00    +0.002 A 
ATOM     10  C   UNL     1      -5.542  -1.219  -4.667  0.00  0.00    +0.012 A 
ATOM     11  C   UNL     1      -4.168  -1.467  -4.704  0.00  0.00    +0.021 A 
ATOM     12  C   UNL     1      -3.425  -1.425  -3.524  0.00  0.00    +0.035 A 
BRANCH  11  13
ATOM     13  C   UNL     1      -3.503  -1.768  -5.989  0.00  0.00    +0.153 A 
ATOM     14  C   UNL     1      -4.094  -1.832  -7.210  0.00  0.00    +0.132 A 
ATOM     15  N   UNL     1      -3.140  -2.130  -8.105  0.00  0.00    -0.335 N 
ATOM     16  C   UNL     1      -2.000  -2.250  -7.483  0.00  0.00    +0.284 A 
ATOM     17  O   UNL     1      -2.190  -2.026  -6.176  0.00  0.00    -0.444 OA
ATOM     18  H   UNL     1      -3.276  -2.240  -9.059  0.00  0.00    +0.168 HD
ENDBRANCH  11  13
ENDBRANCH   4   7
BRANCH   1  20
ATOM     19  C   UNL     1      -0.020   1.522   0.022  0.00  0.00    +0.033 C 
ATOM     20  C   UNL     1       0.003  -0.007   0.002  0.00  0.00    +0.102 C 
BRANCH  20  21
ATOM     21  C   UNL     1       0.736  -0.514   1.218  0.00  0.00    -0.026 A 
ATOM     22  C   UNL     1       0.088  -0.580   2.438  0.00  0.00    +0.005 A 
ATOM     23  C   UNL     1       0.760  -1.045   3.552  0.00  0.00    +0.002 A 
ATOM     24  C   UNL     1       2.079  -1.445   3.447  0.00  0.00    +0.028 A 
ATOM     25  C   UNL     1       2.726  -1.381   2.228  0.00  0.00    +0.105 A 
ATOM     26  C   UNL     1       2.053  -0.920   1.111  0.00  0.00    +0.034 A 
BRANCH  25  27
ATOM     27  S   UNL     1       4.407  -1.891   2.094  0.00  0.00    +0.056 S 
ATOM     28  O   UNL     1       4.947  -1.220   0.963  0.00  0.00    -0.153 OA
ATOM     29  O   UNL     1       4.973  -1.770   3.392  0.00  0.00    -0.153 OA
BRANCH  27  30
ATOM     30  N   UNL     1       4.402  -3.506   1.728  0.00  0.00    -0.204 NA
ATOM     31  H   UNL     1       3.560  -3.978   1.631  0.00  0.00    +0.144 HD
ATOM     32  H   UNL     1       5.240  -3.980   1.612  0.00  0.00    +0.144 HD
ENDBRANCH  27  30
ENDBRANCH  25  27
ENDBRANCH  20  21
ENDBRANCH   1  20
TORSDOF 6
