REMARK  Name = ZINC65306424
REMARK  2 active torsions:
REMARK  status: ('A' for Active; 'I' for Inactive)
REMARK    1  A    between atoms: C_6  and  C_7
REMARK    2  A    between atoms: N_17  and  C_20
REMARK                            x       y       z     vdW  Elec       q    Type
REMARK                         _______ _______ _______ _____ _____    ______ ____
ROOT
ATOM      1  C   UNL     1      -1.783  -2.242   2.288  0.00  0.00    +0.253 C 
ATOM      2  O   UNL     1      -2.914  -1.857   2.509  0.00  0.00    -0.270 OA
ATOM      3  N   UNL     1      -1.458  -2.717   1.070  0.00  0.00    -0.240 N 
ATOM      4  C   UNL     1      -0.170  -3.325   0.696  0.00  0.00    +0.137 C 
ATOM      5  C   UNL     1      -0.363  -3.677  -0.792  0.00  0.00    +0.134 C 
ATOM      6  N   UNL     1      -1.731  -3.233  -1.091  0.00  0.00    -0.359 N 
ATOM      7  C   UNL     1      -2.274  -2.724  -0.035  0.00  0.00    +0.166 C 
ATOM      8  N   UNL     1      -3.557  -2.230  -0.019  0.00  0.00    -0.301 N 
ATOM      9  C   UNL     1      -3.800  -0.780  -0.032  0.00  0.00    +0.126 C 
ATOM     10  C   UNL     1      -4.717  -0.447  -1.214  0.00  0.00    +0.124 C 
ATOM     11  N   UNL     1      -5.870  -1.358  -1.186  0.00  0.00    -0.327 N 
ATOM     12  C   UNL     1      -5.627  -2.808  -1.174  0.00  0.00    +0.124 C 
ATOM     13  C   UNL     1      -4.710  -3.141   0.003  0.00  0.00    +0.126 C 
ATOM     14  H   UNL     1      -2.164  -3.313  -1.955  0.00  0.00    +0.162 HD
ENDROOT
BRANCH   1  20
ATOM     15  C   UNL     1      -1.049  -1.555   4.567  0.00  0.00    +0.014 A 
ATOM     16  C   UNL     1      -0.093  -1.510   5.561  0.00  0.00    +0.016 A 
ATOM     17  C   UNL     1       1.147  -2.091   5.359  0.00  0.00    +0.018 A 
ATOM     18  C   UNL     1       1.437  -2.722   4.160  0.00  0.00    +0.016 A 
ATOM     19  C   UNL     1       0.489  -2.774   3.159  0.00  0.00    +0.014 A 
ATOM     20  C   UNL     1      -0.763  -2.189   3.357  0.00  0.00    +0.037 A 
ATOM     21 BR   UNL     1       2.452  -2.024   6.726  0.00  0.00    -0.050 Br
ENDBRANCH   1  20
BRANCH  11  22
ATOM     22  C   UNL     1      -7.174  -0.855  -1.170  0.00  0.00    +0.030 A 
ATOM     23  C   UNL     1      -8.255  -1.722  -1.256  0.00  0.00    +0.026 A 
ATOM     24  C   UNL     1      -9.543  -1.223  -1.240  0.00  0.00    +0.040 A 
ATOM     25  C   UNL     1      -9.757   0.141  -1.138  0.00  0.00    +0.124 A 
ATOM     26  C   UNL     1      -8.680   1.008  -1.052  0.00  0.00    +0.040 A 
ATOM     27  C   UNL     1      -7.391   0.513  -1.063  0.00  0.00    +0.026 A 
ATOM     28  F   UNL     1     -11.017   0.627  -1.123  0.00  0.00    -0.205 F 
ENDBRANCH  11  22
TORSDOF 2
