REMARK  Name = ZINC02262710
REMARK  6 active torsions:
REMARK  status: ('A' for Active; 'I' for Inactive)
REMARK    1  A    between atoms: C_1  and  O_2
REMARK    2  A    between atoms: O_2  and  C_3
REMARK    3  A    between atoms: C_6  and  C_11
REMARK    4  A    between atoms: C_8  and  O_9
REMARK    5  A    between atoms: O_9  and  C_10
REMARK    6  A    between atoms: N_19  and  C_21
REMARK                            x       y       z     vdW  Elec       q    Type
REMARK                         _______ _______ _______ _____ _____    ______ ____
ROOT
ATOM      1  C   UNL     1       2.473   1.081  -0.016  0.00  0.00    +0.028 C 
ATOM      2  C   UNL     1       3.633   1.776  -0.126  0.00  0.00    +0.081 A 
ATOM      3  C   UNL     1       5.013   1.277  -0.255  0.00  0.00    +0.268 A 
ATOM      4  O   UNL     1       5.247   0.083  -0.283  0.00  0.00    -0.266 OA
ATOM      5  N   UNL     1       5.996   2.171  -0.345  0.00  0.00    -0.270 N 
ATOM      6  C   UNL     1       5.662   3.521  -0.314  0.00  0.00    +0.175 A 
ATOM      7  N   UNL     1       6.497   4.504  -0.395  0.00  0.00    -0.241 NA
ATOM      8  C   UNL     1       7.926   4.187  -0.550  0.00  0.00    +0.252 C 
ATOM      9  N   UNL     1       8.222   2.905   0.102  0.00  0.00    -0.292 N 
ATOM     10  C   UNL     1       7.433   1.802  -0.467  0.00  0.00    +0.237 C 
ATOM     11  S   UNL     1       3.899   3.545  -0.144  0.00  0.00    -0.046 S 
ENDROOT
BRANCH   9  12
ATOM     12  C   UNL     1       9.589   2.622   0.051  0.00  0.00    +0.032 A 
ATOM     13  C   UNL     1      10.030   1.418  -0.483  0.00  0.00    +0.024 A 
ATOM     14  C   UNL     1      11.383   1.143  -0.538  0.00  0.00    +0.016 A 
ATOM     15  C   UNL     1      12.297   2.060  -0.050  0.00  0.00    +0.013 A 
ATOM     16  C   UNL     1      11.860   3.257   0.488  0.00  0.00    +0.016 A 
ATOM     17  C   UNL     1      10.509   3.540   0.540  0.00  0.00    +0.024 A 
ATOM     18  I   UNL     1      14.347   1.635  -0.127  0.00  0.00    -0.044 I 
ENDBRANCH   9  12
BRANCH   1  22
ATOM     19  C   UNL     1      -1.241   3.130  -0.137  0.00  0.00    +0.162 A 
ATOM     20  C   UNL     1      -0.090   3.753  -0.600  0.00  0.00    +0.050 A 
ATOM     21  C   UNL     1       1.118   3.092  -0.563  0.00  0.00    +0.012 A 
ATOM     22  C   UNL     1       1.187   1.789  -0.056  0.00  0.00    -0.020 A 
ATOM     23  C   UNL     1       0.026   1.162   0.411  0.00  0.00    +0.057 A 
ATOM     24  C   UNL     1      -1.182   1.831   0.365  0.00  0.00    +0.162 A 
BRANCH  19  26
ATOM     25  C   UNL     1      -2.420   5.114  -0.708  0.00  0.00    +0.277 C 
ATOM     26  O   UNL     1      -2.430   3.787  -0.177  0.00  0.00    -0.491 OA
ENDBRANCH  19  26
BRANCH  24  27
ATOM     27  O   UNL     1      -2.313   1.223   0.813  0.00  0.00    -0.491 OA
ATOM     28  C   UNL     1      -2.178  -0.107   1.319  0.00  0.00    +0.277 C 
ENDBRANCH  24  27
ENDBRANCH   1  22
TORSDOF 4
