REMARK  Name = ZINC40416504
REMARK  6 active torsions:
REMARK  status: ('A' for Active; 'I' for Inactive)
REMARK    1  A    between atoms: C_6  and  C_7
REMARK    2  A    between atoms: C_11  and  O_25
REMARK    3  A    between atoms: C_18  and  C_20
REMARK    4  A    between atoms: O_25  and  C_26
REMARK    5  A    between atoms: C_26  and  C_27
REMARK    6  A    between atoms: C_30  and  C_32
REMARK                            x       y       z     vdW  Elec       q    Type
REMARK                         _______ _______ _______ _____ _____    ______ ____
ROOT
ATOM      1  C   UNL     1      -1.756  -1.519  -0.377  0.00  0.00    +0.137 C 
ATOM      2  C   UNL     1      -1.922  -2.036   1.030  0.00  0.00    -0.016 A 
ATOM      3  C   UNL     1      -1.654  -1.163   2.075  0.00  0.00    +0.051 A 
ATOM      4  C   UNL     1      -1.798  -1.576   3.389  0.00  0.00    +0.121 A 
ATOM      5  C   UNL     1      -2.215  -2.871   3.659  0.00  0.00    +0.046 A 
ATOM      6  C   UNL     1      -2.477  -3.736   2.618  0.00  0.00    +0.007 A 
ATOM      7  C   UNL     1      -2.326  -3.325   1.299  0.00  0.00    -0.040 A 
ATOM      8  C   UNL     1      -2.605  -4.335   0.218  0.00  0.00    +0.054 C 
ATOM      9  C   UNL     1      -2.869  -3.643  -1.119  0.00  0.00    +0.113 C 
ATOM     10  N   UNL     1      -1.813  -2.638  -1.323  0.00  0.00    -0.290 N 
ATOM     11  C   UNL     1      -0.934  -2.741  -2.340  0.00  0.00    +0.219 C 
ATOM     12  O   UNL     1      -0.043  -1.927  -2.457  0.00  0.00    -0.275 OA
ENDROOT
BRANCH   1  18
ATOM     13  C   UNL     1      -0.366   0.481  -0.954  0.00  0.00    +0.008 A 
ATOM     14  C   UNL     1       0.854   1.119  -1.069  0.00  0.00    +0.038 A 
ATOM     15  C   UNL     1       2.019   0.451  -0.731  0.00  0.00    +0.123 A 
ATOM     16  C   UNL     1       1.959  -0.856  -0.278  0.00  0.00    +0.038 A 
ATOM     17  C   UNL     1       0.738  -1.492  -0.164  0.00  0.00    +0.008 A 
ATOM     18  C   UNL     1      -0.424  -0.824  -0.501  0.00  0.00    -0.022 A 
ATOM     19  F   UNL     1       3.212   1.074  -0.843  0.00  0.00    -0.205 F 
ENDBRANCH   1  18
BRANCH  11  20
ATOM     20  C   UNL     1      -1.060  -3.869  -3.333  0.00  0.00    +0.075 C 
ATOM     21  C   UNL     1      -0.868  -5.224  -2.620  0.00  0.00    +0.013 C 
ATOM     22  C   UNL     1      -0.091  -6.085  -3.646  0.00  0.00    +0.001 C 
ATOM     23  C   UNL     1       0.883  -5.063  -4.283  0.00  0.00    +0.001 C 
ATOM     24  C   UNL     1       0.054  -3.767  -4.390  0.00  0.00    +0.013 C 
ENDBRANCH  11  20
BRANCH   4  25
ATOM     25  O   UNL     1      -1.532  -0.717   4.408  0.00  0.00    -0.484 OA
BRANCH  25  26
ATOM     26  C   UNL     1      -1.704  -1.214   5.737  0.00  0.00    +0.303 C 
BRANCH  26  27
ATOM     27  C   UNL     1      -1.365  -0.130   6.727  0.00  0.00    +0.143 A 
ATOM     28  C   UNL     1      -2.236   0.769   7.238  0.00  0.00    +0.049 A 
ATOM     29  C   UNL     1      -1.513   1.592   8.116  0.00  0.00    +0.055 A 
ATOM     30  C   UNL     1      -0.221   1.148   8.095  0.00  0.00    +0.190 A 
ATOM     31  O   UNL     1      -0.154   0.099   7.249  0.00  0.00    -0.452 OA
BRANCH  30  32
ATOM     32  C   UNL     1       0.895   1.711   8.861  0.00  0.00    +0.282 C 
ATOM     33  O   UNL     1       0.689   2.575   9.693  0.00  0.00    -0.267 OA
ATOM     34  N   UNL     1       2.151   1.272   8.644  0.00  0.00    -0.291 N 
ATOM     35  C   UNL     1       2.417   0.178   7.696  0.00  0.00    +0.136 C 
ATOM     36  C   UNL     1       3.527   0.627   6.739  0.00  0.00    +0.179 C 
ATOM     37  O   UNL     1       4.644   1.095   7.499  0.00  0.00    -0.377 OA
ATOM     38  C   UNL     1       4.363   2.238   8.309  0.00  0.00    +0.179 C 
ATOM     39  C   UNL     1       3.296   1.875   9.343  0.00  0.00    +0.136 C 
ENDBRANCH  30  32
ENDBRANCH  26  27
ENDBRANCH  25  26
ENDBRANCH   4  25
TORSDOF 6
