REMARK  Name = ZINC67207149
REMARK  8 active torsions:
REMARK  status: ('A' for Active; 'I' for Inactive)
REMARK    1  A    between atoms: C_1  and  C_2
REMARK    2  A    between atoms: C_5  and  C_20
REMARK    3  A    between atoms: C_7  and  N_8
REMARK    4  A    between atoms: C_9  and  C_11
REMARK    5  A    between atoms: N_14  and  C_17
REMARK    6  A    between atoms: C_17  and  C_18
REMARK    7  A    between atoms: C_24  and  C_31
REMARK    8  A    between atoms: C_27  and  C_30
REMARK                            x       y       z     vdW  Elec       q    Type
REMARK                         _______ _______ _______ _____ _____    ______ ____
ROOT
ATOM      1  C   UNL     1      -0.039   1.457  -0.022  0.00  0.00    +0.045 C 
ATOM      2  C   UNL     1       0.004  -0.049  -0.004  0.00  0.00    -0.029 A 
ATOM      3  C   UNL     1      -0.341  -0.762  -1.137  0.00  0.00    +0.006 A 
ATOM      4  C   UNL     1      -0.304  -2.141  -1.129  0.00  0.00    +0.013 A 
ATOM      5  C   UNL     1       0.082  -2.822   0.028  0.00  0.00    +0.039 A 
ATOM      6  C   UNL     1       0.429  -2.103   1.171  0.00  0.00    +0.036 A 
ATOM      7  C   UNL     1       0.394  -0.717   1.151  0.00  0.00    +0.037 A 
ENDROOT
BRANCH   5   8
ATOM      8  C   UNL     1       0.121  -4.300   0.040  0.00  0.00    +0.247 C 
ATOM      9  O   UNL     1      -0.283  -4.910   1.010  0.00  0.00    -0.270 OA
ATOM     10  N   UNL     1       0.605  -4.970  -1.025  0.00  0.00    -0.297 N 
ATOM     11  C   UNL     1       1.018  -4.251  -2.237  0.00  0.00    +0.111 C 
ATOM     12  C   UNL     1       2.454  -4.655  -2.586  0.00  0.00    +0.004 C 
ATOM     13  C   UNL     1       2.536  -6.179  -2.700  0.00  0.00    +0.009 C 
ATOM     14  C   UNL     1       2.168  -6.814  -1.357  0.00  0.00    +0.004 C 
ATOM     15  C   UNL     1       0.735  -6.433  -0.992  0.00  0.00    +0.111 C 
ATOM     16  C   UNL     1       2.283  -8.336  -1.462  0.00  0.00    +0.009 C 
ATOM     17  C   UNL     1       2.854  -4.020  -3.919  0.00  0.00    +0.009 C 
ENDBRANCH   5   8
BRANCH   7  18
ATOM     18  N   UNL     1       0.747   0.009   2.294  0.00  0.00    -0.285 N 
ATOM     19  C   UNL     1       0.608  -0.546   3.514  0.00  0.00    +0.220 C 
ATOM     20  O   UNL     1       0.250  -1.700   3.618  0.00  0.00    -0.275 OA
ATOM     21  H   UNL     1       1.092   0.911   2.208  0.00  0.00    +0.155 HD
BRANCH  19  22
ATOM     22  C   UNL     1       0.896   0.268   4.749  0.00  0.00    +0.078 C 
ATOM     23  C   UNL     1       2.355   0.733   4.726  0.00  0.00    +0.028 C 
ATOM     24  C   UNL     1       2.659   1.507   6.011  0.00  0.00    +0.086 C 
ATOM     25  N   UNL     1       2.420   0.641   7.173  0.00  0.00    -0.291 NA
ATOM     26  C   UNL     1       1.015   0.221   7.243  0.00  0.00    +0.086 C 
ATOM     27  C   UNL     1       0.662  -0.592   5.995  0.00  0.00    +0.028 C 
BRANCH  25  28
ATOM     28  C   UNL     1       2.833   1.305   8.417  0.00  0.00    +0.173 C 
BRANCH  28  29
ATOM     29  C   UNL     1       2.807   0.334   9.523  0.00  0.00    -0.090 C 
ATOM     30  C   UNL     1       2.786  -0.441  10.405  0.00  0.00    +0.005 C 
ENDBRANCH  28  29
ENDBRANCH  25  28
ENDBRANCH  19  22
ENDBRANCH   7  18
TORSDOF 5
