REMARK  Name = ZINC20215661
REMARK  9 active torsions:
REMARK  status: ('A' for Active; 'I' for Inactive)
REMARK    1  A    between atoms: C_1  and  N_2
REMARK    2  A    between atoms: N_2  and  C_3
REMARK    3  A    between atoms: N_2  and  C_4
REMARK    4  A    between atoms: C_7  and  C_10
REMARK    5  A    between atoms: C_16  and  C_35
REMARK    6  A    between atoms: C_17  and  C_26
REMARK    7  A    between atoms: C_29  and  N_32
REMARK    8  A    between atoms: N_32  and  C_33
REMARK    9  A    between atoms: N_32  and  C_34
REMARK                            x       y       z     vdW  Elec       q    Type
REMARK                         _______ _______ _______ _____ _____    ______ ____
ROOT
ATOM      1  C   UNL     1      -0.044   1.181   0.163  0.00  0.00    +0.041 C 
ATOM      2  C   UNL     1      -1.120   1.897   0.585  0.00  0.00    +0.138 A 
ATOM      3  C   UNL     1      -1.161   3.325   0.916  0.00  0.00    +0.363 A 
ATOM      4  O   UNL     1      -0.232   4.109   0.868  0.00  0.00    -0.243 OA
ATOM      5  O   UNL     1      -2.427   3.599   1.281  0.00  0.00    -0.403 OA
ATOM      6  C   UNL     1      -3.183   2.478   1.219  0.00  0.00    +0.227 A 
ATOM      7  C   UNL     1      -4.512   2.328   1.511  0.00  0.00    +0.103 C 
ATOM      8  C   UNL     1      -5.133   0.956   1.360  0.00  0.00    +0.119 C 
ATOM      9  C   UNL     1      -4.225  -0.156   0.892  0.00  0.00    +0.119 A 
ATOM     10  C   UNL     1      -2.934   0.131   0.640  0.00  0.00    +0.235 A 
ATOM     11  O   UNL     1      -2.348  -1.022   0.241  0.00  0.00    -0.408 OA
ATOM     12  C   UNL     1      -3.284  -1.987   0.258  0.00  0.00    +0.287 A 
ATOM     13  N   UNL     1      -4.420  -1.464   0.651  0.00  0.00    -0.197 NA
ATOM     14  N   UNL     1      -3.081  -3.312  -0.084  0.00  0.00    -0.313 N 
ATOM     15  N   UNL     1      -2.426   1.422   0.800  0.00  0.00    -0.241 N 
ATOM     16  H   UNL     1      -3.917  -4.026  -0.037  0.00  0.00    +0.147 HD
ATOM     17  H   UNL     1      -2.085  -3.652  -0.403  0.00  0.00    +0.147 HD
ENDROOT
BRANCH   1  21
ATOM     18  C   UNL     1       3.562   3.166  -0.832  0.00  0.00    +0.029 A 
ATOM     19  C   UNL     1       3.597   2.011  -0.055  0.00  0.00    +0.023 A 
ATOM     20  C   UNL     1       2.432   1.365   0.270  0.00  0.00    +0.010 A 
ATOM     21  C   UNL     1       1.205   1.869  -0.181  0.00  0.00    -0.023 A 
ATOM     22  C   UNL     1       1.176   3.028  -0.967  0.00  0.00    +0.010 A 
ATOM     23  C   UNL     1       2.345   3.671  -1.282  0.00  0.00    +0.023 A 
BRANCH  18  25
ATOM     24  C   UNL     1       6.016   3.365  -0.583  0.00  0.00    +0.129 C 
ATOM     25  N   UNL     1       4.748   3.818  -1.159  0.00  0.00    -0.336 N 
ATOM     26  C   UNL     1       4.727   4.958  -2.079  0.00  0.00    +0.129 C 
ENDBRANCH  18  25
ENDBRANCH   1  21
BRANCH   8  27
ATOM     27  C   UNL     1      -6.274   1.067   0.381  0.00  0.00    -0.033 A 
ATOM     28  C   UNL     1      -6.035   1.500  -0.910  0.00  0.00    +0.006 A 
ATOM     29  C   UNL     1      -7.077   1.598  -1.811  0.00  0.00    +0.023 A 
ATOM     30  C   UNL     1      -8.368   1.271  -1.416  0.00  0.00    +0.029 A 
ATOM     31  C   UNL     1      -8.605   0.842  -0.116  0.00  0.00    +0.023 A 
ATOM     32  C   UNL     1      -7.558   0.741   0.778  0.00  0.00    +0.006 A 
BRANCH  30  33
ATOM     33  N   UNL     1      -9.425   1.374  -2.323  0.00  0.00    -0.336 N 
ATOM     34  C   UNL     1     -10.786   1.030  -1.904  0.00  0.00    +0.129 C 
ATOM     35  C   UNL     1      -9.173   1.827  -3.693  0.00  0.00    +0.129 C 
ENDBRANCH  30  33
ENDBRANCH   8  27
BRANCH   7  36
ATOM     36  C   UNL     1      -5.297   3.443   1.949  0.00  0.00    +0.101 C 
ATOM     37  N   UNL     1      -5.919   4.328   2.297  0.00  0.00    -0.191 NA
ENDBRANCH   7  36
TORSDOF 5
