REMARK  Name = ZINC04245265
REMARK  3 active torsions:
REMARK  status: ('A' for Active; 'I' for Inactive)
REMARK    1  A    between atoms: C_6  and  N_7
REMARK    2  A    between atoms: C_8  and  O_20
REMARK    3  A    between atoms: C_13  and  C_15
REMARK                            x       y       z     vdW  Elec       q    Type
REMARK                         _______ _______ _______ _____ _____    ______ ____
ROOT
ATOM      1  C   UNL     1      -2.427   0.941   0.019  0.00  0.00    +0.024 A 
ATOM      2  C   UNL     1      -3.620   1.628   0.031  0.00  0.00    +0.017 A 
ATOM      3  C   UNL     1      -3.644   3.026   0.038  0.00  0.00    +0.023 A 
ATOM      4  C   UNL     1      -2.459   3.733   0.031  0.00  0.00    +0.019 A 
ATOM      5  C   UNL     1      -1.254   3.032   0.030  0.00  0.00    +0.032 A 
ATOM      6  C   UNL     1      -1.232   1.649   0.017  0.00  0.00    +0.025 A 
ATOM      7  C   UNL     1      -2.349   5.230   0.025  0.00  0.00    +0.269 C 
ATOM      8  N   UNL     1      -3.514   5.907   0.563  0.00  0.00    -0.206 N 
ATOM      9  C   UNL     1      -4.768   5.411   0.618  0.00  0.00    +0.195 A 
ATOM     10  N   UNL     1      -5.547   6.325   1.147  0.00  0.00    -0.197 NA
ATOM     11  C   UNL     1      -4.823   7.405   1.450  0.00  0.00    +0.256 A 
ATOM     12  N   UNL     1      -3.577   7.195   1.115  0.00  0.00    -0.142 NA
ATOM     13  S   UNL     1      -5.224   3.807   0.060  0.00  0.00    -0.050 S 
ENDROOT
BRANCH  11  14
ATOM     14  C   UNL     1      -5.358   8.667   2.078  0.00  0.00    +0.454 C 
ATOM     15  F   UNL     1      -6.630   8.422   2.605  0.00  0.00    -0.163 F 
ATOM     16  F   UNL     1      -4.499   9.078   3.102  0.00  0.00    -0.163 F 
ATOM     17  F   UNL     1      -5.441   9.671   1.107  0.00  0.00    -0.163 F 
ENDBRANCH  11  14
BRANCH   6  18
ATOM     18  N   UNL     1      -0.011   0.966   0.007  0.00  0.00    -0.358 N 
ATOM     19  H   UNL     1       0.002  -0.004   0.002  0.00  0.00    +0.142 HD
ATOM     20  H   UNL     1       0.822   1.462   0.002  0.00  0.00    +0.142 HD
ENDBRANCH   6  18
BRANCH   7  21
ATOM     21  O   UNL     1      -2.152   5.664  -1.322  0.00  0.00    -0.367 OA
ATOM     22  H   UNL     1      -2.005   6.616  -1.411  0.00  0.00    +0.212 HD
ENDBRANCH   7  21
TORSDOF 3
