REMARK  Name = ZINC09130401
REMARK  8 active torsions:
REMARK  status: ('A' for Active; 'I' for Inactive)
REMARK    1  A    between atoms: C_1  and  C_2
REMARK    2  A    between atoms: C_13  and  C_23
REMARK    3  A    between atoms: C_16  and  C_18
REMARK    4  A    between atoms: C_18  and  C_19
REMARK    5  A    between atoms: C_19  and  C_20
REMARK    6  A    between atoms: N_25  and  C_26
REMARK    7  A    between atoms: C_31  and  O_32
REMARK    8  A    between atoms: O_32  and  C_33
REMARK                            x       y       z     vdW  Elec       q    Type
REMARK                         _______ _______ _______ _____ _____    ______ ____
ROOT
ATOM      1  C   UNL     1       0.378   1.026   0.244  0.00  0.00    +0.044 C 
ATOM      2  C   UNL     1      -0.383   1.506   1.453  0.00  0.00    -0.049 A 
ATOM      3  C   UNL     1       0.276   1.701   2.654  0.00  0.00    +0.008 A 
ATOM      4  C   UNL     1      -0.419   2.140   3.758  0.00  0.00    -0.026 A 
ATOM      5  C   UNL     1      -1.786   2.391   3.683  0.00  0.00    +0.054 A 
ATOM      6  C   UNL     1      -2.442   2.193   2.469  0.00  0.00    +0.063 A 
ATOM      7  C   UNL     1      -1.739   1.758   1.363  0.00  0.00    +0.025 A 
ATOM      8 CL   UNL     1      -4.146   2.500   2.346  0.00  0.00    -0.082 Cl
ATOM      9  N   UNL     1      -2.267   2.820   4.922  0.00  0.00    -0.285 N 
ATOM     10  C   UNL     1      -1.295   2.880   5.851  0.00  0.00    +0.211 C 
ATOM     11  O   UNL     1      -1.422   3.216   7.010  0.00  0.00    -0.277 OA
ATOM     12  C   UNL     1      -0.019   2.450   5.175  0.00  0.00    +0.049 C 
ATOM     13  C   UNL     1       0.577   1.215   5.862  0.00  0.00    +0.076 C 
ATOM     14  C   UNL     1       2.004   1.644   6.280  0.00  0.00    -0.004 C 
ATOM     15  C   UNL     1       2.303   2.831   5.329  0.00  0.00    -0.069 C 
ATOM     16  H   UNL     1      -3.194   3.049   5.093  0.00  0.00    +0.155 HD
ATOM     17  N   UNL     1       0.994   3.494   5.221  0.00  0.00    +0.394 N 
ATOM     18  H   UNL     1       0.839   4.100   6.035  0.00  0.00    -0.083 HD
ATOM     19  H   UNL     1       0.957   4.058   4.363  0.00  0.00    -0.083 HD
ENDROOT
BRANCH  13  20
ATOM     20  C   UNL     1       0.638   0.058   4.899  0.00  0.00    +0.220 C 
ATOM     21  O   UNL     1       1.666  -0.180   4.301  0.00  0.00    -0.275 OA
ATOM     22  N   UNL     1      -0.450  -0.714   4.702  0.00  0.00    -0.282 N 
ATOM     23  H   UNL     1      -1.294  -0.476   5.116  0.00  0.00    +0.155 HD
BRANCH  22  24
ATOM     24  C   UNL     1      -0.361  -1.859   3.899  0.00  0.00    +0.077 A 
ATOM     25  C   UNL     1       0.875  -2.434   3.643  0.00  0.00    +0.047 A 
ATOM     26  C   UNL     1       0.960  -3.567   2.855  0.00  0.00    +0.043 A 
ATOM     27  C   UNL     1      -0.185  -4.122   2.311  0.00  0.00    +0.024 A 
ATOM     28  C   UNL     1      -1.419  -3.550   2.558  0.00  0.00    +0.049 A 
ATOM     29  C   UNL     1      -1.512  -2.418   3.351  0.00  0.00    +0.141 A 
ATOM     30 CL   UNL     1       2.506  -4.291   2.541  0.00  0.00    -0.083 Cl
BRANCH  29  31
ATOM     31  O   UNL     1      -2.726  -1.855   3.594  0.00  0.00    -0.493 OA
ATOM     32  C   UNL     1      -3.864  -2.482   3.000  0.00  0.00    +0.277 C 
ENDBRANCH  29  31
ENDBRANCH  22  24
ENDBRANCH  13  20
BRANCH  15  33
ATOM     33  C   UNL     1       3.352   3.762   5.941  0.00  0.00    -0.007 C 
BRANCH  33  34
ATOM     34  C   UNL     1       3.632   4.917   4.978  0.00  0.00    +0.094 C 
BRANCH  34  35
ATOM     35  C   UNL     1       4.665   5.834   5.581  0.00  0.00    +0.210 C 
ATOM     36  O   UNL     1       5.131   5.587   6.673  0.00  0.00    -0.276 OA
ATOM     37  N   UNL     1       5.071   6.928   4.906  0.00  0.00    -0.329 N 
ATOM     38  H   UNL     1       4.698   7.125   4.032  0.00  0.00    +0.145 HD
ATOM     39  H   UNL     1       5.736   7.518   5.294  0.00  0.00    +0.145 HD
ENDBRANCH  34  35
ENDBRANCH  33  34
ENDBRANCH  15  33
TORSDOF 6
