REMARK  Name = ZINC08945604
REMARK  3 active torsions:
REMARK  status: ('A' for Active; 'I' for Inactive)
REMARK    1  A    between atoms: C_1  and  C_2
REMARK    2  A    between atoms: C_5  and  C_8
REMARK    3  A    between atoms: C_8  and  N_9
REMARK                            x       y       z     vdW  Elec       q    Type
REMARK                         _______ _______ _______ _____ _____    ______ ____
ROOT
ATOM      1  N   UNL     1       1.245  -0.498  -0.008  0.00  0.00    -0.220 N 
ATOM      2  C   UNL     1       2.170   0.482  -0.009  0.00  0.00    +0.251 C 
ATOM      3  O   UNL     1       3.375   0.351  -0.015  0.00  0.00    -0.272 OA
ATOM      4  C   UNL     1       1.390   1.782  -0.002  0.00  0.00    +0.141 C 
ATOM      5  C   UNL     1       1.674   2.559  -1.276  0.00  0.00    +0.063 C 
ATOM      6  C   UNL     1       3.169   2.910  -1.328  0.00  0.00    +0.175 C 
ATOM      7  S   UNL     1       3.458   4.183  -0.062  0.00  0.00    -0.003 S 
ATOM      8  O   UNL     1       2.802   5.392  -0.420  0.00  0.00    -0.169 OA
ATOM      9  O   UNL     1       4.823   4.184   0.333  0.00  0.00    -0.169 OA
ATOM     10  C   UNL     1       2.576   3.589   1.348  0.00  0.00    +0.094 A 
ATOM     11  C   UNL     1       1.689   2.541   1.258  0.00  0.00    +0.012 A 
ATOM     12  C   UNL     1       1.011   2.135   2.406  0.00  0.00    +0.046 A 
ATOM     13  C   UNL     1       1.226   2.761   3.616  0.00  0.00    +0.124 A 
ATOM     14  C   UNL     1       2.129   3.808   3.700  0.00  0.00    +0.040 A 
ATOM     15  C   UNL     1       2.799   4.216   2.566  0.00  0.00    +0.030 A 
ATOM     16  F   UNL     1       0.559   2.353   4.718  0.00  0.00    -0.205 F 
ATOM     17  N   UNL     1      -0.016   1.341   0.009  0.00  0.00    -0.281 N 
ATOM     18  C   UNL     1       0.002  -0.004   0.002  0.00  0.00    +0.310 C 
ATOM     19  O   UNL     1      -0.999  -0.693   0.005  0.00  0.00    -0.252 OA
ATOM     20  H   UNL     1      -0.802   1.910   0.016  0.00  0.00    +0.152 HD
ENDROOT
BRANCH   1  21
ATOM     21  C   UNL     1       1.562  -1.929  -0.017  0.00  0.00    +0.153 C 
BRANCH  21  26
ATOM     22  C   UNL     1       1.942  -3.784  -5.476  0.00  0.00    +0.044 C 
ATOM     23  C   UNL     1       1.843  -3.300  -4.053  0.00  0.00    -0.050 A 
ATOM     24  C   UNL     1       2.966  -2.820  -3.406  0.00  0.00    +0.003 A 
ATOM     25  C   UNL     1       2.875  -2.376  -2.100  0.00  0.00    +0.005 A 
ATOM     26  C   UNL     1       1.661  -2.413  -1.441  0.00  0.00    -0.030 A 
ATOM     27  C   UNL     1       0.539  -2.898  -2.085  0.00  0.00    +0.005 A 
ATOM     28  C   UNL     1       0.629  -3.338  -3.393  0.00  0.00    +0.003 A 
ENDBRANCH  21  26
ENDBRANCH   1  21
TORSDOF 2
