REMARK  Name = ZINC63514309
REMARK  8 active torsions:
REMARK  status: ('A' for Active; 'I' for Inactive)
REMARK    1  A    between atoms: C_1  and  C_2
REMARK    2  A    between atoms: C_4  and  C_13
REMARK    3  A    between atoms: C_13  and  C_14
REMARK    4  A    between atoms: C_14  and  N_15
REMARK    5  A    between atoms: N_15  and  S_16
REMARK    6  A    between atoms: S_16  and  C_19
REMARK    7  A    between atoms: C_22  and  O_25
REMARK    8  A    between atoms: O_25  and  C_26
REMARK                            x       y       z     vdW  Elec       q    Type
REMARK                         _______ _______ _______ _____ _____    ______ ____
ROOT
ATOM      1  C   UNL     1      -3.765  -1.049  -0.551  0.00  0.00    +0.110 C 
ENDROOT
BRANCH   1   2
ATOM      2  N   UNL     1      -4.819  -0.826  -1.544  0.00  0.00    -0.190 NA
ATOM      3  H   UNL     1      -4.724  -0.120  -2.202  0.00  0.00    +0.148 HD
BRANCH   2   4
ATOM      4  S   UNL     1      -6.173  -1.780  -1.543  0.00  0.00    +0.058 S 
ATOM      5  O   UNL     1      -7.005  -1.305  -2.592  0.00  0.00    -0.153 OA
ATOM      6  O   UNL     1      -5.721  -3.126  -1.479  0.00  0.00    -0.153 OA
BRANCH   4   7
ATOM      7  C   UNL     1      -7.031  -1.465  -0.037  0.00  0.00    +0.105 A 
ATOM      8  C   UNL     1      -6.745  -2.214   1.090  0.00  0.00    +0.032 A 
ATOM      9  C   UNL     1      -7.418  -1.969   2.272  0.00  0.00    +0.047 A 
ATOM     10  C   UNL     1      -8.379  -0.971   2.328  0.00  0.00    +0.120 A 
ATOM     11  C   UNL     1      -8.664  -0.221   1.196  0.00  0.00    +0.047 A 
ATOM     12  C   UNL     1      -7.985  -0.466   0.018  0.00  0.00    +0.032 A 
BRANCH  10  13
ATOM     13  O   UNL     1      -9.042  -0.729   3.489  0.00  0.00    -0.495 OA
ATOM     14  C   UNL     1     -10.019   0.314   3.473  0.00  0.00    +0.277 C 
ENDBRANCH  10  13
ENDBRANCH   4   7
ENDBRANCH   2   4
ENDBRANCH   1   2
BRANCH   1  15
ATOM     15  C   UNL     1      -2.494  -0.316  -0.984  0.00  0.00    +0.050 C 
BRANCH  15  18
ATOM     16  C   UNL     1      -0.019   1.526   0.010  0.00  0.00    +0.035 C 
ATOM     17  C   UNL     1       0.002  -0.004   0.002  0.00  0.00    +0.103 C 
ATOM     18  C   UNL     1      -1.410  -0.545   0.038  0.00  0.00    -0.037 C 
ATOM     19  C   UNL     1      -1.503  -1.275   1.172  0.00  0.00    +0.000 A 
ATOM     20  C   UNL     1      -2.599  -2.045   1.772  0.00  0.00    +0.025 A 
ATOM     21  C   UNL     1      -2.386  -2.686   2.945  0.00  0.00    +0.019 A 
ATOM     22  C   UNL     1      -1.147  -2.632   3.600  0.00  0.00    +0.017 A 
ATOM     23  C   UNL     1      -0.093  -1.946   3.111  0.00  0.00    +0.027 A 
ATOM     24  C   UNL     1      -0.205  -1.235   1.884  0.00  0.00    +0.043 A 
ATOM     25  N   UNL     1       0.658  -0.508   1.214  0.00  0.00    -0.378 N 
ATOM     26 BR   UNL     1      -3.796  -3.679   3.720  0.00  0.00    -0.050 Br
ATOM     27  H   UNL     1       1.576  -0.332   1.475  0.00  0.00    +0.160 HD
ENDBRANCH  15  18
ENDBRANCH   1  15
TORSDOF 6
