REMARK  Name = ZINC02454498
REMARK  5 active torsions:
REMARK  status: ('A' for Active; 'I' for Inactive)
REMARK    1  A    between atoms: C_1  and  C_2
REMARK    2  A    between atoms: C_7  and  C_8
REMARK    3  A    between atoms: N_24  and  C_27
REMARK    4  A    between atoms: C_29  and  N_34
REMARK    5  A    between atoms: C_32  and  C_33
REMARK                            x       y       z     vdW  Elec       q    Type
REMARK                         _______ _______ _______ _____ _____    ______ ____
ROOT
ATOM      1  C   UNL     1       5.668  -2.729  -3.958  0.00  0.00    +0.044 C 
ATOM      2  C   UNL     1       4.771  -2.071  -2.941  0.00  0.00    -0.046 A 
ATOM      3  C   UNL     1       5.245  -1.012  -2.188  0.00  0.00    +0.004 A 
ATOM      4  C   UNL     1       4.421  -0.407  -1.255  0.00  0.00    +0.005 A 
ATOM      5  C   UNL     1       3.134  -0.861  -1.075  0.00  0.00    -0.027 A 
ATOM      6  C   UNL     1       2.647  -1.926  -1.826  0.00  0.00    +0.039 A 
ATOM      7  C   UNL     1       3.482  -2.529  -2.764  0.00  0.00    -0.026 A 
ATOM      8  C   UNL     1       2.975  -3.684  -3.589  0.00  0.00    +0.046 C 
ATOM      9  N   UNL     1       1.325  -2.204  -1.470  0.00  0.00    -0.286 N 
ATOM     10  C   UNL     1       0.875  -1.378  -0.506  0.00  0.00    +0.212 C 
ATOM     11  O   UNL     1      -0.229  -1.387  -0.003  0.00  0.00    -0.277 OA
ATOM     12  C   UNL     1       2.006  -0.444  -0.173  0.00  0.00    +0.053 C 
ATOM     13  C   UNL     1       2.400  -0.552   1.305  0.00  0.00    +0.089 C 
ATOM     14  C   UNL     1       2.777   0.897   1.718  0.00  0.00    +0.074 C 
ATOM     15  C   UNL     1       2.574   1.745   0.449  0.00  0.00    -0.054 C 
ATOM     16  C   UNL     1       0.291   1.220   0.194  0.00  0.00    -0.076 C 
ATOM     17  C   UNL     1       0.322   2.699   0.630  0.00  0.00    -0.020 C 
ATOM     18  C   UNL     1       1.815   3.033   0.814  0.00  0.00    -0.016 C 
ATOM     19  C   UNL     1       1.698   1.244   2.742  0.00  0.00    +0.228 C 
ATOM     20  O   UNL     1       1.606   2.300   3.329  0.00  0.00    -0.275 OA
ATOM     21  N   UNL     1       0.875   0.200   2.895  0.00  0.00    -0.210 N 
ATOM     22  C   UNL     1       1.176  -0.861   2.137  0.00  0.00    +0.229 C 
ATOM     23  O   UNL     1       0.564  -1.907   2.121  0.00  0.00    -0.275 OA
ATOM     24  H   UNL     1       0.793  -2.910  -1.870  0.00  0.00    +0.155 HD
ATOM     25  N   UNL     1       1.646   0.967  -0.339  0.00  0.00    +0.395 N 
ATOM     26  H   UNL     1       1.693   1.233  -1.330  0.00  0.00    -0.079 HD
ENDROOT
BRANCH  21  27
ATOM     27  C   UNL     1      -0.215   0.216   3.777  0.00  0.00    +0.049 A 
ATOM     28  C   UNL     1      -1.476   0.571   3.317  0.00  0.00    +0.057 A 
ATOM     29  C   UNL     1      -2.548   0.586   4.189  0.00  0.00    +0.128 A 
ATOM     30  C   UNL     1      -2.365   0.249   5.518  0.00  0.00    +0.033 A 
ATOM     31  C   UNL     1      -1.110  -0.103   5.978  0.00  0.00    +0.007 A 
ATOM     32  C   UNL     1      -0.036  -0.127   5.110  0.00  0.00    -0.028 A 
ATOM     33  C   UNL     1       1.330  -0.519   5.611  0.00  0.00    +0.045 C 
BRANCH  29  34
ATOM     34  N   UNL     1      -3.893   0.964   3.700  0.00  0.00    +0.056 N 
ATOM     35  O   UNL     1      -4.054   1.261   2.530  0.00  0.00    -0.126 OA
ATOM     36  O   UNL     1      -4.838   0.978   4.468  0.00  0.00    -0.126 OA
ENDBRANCH  29  34
ENDBRANCH  21  27
TORSDOF 2
