REMARK  Name = ZINC23827016
REMARK  7 active torsions:
REMARK  status: ('A' for Active; 'I' for Inactive)
REMARK    1  A    between atoms: C_4  and  O_7
REMARK    2  A    between atoms: O_7  and  C_8
REMARK    3  A    between atoms: C_13  and  N_14
REMARK    4  A    between atoms: C_15  and  C_17
REMARK    5  A    between atoms: C_17  and  N_18
REMARK    6  A    between atoms: N_21  and  S_24
REMARK    7  A    between atoms: S_24  and  C_27
REMARK                            x       y       z     vdW  Elec       q    Type
REMARK                         _______ _______ _______ _____ _____    ______ ____
ROOT
ATOM      1  N   UNL     1       3.388  -1.726  -7.815  0.00  0.00    -0.284 N 
ATOM      2  C   UNL     1       3.604  -1.608  -6.490  0.00  0.00    +0.201 C 
ATOM      3  O   UNL     1       3.634  -2.598  -5.790  0.00  0.00    -0.278 OA
ATOM      4  H   UNL     1       3.465  -0.843  -8.466  0.00  0.00    +0.155 HD
ENDROOT
BRANCH   1  10
ATOM      5  C   UNL     1       2.428  -3.049  -9.601  0.00  0.00    +0.150 A 
ATOM      6  C   UNL     1       2.115  -4.287 -10.141  0.00  0.00    +0.048 A 
ATOM      7  C   UNL     1       2.424  -5.442  -9.447  0.00  0.00    +0.004 A 
ATOM      8  C   UNL     1       3.050  -5.367  -8.217  0.00  0.00    +0.002 A 
ATOM      9  C   UNL     1       3.371  -4.138  -7.674  0.00  0.00    +0.027 A 
ATOM     10  C   UNL     1       3.064  -2.974  -8.364  0.00  0.00    +0.076 A 
BRANCH   5  11
ATOM     11  O   UNL     1       2.120  -1.912 -10.279  0.00  0.00    -0.454 OA
BRANCH  11  15
ATOM     12  C   UNL     1       5.057  -0.191 -12.609  0.00  0.00    +0.000 A 
ATOM     13  C   UNL     1       3.843   0.450 -12.445  0.00  0.00    +0.004 A 
ATOM     14  C   UNL     1       2.857  -0.125 -11.666  0.00  0.00    +0.046 A 
ATOM     15  C   UNL     1       3.087  -1.345 -11.047  0.00  0.00    +0.129 A 
ATOM     16  C   UNL     1       4.309  -1.983 -11.209  0.00  0.00    +0.046 A 
ATOM     17  C   UNL     1       5.289  -1.407 -11.993  0.00  0.00    +0.004 A 
ENDBRANCH  11  15
ENDBRANCH   5  11
ENDBRANCH   1  10
BRANCH   2  18
ATOM     18  C   UNL     1       3.809  -0.246  -5.879  0.00  0.00    +0.019 C 
BRANCH  18  19
ATOM     19  N   UNL     1       4.167  -0.394  -4.462  0.00  0.00    +0.387 N 
ATOM     20  C   UNL     1       3.051  -0.965  -3.694  0.00  0.00    -0.061 C 
ATOM     21  C   UNL     1       3.395  -0.935  -2.201  0.00  0.00    +0.091 C 
ATOM     22  N   UNL     1       4.691  -1.604  -2.006  0.00  0.00    -0.180 NA
ATOM     23  C   UNL     1       5.827  -1.174  -2.835  0.00  0.00    +0.091 C 
ATOM     24  C   UNL     1       5.386  -1.198  -4.308  0.00  0.00    -0.061 C 
ATOM     25  H   UNL     1       4.373   0.608  -4.057  0.00  0.00    -0.081 HD
BRANCH  22  26
ATOM     26  S   UNL     1       4.867  -2.804  -0.879  0.00  0.00    +0.067 S 
ATOM     27  O   UNL     1       3.848  -2.603   0.091  0.00  0.00    -0.152 OA
ATOM     28  O   UNL     1       6.246  -2.843  -0.539  0.00  0.00    -0.152 OA
BRANCH  26  29
ATOM     29  C   UNL     1       4.503  -4.330  -1.682  0.00  0.00    +0.144 A 
ATOM     30  C   UNL     1       5.341  -5.170  -2.337  0.00  0.00    +0.038 A 
ATOM     31  C   UNL     1       4.829  -6.326  -2.897  0.00  0.00    +0.030 A 
ATOM     32  C   UNL     1       3.502  -6.584  -2.774  0.00  0.00    +0.080 A 
ATOM     33  S   UNL     1       2.936  -5.170  -1.844  0.00  0.00    -0.057 S 
ATOM     34 CL   UNL     1       2.591  -7.936  -3.372  0.00  0.00    -0.076 Cl
ENDBRANCH  26  29
ENDBRANCH  22  26
ENDBRANCH  18  19
ENDBRANCH   2  18
TORSDOF 7
