REMARK  Name = ZINC28656329
REMARK  8 active torsions:
REMARK  status: ('A' for Active; 'I' for Inactive)
REMARK    1  A    between atoms: C_1  and  C_2
REMARK    2  A    between atoms: C_2  and  C_3
REMARK    3  A    between atoms: C_7  and  C_9
REMARK    4  A    between atoms: C_10  and  C_26
REMARK    5  A    between atoms: C_12  and  C_15
REMARK    6  A    between atoms: C_15  and  N_16
REMARK    7  A    between atoms: N_16  and  C_17
REMARK    8  A    between atoms: C_20  and  C_23
REMARK                            x       y       z     vdW  Elec       q    Type
REMARK                         _______ _______ _______ _____ _____    ______ ____
ROOT
ATOM      1  C   UNL     1       4.003   0.005   2.767  0.00  0.00    +0.093 A 
ATOM      2  C   UNL     1       4.885   0.489   1.817  0.00  0.00    +0.098 A 
ATOM      3  N   UNL     1       6.015   0.836   2.460  0.00  0.00    -0.230 NA
ATOM      4  C   UNL     1       5.884   0.598   3.735  0.00  0.00    +0.125 A 
ATOM      5  N   UNL     1       4.657   0.089   3.976  0.00  0.00    -0.339 N 
ATOM      6  H   UNL     1       4.302  -0.172   4.840  0.00  0.00    +0.167 HD
ENDROOT
BRANCH   2   7
ATOM      7  C   UNL     1       4.633   0.603   0.362  0.00  0.00    +0.006 A 
ATOM      8  C   UNL     1       3.852  -0.352  -0.289  0.00  0.00    +0.014 A 
ATOM      9  C   UNL     1       3.618  -0.244  -1.644  0.00  0.00    +0.050 A 
ATOM     10  C   UNL     1       4.156   0.812  -2.364  0.00  0.00    +0.166 A 
ATOM     11  C   UNL     1       4.937   1.770  -1.718  0.00  0.00    +0.167 A 
ATOM     12  C   UNL     1       5.170   1.669  -0.359  0.00  0.00    +0.059 A 
ATOM     13  O   UNL     1       5.342   2.694  -2.638  0.00  0.00    -0.453 OA
ATOM     14  C   UNL     1       5.144   2.071  -3.921  0.00  0.00    +0.466 C 
ATOM     15  O   UNL     1       4.073   1.137  -3.687  0.00  0.00    -0.453 OA
ENDBRANCH   2   7
BRANCH   1  20
ATOM     16  C   UNL     1       0.731  -0.503   1.223  0.00  0.00    +0.042 A 
ATOM     17  C   UNL     1       0.106  -1.399   2.071  0.00  0.00    +0.023 A 
ATOM     18  C   UNL     1       0.780  -1.857   3.196  0.00  0.00    +0.004 A 
ATOM     19  C   UNL     1       2.063  -1.399   3.430  0.00  0.00    +0.030 A 
ATOM     20  C   UNL     1       2.635  -0.494   2.532  0.00  0.00    +0.090 A 
ATOM     21  N   UNL     1       1.956  -0.085   1.464  0.00  0.00    -0.250 NA
BRANCH  16  23
ATOM     22  C   UNL     1      -0.019   1.526   0.010  0.00  0.00    +0.010 C 
ATOM     23  C   UNL     1       0.002  -0.004   0.002  0.00  0.00    +0.052 C 
ENDBRANCH  16  23
ENDBRANCH   1  20
BRANCH   4  24
ATOM     24  C   UNL     1       6.938   0.856   4.781  0.00  0.00    +0.175 C 
BRANCH  24  25
ATOM     25  N   UNL     1       7.849  -0.289   4.848  0.00  0.00    -0.337 N 
ATOM     26  H   UNL     1       7.713  -1.052   4.265  0.00  0.00    +0.147 HD
BRANCH  25  27
ATOM     27  C   UNL     1       8.911  -0.281   5.746  0.00  0.00    +0.027 A 
ATOM     28  C   UNL     1       9.102   0.813   6.585  0.00  0.00    +0.023 A 
ATOM     29  C   UNL     1      10.152   0.824   7.475  0.00  0.00    +0.015 A 
ATOM     30  C   UNL     1      11.026  -0.265   7.537  0.00  0.00    +0.037 A 
ATOM     31  C   UNL     1      10.831  -1.363   6.693  0.00  0.00    +0.015 A 
ATOM     32  C   UNL     1       9.776  -1.370   5.809  0.00  0.00    +0.023 A 
BRANCH  30  33
ATOM     33  C   UNL     1      12.152  -0.257   8.489  0.00  0.00    +0.242 C 
ATOM     34  O   UNL     1      12.320   0.699   9.223  0.00  0.00    -0.270 OA
ATOM     35  N   UNL     1      12.994  -1.308   8.547  0.00  0.00    -0.325 N 
ATOM     36  H   UNL     1      12.859  -2.070   7.962  0.00  0.00    +0.145 HD
ATOM     37  H   UNL     1      13.734  -1.302   9.174  0.00  0.00    +0.145 HD
ENDBRANCH  30  33
ENDBRANCH  25  27
ENDBRANCH  24  25
ENDBRANCH   4  24
TORSDOF 7
