REMARK  Name = ZINC04631762
REMARK  9 active torsions:
REMARK  status: ('A' for Active; 'I' for Inactive)
REMARK    1  A    between atoms: C_1  and  C_2
REMARK    2  A    between atoms: C_2  and  C_3
REMARK    3  A    between atoms: C_2  and  C_4
REMARK    4  A    between atoms: C_2  and  C_5
REMARK    5  A    between atoms: N_20  and  C_23
REMARK    6  A    between atoms: C_24  and  C_30
REMARK    7  A    between atoms: C_24  and  C_32
REMARK    8  A    between atoms: C_25  and  N_29
REMARK    9  A    between atoms: C_26  and  C_27
REMARK                            x       y       z     vdW  Elec       q    Type
REMARK                         _______ _______ _______ _____ _____    ______ ____
ROOT
ATOM      1  C   UNL     1       1.130  -4.727   0.911  0.00  0.00    -0.001 C 
ATOM      2  C   UNL     1       2.476  -4.220   0.375  0.00  0.00    +0.031 C 
ATOM      3  C   UNL     1       2.397  -2.717   0.289  0.00  0.00    -0.021 C 
ATOM      4  C   UNL     1       1.259  -2.114   0.006  0.00  0.00    -0.028 C 
ATOM      5  C   UNL     1      -0.016  -2.842  -0.302  0.00  0.00    +0.043 C 
ATOM      6  C   UNL     1       0.038  -4.334  -0.081  0.00  0.00    +0.014 C 
ATOM      7  C   UNL     1      -1.149  -2.176   0.471  0.00  0.00    +0.117 C 
ATOM      8  C   UNL     1      -0.910  -2.247   1.946  0.00  0.00    -0.008 A 
ATOM      9  C   UNL     1       0.103  -1.744   2.733  0.00  0.00    +0.006 A 
ATOM     10  C   UNL     1       0.024  -1.991   4.099  0.00  0.00    +0.000 A 
ATOM     11  C   UNL     1      -1.023  -2.709   4.640  0.00  0.00    +0.002 A 
ATOM     12  C   UNL     1      -2.046  -3.219   3.855  0.00  0.00    +0.024 A 
ATOM     13  C   UNL     1      -1.978  -2.977   2.482  0.00  0.00    +0.040 A 
ATOM     14  N   UNL     1      -2.849  -3.362   1.478  0.00  0.00    -0.273 N 
ATOM     15  C   UNL     1      -2.441  -2.937   0.264  0.00  0.00    +0.234 C 
ATOM     16  O   UNL     1      -3.005  -3.127  -0.793  0.00  0.00    -0.274 OA
ATOM     17  C   UNL     1      -4.069  -4.140   1.706  0.00  0.00    +0.138 C 
ATOM     18  C   UNL     1      -1.310  -0.731   0.017  0.00  0.00    +0.199 C 
ATOM     19  C   UNL     1       0.002  -0.004   0.002  0.00  0.00    +0.055 C 
ATOM     20  C   UNL     1       1.206  -0.629  -0.013  0.00  0.00    +0.074 C 
ENDROOT
BRANCH   1  22
ATOM     21  C   UNL     1       1.471  -6.882  -0.305  0.00  0.00    +0.011 C 
ATOM     22  C   UNL     1       1.173  -6.250   1.055  0.00  0.00    -0.035 C 
ATOM     23  C   UNL     1       2.268  -6.638   2.050  0.00  0.00    +0.011 C 
ATOM     24  C   UNL     1      -0.180  -6.752   1.565  0.00  0.00    +0.011 C 
ENDBRANCH   1  22
BRANCH  19  25
ATOM     25  N   UNL     1      -0.017   1.362   0.009  0.00  0.00    -0.358 N 
ATOM     26  H   UNL     1       0.928   1.925  -0.001  0.00  0.00    +0.142 HD
ATOM     27  H   UNL     1      -0.976   1.899   0.026  0.00  0.00    +0.142 HD
ENDBRANCH  19  25
BRANCH  20  28
ATOM     28  C   UNL     1       2.416   0.136  -0.047  0.00  0.00    +0.101 C 
ATOM     29  N   UNL     1       3.376   0.743  -0.075  0.00  0.00    -0.191 NA
ENDBRANCH  20  28
BRANCH  18  30
ATOM     30  C   UNL     1      -2.233  -0.038   0.930  0.00  0.00    +0.092 C 
ATOM     31  N   UNL     1      -2.945   0.497   1.635  0.00  0.00    -0.194 NA
ENDBRANCH  18  30
BRANCH  18  32
ATOM     32  C   UNL     1      -1.880  -0.720  -1.340  0.00  0.00    +0.092 C 
ATOM     33  N   UNL     1      -2.321  -0.711  -2.387  0.00  0.00    -0.194 NA
ENDBRANCH  18  32
TORSDOF 5
