REMARK  Name = ZINC21741119
REMARK  8 active torsions:
REMARK  status: ('A' for Active; 'I' for Inactive)
REMARK    1  A    between atoms: C_1  and  C_2
REMARK    2  A    between atoms: C_2  and  C_3
REMARK    3  A    between atoms: C_3  and  C_25
REMARK    4  A    between atoms: N_6  and  C_10
REMARK    5  A    between atoms: C_10  and  C_11
REMARK    6  A    between atoms: N_16  and  C_17
REMARK    7  A    between atoms: C_20  and  C_24
REMARK    8  A    between atoms: C_21  and  C_23
REMARK                            x       y       z     vdW  Elec       q    Type
REMARK                         _______ _______ _______ _____ _____    ______ ____
ROOT
ATOM      1  C   UNL     1      10.012   1.734  -0.058  0.00  0.00    +0.138 C 
ATOM      2  C   UNL     1       8.942   2.651  -0.617  0.00  0.00    +0.251 C 
ATOM      3  O   UNL     1       8.731   2.904  -1.784  0.00  0.00    -0.272 OA
ATOM      4  N   UNL     1       8.273   3.124   0.453  0.00  0.00    -0.215 N 
ATOM      5  C   UNL     1       8.770   2.643   1.598  0.00  0.00    +0.310 C 
ATOM      6  O   UNL     1       8.335   2.930   2.696  0.00  0.00    -0.252 OA
ATOM      7  N   UNL     1       9.802   1.804   1.398  0.00  0.00    -0.281 N 
ATOM      8  H   UNL     1      10.446   1.224   2.075  0.00  0.00    +0.152 HD
ENDROOT
BRANCH   1   9
ATOM      9  C   UNL     1       9.818   0.326  -0.558  0.00  0.00    -0.015 A 
ATOM     10  C   UNL     1      10.433  -0.084  -1.726  0.00  0.00    +0.007 A 
ATOM     11  C   UNL     1      10.259  -1.377  -2.182  0.00  0.00    +0.020 A 
ATOM     12  C   UNL     1       9.461  -2.259  -1.474  0.00  0.00    +0.041 A 
ATOM     13  C   UNL     1       8.841  -1.846  -0.308  0.00  0.00    +0.020 A 
ATOM     14  C   UNL     1       9.020  -0.554   0.149  0.00  0.00    +0.007 A 
ATOM     15 CL   UNL     1       9.236  -3.881  -2.050  0.00  0.00    -0.084 Cl
ENDBRANCH   1   9
BRANCH   1  17
ATOM     16  C   UNL     1      11.644   3.603   0.241  0.00  0.00    +0.007 C 
ATOM     17  C   UNL     1      11.406   2.247  -0.427  0.00  0.00    +0.037 C 
ENDBRANCH   1  17
BRANCH   4  18
ATOM     18  C   UNL     1       7.145   4.056   0.372  0.00  0.00    +0.214 C 
BRANCH  18  19
ATOM     19  C   UNL     1       5.859   3.279   0.267  0.00  0.00    +0.238 C 
ATOM     20  O   UNL     1       5.881   2.067   0.260  0.00  0.00    -0.274 OA
ATOM     21  N   UNL     1       4.682   3.931   0.180  0.00  0.00    -0.239 N 
ATOM     22  C   UNL     1       3.531   3.236   0.086  0.00  0.00    +0.310 C 
ATOM     23  O   UNL     1       3.554   2.021   0.080  0.00  0.00    -0.252 OA
ATOM     24  N   UNL     1       2.355   3.889   0.000  0.00  0.00    -0.269 N 
ATOM     25  H   UNL     1       4.662   5.031   0.186  0.00  0.00    +0.159 HD
ATOM     26  H   UNL     1       2.340   4.986  -0.082  0.00  0.00    +0.156 HD
BRANCH  24  27
ATOM     27  C   UNL     1       1.154   3.171   0.015  0.00  0.00    +0.035 A 
ATOM     28  C   UNL     1       1.050   2.003   0.760  0.00  0.00    +0.023 A 
ATOM     29  C   UNL     1      -0.136   1.297   0.772  0.00  0.00    +0.005 A 
ATOM     30  C   UNL     1      -1.218   1.748   0.039  0.00  0.00    -0.047 A 
ATOM     31  C   UNL     1      -1.120   2.913  -0.700  0.00  0.00    -0.046 A 
ATOM     32  C   UNL     1       0.064   3.624  -0.716  0.00  0.00    +0.027 A 
ATOM     33  C   UNL     1      -2.304   3.404  -1.492  0.00  0.00    +0.044 C 
ATOM     34  C   UNL     1      -2.510   0.971   0.049  0.00  0.00    +0.044 C 
ENDBRANCH  24  27
ENDBRANCH  18  19
ENDBRANCH   4  18
TORSDOF 5
