REMARK  Name = ZINC09598641
REMARK  3 active torsions:
REMARK  status: ('A' for Active; 'I' for Inactive)
REMARK    1  A    between atoms: C_6  and  N_7
REMARK    2  A    between atoms: N_15  and  C_18
REMARK    3  A    between atoms: C_18  and  C_19
REMARK                            x       y       z     vdW  Elec       q    Type
REMARK                         _______ _______ _______ _____ _____    ______ ____
ROOT
ATOM      1  N   UNL     1       2.349   4.546   0.003  0.00  0.00    -0.228 N 
ATOM      2  C   UNL     1       3.529   3.890   0.090  0.00  0.00    +0.275 A 
ATOM      3  O   UNL     1       3.555   2.675   0.176  0.00  0.00    -0.266 OA
ATOM      4  C   UNL     1       4.717   4.627   0.080  0.00  0.00    +0.101 A 
ATOM      5  C   UNL     1       4.712   6.021  -0.018  0.00  0.00    +0.066 A 
ATOM      6  C   UNL     1       5.973   6.612  -0.015  0.00  0.00    +0.034 A 
ATOM      7  C   UNL     1       7.080   5.840   0.079  0.00  0.00    +0.048 A 
ATOM      8  S   UNL     1       6.442   4.230   0.169  0.00  0.00    -0.090 S 
ATOM      9  N   UNL     1       3.448   6.627  -0.105  0.00  0.00    -0.287 N 
ATOM     10  C   UNL     1       2.330   5.886  -0.097  0.00  0.00    +0.337 A 
ATOM     11  O   UNL     1       1.256   6.450  -0.179  0.00  0.00    -0.246 OA
ENDROOT
BRANCH   1  17
ATOM     12  C   UNL     1       0.593   3.384  -1.183  0.00  0.00    +0.029 A 
ATOM     13  C   UNL     1      -0.593   2.675  -1.173  0.00  0.00    +0.042 A 
ATOM     14  C   UNL     1      -1.227   2.401   0.026  0.00  0.00    +0.142 A 
ATOM     15  C   UNL     1      -0.680   2.847   1.219  0.00  0.00    +0.078 A 
ATOM     16  C   UNL     1       0.506   3.557   1.213  0.00  0.00    +0.049 A 
ATOM     17  C   UNL     1       1.146   3.827   0.011  0.00  0.00    +0.056 A 
ATOM     18 CL   UNL     1      -1.481   2.508   2.721  0.00  0.00    -0.081 Cl
ATOM     19  F   UNL     1      -2.384   1.704   0.034  0.00  0.00    -0.204 F 
ENDBRANCH   1  17
BRANCH   9  20
ATOM     20  C   UNL     1       3.349   8.085  -0.211  0.00  0.00    +0.182 C 
BRANCH  20  21
ATOM     21  C   UNL     1       3.366   8.486  -1.663  0.00  0.00    +0.069 A 
ATOM     22  C   UNL     1       2.254   9.080  -2.228  0.00  0.00    +0.095 A 
ATOM     23  C   UNL     1       2.293   9.444  -3.579  0.00  0.00    +0.259 A 
ATOM     24  O   UNL     1       1.327   9.971  -4.107  0.00  0.00    -0.267 OA
ATOM     25  N   UNL     1       3.416   9.202  -4.288  0.00  0.00    -0.267 N 
ATOM     26  C   UNL     1       3.470   9.551  -5.604  0.00  0.00    +0.116 A 
ATOM     27  C   UNL     1       4.584   9.320  -6.335  0.00  0.00    +0.058 A 
ATOM     28  C   UNL     1       5.702   8.715  -5.743  0.00  0.00    +0.025 A 
ATOM     29  C   UNL     1       5.658   8.362  -4.428  0.00  0.00    +0.048 A 
ATOM     30  C   UNL     1       4.490   8.611  -3.683  0.00  0.00    +0.141 A 
ATOM     31  N   UNL     1       4.447   8.273  -2.396  0.00  0.00    -0.232 NA
ATOM     32 CL   UNL     1       4.630   9.773  -8.011  0.00  0.00    -0.082 Cl
ENDBRANCH  20  21
ENDBRANCH   9  20
TORSDOF 3
