REMARK  Name = ZINC33169059
REMARK  5 active torsions:
REMARK  status: ('A' for Active; 'I' for Inactive)
REMARK    1  A    between atoms: C_1  and  C_2
REMARK    2  A    between atoms: C_9  and  C_11
REMARK    3  A    between atoms: C_14  and  N_18
REMARK    4  A    between atoms: N_18  and  S_19
REMARK    5  A    between atoms: S_19  and  C_22
REMARK                            x       y       z     vdW  Elec       q    Type
REMARK                         _______ _______ _______ _____ _____    ______ ____
ROOT
ATOM      1  C   UNL     1      -0.027   0.047   0.055  0.00  0.00    +0.026 A 
ATOM      2  C   UNL     1       1.184  -0.647   0.098  0.00  0.00    +0.014 A 
ATOM      3  C   UNL     1       2.375   0.045   0.072  0.00  0.00    +0.027 A 
ATOM      4  C   UNL     1       2.373   1.435   0.005  0.00  0.00    +0.075 A 
ATOM      5  C   UNL     1       1.169   2.130  -0.038  0.00  0.00    +0.047 A 
ATOM      6  C   UNL     1      -0.026   1.443  -0.014  0.00  0.00    +0.052 A 
ATOM      7 CL   UNL     1      -1.529   2.311  -0.074  0.00  0.00    -0.083 Cl
ENDROOT
BRANCH   1  16
ATOM      8  C   UNL     1      -6.788  -3.953   0.201  0.00  0.00    +0.044 C 
ATOM      9  C   UNL     1      -5.675  -2.938   0.159  0.00  0.00    -0.049 A 
ATOM     10  C   UNL     1      -5.964  -1.582   0.090  0.00  0.00    +0.005 A 
ATOM     11  C   UNL     1      -4.982  -0.643   0.052  0.00  0.00    +0.029 A 
ATOM     12  C   UNL     1      -3.618  -1.019   0.081  0.00  0.00    +0.079 A 
ATOM     13  C   UNL     1      -3.355  -2.407   0.150  0.00  0.00    +0.040 A 
ATOM     14  C   UNL     1      -4.355  -3.348   0.189  0.00  0.00    +0.020 A 
ATOM     15  S   UNL     1      -1.579  -2.457   0.159  0.00  0.00    -0.067 S 
ATOM     16  C   UNL     1      -1.305  -0.692   0.082  0.00  0.00    +0.111 A 
ATOM     17  N   UNL     1      -2.533  -0.220   0.050  0.00  0.00    -0.239 NA
ENDBRANCH   1  16
BRANCH   4  18
ATOM     18  N   UNL     1       3.579   2.131  -0.020  0.00  0.00    -0.103 NA
BRANCH  18  19
ATOM     19  S   UNL     1       3.807   3.353  -1.114  0.00  0.00    +0.059 S 
ATOM     20  O   UNL     1       2.717   4.239  -0.900  0.00  0.00    -0.154 OA
ATOM     21  O   UNL     1       5.144   3.786  -0.902  0.00  0.00    -0.154 OA
ATOM     22  C   UNL     1       3.658   2.559  -2.738  0.00  0.00    +0.220 C 
ENDBRANCH  18  19
ENDBRANCH   4  18
TORSDOF 3
