REMARK  Name = ZINC58200774
REMARK  4 active torsions:
REMARK  status: ('A' for Active; 'I' for Inactive)
REMARK    1  A    between atoms: C_4  and  N_8
REMARK    2  A    between atoms: N_11  and  C_12
REMARK    3  A    between atoms: N_15  and  C_17
REMARK    4  A    between atoms: C_17  and  C_18
REMARK                            x       y       z     vdW  Elec       q    Type
REMARK                         _______ _______ _______ _____ _____    ______ ____
ROOT
ATOM      1  N   UNL     1       3.623  -0.652  -0.037  0.00  0.00    -0.268 N 
ATOM      2  C   UNL     1       3.646  -1.996   0.057  0.00  0.00    +0.308 C 
ATOM      3  O   UNL     1       2.604  -2.623   0.065  0.00  0.00    -0.252 OA
ATOM      4  N   UNL     1       4.824  -2.646   0.143  0.00  0.00    -0.267 N 
ATOM      5  H   UNL     1       4.453  -0.158  -0.126  0.00  0.00    +0.156 HD
ATOM      6  H   UNL     1       5.655  -2.145   0.137  0.00  0.00    +0.156 HD
ENDROOT
BRANCH   1  10
ATOM      7  C   UNL     1      -0.015   1.381   0.049  0.00  0.00    +0.021 A 
ATOM      8  C   UNL     1       1.082   1.956  -0.567  0.00  0.00    +0.023 A 
ATOM      9  C   UNL     1       2.290   1.285  -0.597  0.00  0.00    +0.062 A 
ATOM     10  C   UNL     1       2.401   0.031  -0.008  0.00  0.00    +0.055 A 
ATOM     11  C   UNL     1       1.298  -0.543   0.610  0.00  0.00    +0.044 A 
ATOM     12  C   UNL     1       0.093   0.134   0.636  0.00  0.00    +0.043 A 
ATOM     13 CL   UNL     1      -1.287  -0.583   1.408  0.00  0.00    -0.083 Cl
ATOM     14 CL   UNL     1       3.666   2.006  -1.371  0.00  0.00    -0.082 Cl
ENDBRANCH   1  10
BRANCH   4  15
ATOM     15  C   UNL     1       4.848  -4.050   0.242  0.00  0.00    +0.072 A 
ATOM     16  C   UNL     1       3.730  -4.896   0.256  0.00  0.00    +0.157 A 
ATOM     17  N   UNL     1       4.150  -6.131   0.358  0.00  0.00    -0.177 NA
ATOM     18  N   UNL     1       5.549  -6.119   0.413  0.00  0.00    -0.265 N 
ATOM     19  C   UNL     1       5.958  -4.826   0.334  0.00  0.00    +0.132 A 
BRANCH  18  20
ATOM     20  C   UNL     1       6.418  -7.293   0.530  0.00  0.00    +0.178 C 
BRANCH  20  21
ATOM     21  C   UNL     1       6.014  -8.099   1.738  0.00  0.00    -0.023 A 
ATOM     22  C   UNL     1       6.576  -7.847   2.980  0.00  0.00    +0.025 A 
ATOM     23  C   UNL     1       6.181  -8.607   4.064  0.00  0.00    +0.111 A 
ATOM     24  N   UNL     1       5.281  -9.561   3.927  0.00  0.00    -0.263 NA
ATOM     25  C   UNL     1       4.725  -9.828   2.762  0.00  0.00    +0.111 A 
ATOM     26  C   UNL     1       5.067  -9.106   1.634  0.00  0.00    +0.025 A 
ENDBRANCH  20  21
ENDBRANCH  18  20
ENDBRANCH   4  15
TORSDOF 4
