REMARK  Name = ZINC41019614
REMARK  6 active torsions:
REMARK  status: ('A' for Active; 'I' for Inactive)
REMARK    1  A    between atoms: C_1  and  C_2
REMARK    2  A    between atoms: C_6  and  N_9
REMARK    3  A    between atoms: C_7  and  C_8
REMARK    4  A    between atoms: C_10  and  C_12
REMARK    5  A    between atoms: C_13  and  C_29
REMARK    6  A    between atoms: C_20  and  C_22
REMARK                            x       y       z     vdW  Elec       q    Type
REMARK                         _______ _______ _______ _____ _____    ______ ____
ROOT
ATOM      1  C   UNL     1       0.707  -4.936   3.970  0.00  0.00    +0.060 C 
ATOM      2  C   UNL     1       0.602  -6.237   3.667  0.00  0.00    +0.018 C 
ATOM      3  N   UNL     1       0.646  -7.221   4.625  0.00  0.00    -0.286 N 
ATOM      4  C   UNL     1       0.544  -6.824   5.951  0.00  0.00    +0.240 A 
ATOM      5  N   UNL     1       0.344  -7.515   7.036  0.00  0.00    -0.092 NA
ATOM      6  N   UNL     1       0.313  -6.736   8.063  0.00  0.00    -0.021 NA
ATOM      7  N   UNL     1       0.492  -5.507   7.702  0.00  0.00    -0.042 NA
ATOM      8  N   UNL     1       0.652  -5.520   6.317  0.00  0.00    -0.201 N 
ATOM      9  C   UNL     1       0.898  -4.432   5.377  0.00  0.00    +0.180 C 
ATOM     10  C   UNL     1       0.431  -6.636   2.223  0.00  0.00    +0.061 C 
ATOM     11  H   UNL     1       0.744  -8.155   4.385  0.00  0.00    +0.155 HD
ENDROOT
BRANCH   9  12
ATOM     12  C   UNL     1       2.308  -3.926   5.542  0.00  0.00    -0.000 A 
ATOM     13  C   UNL     1       3.371  -4.807   5.470  0.00  0.00    +0.007 A 
ATOM     14  C   UNL     1       4.664  -4.344   5.622  0.00  0.00    +0.000 A 
ATOM     15  C   UNL     1       4.896  -2.999   5.846  0.00  0.00    +0.001 A 
ATOM     16  C   UNL     1       3.834  -2.118   5.918  0.00  0.00    +0.020 A 
ATOM     17  C   UNL     1       2.539  -2.580   5.760  0.00  0.00    +0.046 A 
ATOM     18 CL   UNL     1       1.205  -1.472   5.844  0.00  0.00    -0.083 Cl
ENDBRANCH   9  12
BRANCH   1  20
ATOM     19  N   UNL     1       1.696  -3.816   2.102  0.00  0.00    -0.281 N 
ATOM     20  C   UNL     1       0.639  -3.991   2.920  0.00  0.00    +0.248 C 
ATOM     21  O   UNL     1      -0.374  -3.336   2.753  0.00  0.00    -0.270 OA
ATOM     22  H   UNL     1       2.464  -4.404   2.170  0.00  0.00    +0.155 HD
BRANCH  19  28
ATOM     23  C   UNL     1       4.160  -0.556  -0.631  0.00  0.00    +0.044 C 
ATOM     24  C   UNL     1       2.866  -1.187  -0.186  0.00  0.00    -0.046 A 
ATOM     25  C   UNL     1       1.666  -0.745  -0.713  0.00  0.00    +0.004 A 
ATOM     26  C   UNL     1       0.476  -1.321  -0.307  0.00  0.00    +0.002 A 
ATOM     27  C   UNL     1       0.482  -2.339   0.627  0.00  0.00    +0.023 A 
ATOM     28  C   UNL     1       1.686  -2.785   1.157  0.00  0.00    +0.037 A 
ATOM     29  C   UNL     1       2.880  -2.208   0.743  0.00  0.00    -0.026 A 
ATOM     30  C   UNL     1       4.189  -2.693   1.311  0.00  0.00    +0.046 C 
ENDBRANCH  19  28
ENDBRANCH   1  20
TORSDOF 3
