REMARK  Name = ZINC18183006
REMARK  4 active torsions:
REMARK  status: ('A' for Active; 'I' for Inactive)
REMARK    1  A    between atoms: C_1  and  C_2
REMARK    2  A    between atoms: C_5  and  C_8
REMARK    3  A    between atoms: C_17  and  C_20
REMARK    4  A    between atoms: C_20  and  N_22
REMARK                            x       y       z     vdW  Elec       q    Type
REMARK                         _______ _______ _______ _____ _____    ______ ____
ROOT
ATOM      1  C   UNL     1       0.111  -4.279  -0.026  0.00  0.00    -0.003 C 
ATOM      2  C   UNL     1      -1.142  -4.785  -0.743  0.00  0.00    +0.015 C 
ATOM      3  C   UNL     1      -1.142  -6.315  -0.750  0.00  0.00    -0.009 C 
ATOM      4  C   UNL     1       0.103  -6.822  -1.480  0.00  0.00    +0.007 C 
ATOM      5  C   UNL     1       1.356  -6.316  -0.763  0.00  0.00    -0.009 C 
ATOM      6  C   UNL     1       1.356  -4.786  -0.756  0.00  0.00    +0.015 C 
ATOM      7  C   UNL     1       1.363  -6.832   0.678  0.00  0.00    +0.019 C 
ATOM      8  C   UNL     1       0.118  -6.325   1.407  0.00  0.00    +0.050 C 
ATOM      9  C   UNL     1      -1.135  -6.832   0.691  0.00  0.00    +0.019 C 
ATOM     10  C   UNL     1       0.118  -4.795   1.414  0.00  0.00    +0.027 C 
ENDROOT
BRANCH   1  15
ATOM     11  C   UNL     1       0.108   1.500  -0.002  0.00  0.00    +0.044 C 
ATOM     12  C   UNL     1       0.109  -0.007  -0.008  0.00  0.00    -0.050 A 
ATOM     13  C   UNL     1       0.104  -0.693  -1.208  0.00  0.00    +0.003 A 
ATOM     14  C   UNL     1       0.105  -2.075  -1.214  0.00  0.00    +0.004 A 
ATOM     15  C   UNL     1       0.111  -2.772  -0.020  0.00  0.00    -0.041 A 
ATOM     16  C   UNL     1       0.117  -2.086   1.180  0.00  0.00    +0.004 A 
ATOM     17  C   UNL     1       0.120  -0.703   1.186  0.00  0.00    +0.003 A 
ENDBRANCH   1  15
BRANCH   8  18
ATOM     18  C   UNL     1       0.125  -6.833   2.826  0.00  0.00    +0.244 C 
ATOM     19  O   UNL     1       0.130  -6.047   3.753  0.00  0.00    -0.273 OA
BRANCH  18  20
ATOM     20  N   UNL     1       0.126  -8.143   3.064  0.00  0.00    -0.159 NA
ATOM     21  C   UNL     1       0.239  -8.591   4.309  0.00  0.00    +0.146 C 
ATOM     22  N   UNL     1       0.248  -7.836   5.431  0.00  0.00    -0.325 N 
ATOM     23  C   UNL     1       0.379  -8.468   6.727  0.00  0.00    +0.114 C 
ATOM     24  C   UNL     1       0.492 -10.001   6.592  0.00  0.00    +0.095 C 
ATOM     25  S   UNL     1       0.389 -10.195   4.771  0.00  0.00    -0.092 S 
ATOM     26  H   UNL     1       0.168  -6.872   5.367  0.00  0.00    +0.148 HD
ENDBRANCH  18  20
ENDBRANCH   8  18
TORSDOF 3
