REMARK  Name = ZINC65518287
REMARK  8 active torsions:
REMARK  status: ('A' for Active; 'I' for Inactive)
REMARK    1  A    between atoms: C_1  and  C_2
REMARK    2  A    between atoms: C_6  and  N_11
REMARK    3  A    between atoms: C_12  and  C_14
REMARK    4  A    between atoms: C_16  and  C_21
REMARK    5  A    between atoms: C_18  and  C_19
REMARK    6  A    between atoms: C_18  and  C_20
REMARK    7  A    between atoms: C_22  and  C_23
REMARK    8  A    between atoms: C_22  and  C_24
REMARK                            x       y       z     vdW  Elec       q    Type
REMARK                         _______ _______ _______ _____ _____    ______ ____
ROOT
ATOM      1  N   UNL     1      -2.578  -7.746   0.138  0.00  0.00    -0.284 N 
ATOM      2  C   UNL     1      -1.662  -7.324  -0.756  0.00  0.00    +0.221 C 
ATOM      3  O   UNL     1      -1.449  -6.137  -0.891  0.00  0.00    -0.275 OA
ATOM      4  H   UNL     1      -2.696  -8.695   0.300  0.00  0.00    +0.155 HD
ENDROOT
BRANCH   1  10
ATOM      5  C   UNL     1      -8.403  -4.202   2.741  0.00  0.00    +0.067 C 
ATOM      6  C   UNL     1      -7.055  -4.748   2.347  0.00  0.00    +0.057 A 
ATOM      7  C   UNL     1      -6.839  -5.812   1.541  0.00  0.00    +0.115 A 
ATOM      8  N   UNL     1      -5.485  -5.974   1.440  0.00  0.00    -0.305 N 
ATOM      9  C   UNL     1      -4.712  -6.877   0.765  0.00  0.00    +0.116 A 
ATOM     10  C   UNL     1      -3.360  -6.813   0.836  0.00  0.00    +0.050 A 
ATOM     11  C   UNL     1      -2.737  -5.812   1.608  0.00  0.00    +0.028 A 
ATOM     12  C   UNL     1      -3.500  -4.911   2.282  0.00  0.00    +0.048 A 
ATOM     13  C   UNL     1      -4.905  -4.991   2.197  0.00  0.00    +0.138 A 
ATOM     14  N   UNL     1      -5.874  -4.259   2.731  0.00  0.00    -0.233 NA
ENDBRANCH   1  10
BRANCH   2  15
ATOM     15  C   UNL     1      -0.903  -8.325  -1.588  0.00  0.00    +0.089 C 
ATOM     16  C   UNL     1       0.624  -8.238  -1.580  0.00  0.00    +0.030 C 
ATOM     17  C   UNL     1      -0.081  -9.381  -0.846  0.00  0.00    -0.016 C 
ATOM     18  C   UNL     1      -0.092  -9.339   0.683  0.00  0.00    +0.012 C 
ATOM     19  C   UNL     1       0.002 -10.777  -1.468  0.00  0.00    +0.012 C 
BRANCH  16  20
ATOM     20  C   UNL     1       1.255  -7.156  -0.741  0.00  0.00    -0.023 C 
ATOM     21  C   UNL     1       2.542  -6.926  -0.827  0.00  0.00    -0.079 C 
ATOM     22  C   UNL     1       3.391  -7.744  -1.765  0.00  0.00    +0.038 C 
ATOM     23  C   UNL     1       3.172  -5.845   0.011  0.00  0.00    +0.038 C 
ENDBRANCH  16  20
ENDBRANCH   2  15
TORSDOF 3
