REMARK  Name = ZINC25209966
REMARK  7 active torsions:
REMARK  status: ('A' for Active; 'I' for Inactive)
REMARK    1  A    between atoms: C_4  and  C_7
REMARK    2  A    between atoms: C_7  and  C_9
REMARK    3  A    between atoms: C_7  and  C_27
REMARK    4  A    between atoms: C_9  and  C_10
REMARK    5  A    between atoms: N_12  and  C_13
REMARK    6  A    between atoms: C_17  and  N_19
REMARK    7  A    between atoms: C_20  and  C_22
REMARK                            x       y       z     vdW  Elec       q    Type
REMARK                         _______ _______ _______ _____ _____    ______ ____
ROOT
ATOM      1  C   UNL     1      -2.493   0.146   1.290  0.00  0.00    +0.218 C 
ATOM      2  O   UNL     1      -1.631   0.368   2.115  0.00  0.00    -0.275 OA
ATOM      3  N   UNL     1      -3.413  -0.812   1.519  0.00  0.00    -0.285 N 
ATOM      4  H   UNL     1      -4.238  -0.963   0.807  0.00  0.00    +0.155 HD
ENDROOT
BRANCH   3   5
ATOM      5  C   UNL     1      -3.319  -1.615   2.661  0.00  0.00    +0.035 A 
ATOM      6  C   UNL     1      -2.843  -1.078   3.851  0.00  0.00    +0.023 A 
ATOM      7  C   UNL     1      -2.750  -1.869   4.979  0.00  0.00    +0.004 A 
ATOM      8  C   UNL     1      -3.130  -3.197   4.929  0.00  0.00    +0.023 A 
ATOM      9  C   UNL     1      -3.606  -3.740   3.742  0.00  0.00    +0.035 A 
ATOM     10  C   UNL     1      -3.705  -2.946   2.608  0.00  0.00    +0.046 A 
BRANCH   9  11
ATOM     11  N   UNL     1      -3.989  -5.084   3.691  0.00  0.00    -0.281 N 
ATOM     12  C   UNL     1      -3.775  -5.804   2.572  0.00  0.00    +0.255 C 
ATOM     13  O   UNL     1      -3.326  -5.264   1.578  0.00  0.00    -0.269 OA
ATOM     14  H   UNL     1      -4.464  -5.554   4.565  0.00  0.00    +0.155 HD
BRANCH  12  15
ATOM     15  C   UNL     1      -4.082  -7.237   2.552  0.00  0.00    +0.074 A 
ATOM     16  C   UNL     1      -3.938  -8.147   1.517  0.00  0.00    +0.021 A 
ATOM     17  C   UNL     1      -4.307  -9.445   1.770  0.00  0.00    +0.008 A 
ATOM     18  C   UNL     1      -4.786  -9.771   2.999  0.00  0.00    +0.046 A 
ATOM     19  S   UNL     1      -4.733  -8.265   3.857  0.00  0.00    -0.092 S 
ENDBRANCH  12  15
ENDBRANCH   9  11
ENDBRANCH   3   5
BRANCH   1  20
ATOM     20  C   UNL     1      -2.534   0.940   0.011  0.00  0.00    +0.115 C 
BRANCH  20  21
ATOM     21  C   UNL     1      -1.387   1.953   0.002  0.00  0.00    +0.141 C 
BRANCH  21  25
ATOM     22  C   UNL     1      -1.707   4.437  -3.458  0.00  0.00    +0.000 A 
ATOM     23  C   UNL     1      -1.750   5.001  -2.197  0.00  0.00    +0.000 A 
ATOM     24  C   UNL     1      -1.647   4.197  -1.077  0.00  0.00    +0.004 A 
ATOM     25  C   UNL     1      -1.500   2.830  -1.218  0.00  0.00    -0.033 A 
ATOM     26  C   UNL     1      -1.451   2.267  -2.480  0.00  0.00    +0.004 A 
ATOM     27  C   UNL     1      -1.559   3.070  -3.600  0.00  0.00    +0.000 A 
ENDBRANCH  21  25
BRANCH  21  28
ATOM     28  C   UNL     1      -0.070   1.222  -0.024  0.00  0.00    +0.364 C 
ATOM     29  O   UNL     1      -0.050   0.014  -0.036  0.00  0.00    -0.246 OA
ATOM     30  O   UNL     1       1.081   1.912  -0.041  0.00  0.00    -0.246 OA
ENDBRANCH  21  28
ENDBRANCH  20  21
ENDBRANCH   1  20
TORSDOF 7
