REMARK  Name = ZINC02271099
REMARK  8 active torsions:
REMARK  status: ('A' for Active; 'I' for Inactive)
REMARK    1  A    between atoms: C_3  and  C_6
REMARK    2  A    between atoms: N_8  and  C_9
REMARK    3  A    between atoms: C_9  and  C_18
REMARK    4  A    between atoms: C_10  and  C_11
REMARK    5  A    between atoms: N_20  and  C_21
REMARK    6  A    between atoms: C_21  and  C_22
REMARK    7  A    between atoms: C_22  and  C_23
REMARK    8  A    between atoms: C_23  and  C_24
REMARK                            x       y       z     vdW  Elec       q    Type
REMARK                         _______ _______ _______ _____ _____    ______ ____
ROOT
ATOM      1  C   UNL     1      -2.520   1.072  -0.185  0.00  0.00    +0.097 C 
ATOM      2  C   UNL     1      -2.597  -0.119   0.452  0.00  0.00    +0.036 C 
ENDROOT
BRANCH   2   3
ATOM      3  C   UNL     1      -3.902  -0.636   0.890  0.00  0.00    -0.023 A 
ATOM      4  C   UNL     1      -4.843   0.227   1.463  0.00  0.00    +0.009 A 
ATOM      5  C   UNL     1      -6.067  -0.264   1.866  0.00  0.00    +0.016 A 
ATOM      6  C   UNL     1      -6.361  -1.609   1.715  0.00  0.00    +0.018 A 
ATOM      7  C   UNL     1      -5.433  -2.470   1.154  0.00  0.00    +0.016 A 
ATOM      8  C   UNL     1      -4.207  -1.993   0.741  0.00  0.00    +0.009 A 
ATOM      9 BR   UNL     1      -8.040  -2.273   2.278  0.00  0.00    -0.050 Br
ENDBRANCH   2   3
BRANCH   1  12
ATOM     10  C   UNL     1      -0.830   2.037  -1.552  0.00  0.00    +0.284 C 
ATOM     11  O   UNL     1      -1.448   1.691  -2.542  0.00  0.00    -0.266 OA
ATOM     12  N   UNL     1      -1.284   1.711  -0.325  0.00  0.00    -0.275 N 
ATOM     13  H   UNL     1      -0.754   1.920   0.460  0.00  0.00    +0.155 HD
BRANCH  10  16
ATOM     14  C   UNL     1       2.135   3.925  -2.536  0.00  0.00    +0.042 A 
ATOM     15  C   UNL     1       0.973   3.213  -2.869  0.00  0.00    +0.054 A 
ATOM     16  C   UNL     1       0.406   2.813  -1.693  0.00  0.00    +0.189 A 
ATOM     17  O   UNL     1       1.180   3.262  -0.683  0.00  0.00    -0.458 OA
ATOM     18  C   UNL     1       2.227   3.928  -1.188  0.00  0.00    +0.196 A 
ENDBRANCH  10  16
ENDBRANCH   1  12
BRANCH   1  19
ATOM     19  C   UNL     1      -3.735   1.694  -0.730  0.00  0.00    +0.258 C 
ATOM     20  O   UNL     1      -4.784   1.078  -0.735  0.00  0.00    -0.269 OA
ATOM     21  N   UNL     1      -3.688   2.947  -1.223  0.00  0.00    -0.310 N 
ATOM     22  H   UNL     1      -2.851   3.439  -1.219  0.00  0.00    +0.149 HD
BRANCH  21  23
ATOM     23  C   UNL     1      -4.899   3.567  -1.766  0.00  0.00    +0.105 C 
BRANCH  23  24
ATOM     24  C   UNL     1      -4.573   4.980  -2.256  0.00  0.00    +0.030 C 
BRANCH  24  25
ATOM     25  C   UNL     1      -5.838   5.627  -2.824  0.00  0.00    +0.126 C 
BRANCH  25  26
ATOM     26  C   UNL     1      -5.517   7.018  -3.306  0.00  0.00    +0.356 C 
ATOM     27  O   UNL     1      -4.393   7.448  -3.207  0.00  0.00    -0.246 OA
ATOM     28  O   UNL     1      -6.481   7.780  -3.847  0.00  0.00    -0.246 OA
ENDBRANCH  25  26
ENDBRANCH  24  25
ENDBRANCH  23  24
ENDBRANCH  21  23
ENDBRANCH   1  19
TORSDOF 8
