REMARK  Name = ZINC59365695
REMARK  8 active torsions:
REMARK  status: ('A' for Active; 'I' for Inactive)
REMARK    1  A    between atoms: C_1  and  C_2
REMARK    2  A    between atoms: C_2  and  C_3
REMARK    3  A    between atoms: C_3  and  C_5
REMARK    4  A    between atoms: C_3  and  C_6
REMARK    5  A    between atoms: C_9  and  N_12
REMARK    6  A    between atoms: N_12  and  C_13
REMARK    7  A    between atoms: C_13  and  N_15
REMARK    8  A    between atoms: C_16  and  C_18
REMARK                            x       y       z     vdW  Elec       q    Type
REMARK                         _______ _______ _______ _____ _____    ______ ____
ROOT
ATOM      1  C   UNL     1      -0.184  -6.851   0.427  0.00  0.00    +0.141 C 
ATOM      2  S   UNL     1       1.289  -5.981   0.397  0.00  0.00    -0.018 S 
ENDROOT
BRANCH   1   3
ATOM      3  N   UNL     1      -0.171  -8.199   0.428  0.00  0.00    -0.264 N 
ATOM      4  C   UNL     1       1.003  -8.861   0.406  0.00  0.00    +0.250 C 
ATOM      5  O   UNL     1       2.049  -8.243   0.385  0.00  0.00    -0.270 OA
ATOM      6  H   UNL     1      -1.006  -8.692   0.445  0.00  0.00    +0.157 HD
BRANCH   4   7
ATOM      7  C   UNL     1       1.018 -10.338   0.408  0.00  0.00    +0.037 A 
ATOM      8  C   UNL     1      -0.183 -11.051   0.427  0.00  0.00    +0.014 A 
ATOM      9  C   UNL     1      -0.163 -12.430   0.428  0.00  0.00    +0.016 A 
ATOM     10  C   UNL     1       1.045 -13.108   0.411  0.00  0.00    +0.018 A 
ATOM     11  C   UNL     1       2.239 -12.406   0.393  0.00  0.00    +0.016 A 
ATOM     12  C   UNL     1       2.232 -11.027   0.386  0.00  0.00    +0.014 A 
ATOM     13 BR   UNL     1       1.064 -14.999   0.413  0.00  0.00    -0.050 Br
ENDBRANCH   4   7
ENDBRANCH   1   3
BRANCH   1  14
ATOM     14  N   UNL     1      -1.358  -6.189   0.448  0.00  0.00    -0.297 N 
ATOM     15  H   UNL     1      -2.190  -6.679   0.546  0.00  0.00    +0.154 HD
BRANCH  14  19
ATOM     16  C   UNL     1      -1.416  -2.039   0.095  0.00  0.00    -0.044 A 
ATOM     17  C   UNL     1      -0.569  -2.788  -0.702  0.00  0.00    +0.006 A 
ATOM     18  C   UNL     1      -0.548  -4.164  -0.587  0.00  0.00    +0.023 A 
ATOM     19  C   UNL     1      -1.377  -4.795   0.330  0.00  0.00    +0.033 A 
ATOM     20  C   UNL     1      -2.226  -4.041   1.129  0.00  0.00    +0.023 A 
ATOM     21  C   UNL     1      -2.239  -2.664   1.013  0.00  0.00    +0.006 A 
BRANCH  16  22
ATOM     22  C   UNL     1      -1.436  -0.537  -0.033  0.00  0.00    +0.016 C 
ATOM     23  C   UNL     1      -1.840  -0.152  -1.458  0.00  0.00    +0.012 C 
BRANCH  22  25
ATOM     24  C   UNL     1      -0.093   1.548   0.263  0.00  0.00    +0.004 C 
ATOM     25  C   UNL     1      -0.044   0.019   0.271  0.00  0.00    +0.004 C 
ENDBRANCH  22  25
ENDBRANCH  16  22
ENDBRANCH  14  19
ENDBRANCH   1  14
TORSDOF 6
