REMARK  Name = ZINC20153825
REMARK  8 active torsions:
REMARK  status: ('A' for Active; 'I' for Inactive)
REMARK    1  A    between atoms: C_1  and  C_2
REMARK    2  A    between atoms: C_7  and  N_8
REMARK    3  A    between atoms: N_11  and  C_14
REMARK    4  A    between atoms: C_14  and  N_16
REMARK    5  A    between atoms: N_16  and  C_17
REMARK    6  A    between atoms: C_23  and  C_34
REMARK    7  A    between atoms: C_25  and  N_27
REMARK    8  A    between atoms: N_30  and  C_33
REMARK                            x       y       z     vdW  Elec       q    Type
REMARK                         _______ _______ _______ _____ _____    ______ ____
ROOT
ATOM      1  C   UNL     1      -2.398   1.649   0.117  0.00  0.00    +0.033 A 
ATOM      2  C   UNL     1      -2.365   0.265   0.319  0.00  0.00    +0.025 A 
ATOM      3  C   UNL     1      -3.515  -0.453   0.429  0.00  0.00    +0.030 A 
ATOM      4  C   UNL     1      -4.760   0.193   0.329  0.00  0.00    +0.073 A 
ATOM      5  C   UNL     1      -4.799   1.593   0.119  0.00  0.00    +0.005 A 
ATOM      6  C   UNL     1      -3.600   2.314   0.014  0.00  0.00    +0.033 A 
ATOM      7  C   UNL     1      -6.049   2.237   0.019  0.00  0.00    -0.038 A 
ATOM      8  C   UNL     1      -7.177   1.480   0.130  0.00  0.00    +0.047 A 
ATOM      9  C   UNL     1      -7.072   0.098   0.338  0.00  0.00    +0.122 A 
ATOM     10  N   UNL     1      -5.901  -0.498   0.430  0.00  0.00    -0.232 NA
ATOM     11  C   UNL     1      -6.136   3.725  -0.204  0.00  0.00    +0.044 C 
ENDROOT
BRANCH   9  12
ATOM     12  N   UNL     1      -8.229  -0.660   0.449  0.00  0.00    -0.319 N 
ATOM     13  C   UNL     1      -9.091  -0.150   1.524  0.00  0.00    +0.088 C 
ATOM     14  C   UNL     1     -10.389  -0.961   1.562  0.00  0.00    -0.060 C 
ATOM     15  N   UNL     1     -10.070  -2.380   1.775  0.00  0.00    +0.380 N 
ATOM     16  C   UNL     1      -9.207  -2.890   0.701  0.00  0.00    -0.060 C 
ATOM     17  C   UNL     1      -7.910  -2.079   0.663  0.00  0.00    +0.088 C 
ATOM     18  C   UNL     1     -11.295  -3.182   1.893  0.00  0.00    -0.096 C 
ATOM     19  H   UNL     1      -9.519  -2.465   2.723  0.00  0.00    -0.082 HD
ENDBRANCH   9  12
BRANCH   1  20
ATOM     20  N   UNL     1      -1.199   2.364   0.013  0.00  0.00    -0.297 N 
ATOM     21  H   UNL     1      -1.217   3.461  -0.067  0.00  0.00    +0.154 HD
BRANCH  20  22
ATOM     22  C   UNL     1      -0.021   1.707   0.010  0.00  0.00    +0.137 C 
ATOM     23  S   UNL     1       0.923   1.638   1.437  0.00  0.00    -0.018 S 
BRANCH  22  27
ATOM     24  N   UNL     1       1.638   0.786  -3.595  0.00  0.00    -0.327 N 
ATOM     25  C   UNL     1       2.475   0.991  -2.405  0.00  0.00    +0.124 C 
ATOM     26  C   UNL     1       1.736   0.468  -1.168  0.00  0.00    +0.125 C 
ATOM     27  N   UNL     1       0.410   1.101  -1.114  0.00  0.00    -0.309 N 
ATOM     28  C   UNL     1      -0.436   1.050  -2.316  0.00  0.00    +0.125 C 
ATOM     29  C   UNL     1       0.390   1.556  -3.509  0.00  0.00    +0.124 C 
BRANCH  24  36
ATOM     30  C   UNL     1       2.011  -1.266  -5.529  0.00  0.00    +0.045 C 
ATOM     31  C   UNL     1       2.546   0.128  -5.732  0.00  0.00    -0.029 A 
ATOM     32  C   UNL     1       3.238   0.442  -6.886  0.00  0.00    +0.006 A 
ATOM     33  C   UNL     1       3.734   1.719  -7.071  0.00  0.00    +0.020 A 
ATOM     34  C   UNL     1       3.535   2.689  -6.103  0.00  0.00    +0.043 A 
ATOM     35  C   UNL     1       2.840   2.382  -4.948  0.00  0.00    +0.043 A 
ATOM     36  C   UNL     1       2.341   1.099  -4.761  0.00  0.00    +0.034 A 
ATOM     37 CL   UNL     1       4.159   4.291  -6.340  0.00  0.00    -0.083 Cl
ENDBRANCH  24  36
ENDBRANCH  22  27
ENDBRANCH  20  22
ENDBRANCH   1  20
TORSDOF 5
