REMARK  Name = ZINC58021990
REMARK  5 active torsions:
REMARK  status: ('A' for Active; 'I' for Inactive)
REMARK    1  A    between atoms: C_1  and  C_2
REMARK    2  A    between atoms: C_5  and  C_9
REMARK    3  A    between atoms: C_7  and  N_8
REMARK    4  A    between atoms: C_15  and  C_22
REMARK    5  A    between atoms: C_17  and  C_21
REMARK                            x       y       z     vdW  Elec       q    Type
REMARK                         _______ _______ _______ _____ _____    ______ ____
ROOT
ATOM      1  C   UNL     1       1.218  -4.132  -0.023  0.00  0.00    +0.169 A 
ATOM      2  N   UNL     1       1.536  -4.867   1.015  0.00  0.00    -0.128 NA
ATOM      3  N   UNL     1       1.727  -6.086   0.649  0.00  0.00    -0.121 NA
ATOM      4  C   UNL     1       1.541  -6.189  -0.636  0.00  0.00    +0.201 A 
ATOM      5  N   UNL     1       1.204  -4.964  -1.139  0.00  0.00    -0.269 N 
ATOM      6  C   UNL     1       0.953  -4.852  -2.509  0.00  0.00    +0.067 A 
ATOM      7  C   UNL     1       0.599  -3.685  -3.207  0.00  0.00    -0.025 A 
ATOM      8  C   UNL     1       0.380  -3.715  -4.564  0.00  0.00    +0.008 A 
ATOM      9  C   UNL     1       0.501  -4.890  -5.285  0.00  0.00    -0.049 A 
ATOM     10  C   UNL     1       0.849  -6.055  -4.624  0.00  0.00    +0.020 A 
ATOM     11  C   UNL     1       1.068  -6.024  -3.266  0.00  0.00    +0.040 A 
ATOM     12  S   UNL     1       1.528  -7.247  -2.062  0.00  0.00    -0.048 S 
ATOM     13  C   UNL     1       0.255  -4.902  -6.772  0.00  0.00    +0.044 C 
ATOM     14  C   UNL     1       0.457  -2.385  -2.459  0.00  0.00    +0.046 C 
ENDROOT
BRANCH   1  19
ATOM     15  C   UNL     1       0.080   1.514   0.021  0.00  0.00    +0.045 C 
ATOM     16  C   UNL     1       0.376   0.036   0.011  0.00  0.00    -0.030 A 
ATOM     17  C   UNL     1       1.648  -0.410  -0.298  0.00  0.00    +0.006 A 
ATOM     18  C   UNL     1       1.927  -1.761  -0.310  0.00  0.00    +0.012 A 
ATOM     19  C   UNL     1       0.922  -2.684  -0.010  0.00  0.00    +0.021 A 
ATOM     20  C   UNL     1      -0.360  -2.234   0.302  0.00  0.00    +0.034 A 
ATOM     21  C   UNL     1      -0.629  -0.874   0.317  0.00  0.00    +0.028 A 
BRANCH  21  22
ATOM     22  N   UNL     1      -1.911  -0.418   0.634  0.00  0.00    -0.358 N 
ATOM     23  H   UNL     1      -2.099   0.533   0.641  0.00  0.00    +0.142 HD
ATOM     24  H   UNL     1      -2.612  -1.054   0.848  0.00  0.00    +0.142 HD
ENDBRANCH  21  22
ENDBRANCH   1  19
TORSDOF 2
