REMARK  Name = ZINC09071677
REMARK  9 active torsions:
REMARK  status: ('A' for Active; 'I' for Inactive)
REMARK    1  A    between atoms: C_1  and  C_2
REMARK    2  A    between atoms: C_5  and  N_9
REMARK    3  A    between atoms: C_6  and  C_8
REMARK    4  A    between atoms: C_10  and  C_12
REMARK    5  A    between atoms: C_12  and  N_58
REMARK    6  A    between atoms: C_15  and  C_18
REMARK    7  A    between atoms: N_20  and  C_21
REMARK    8  A    between atoms: C_24  and  O_27
REMARK    9  A    between atoms: O_27  and  C_28
REMARK                            x       y       z     vdW  Elec       q    Type
REMARK                         _______ _______ _______ _____ _____    ______ ____
ROOT
ATOM      1  C   UNL     1       1.331   2.204   0.010  0.00  0.00    -0.077 C 
ATOM      2  C   UNL     1      -0.112   1.702  -0.079  0.00  0.00    -0.006 C 
ATOM      3  C   UNL     1      -0.109   0.178  -0.235  0.00  0.00    +0.072 C 
ATOM      4  C   UNL     1       0.634  -0.447   0.948  0.00  0.00    -0.006 C 
ATOM      5  C   UNL     1       2.056   0.117   1.007  0.00  0.00    -0.077 C 
ATOM      6  N   UNL     1       1.984   1.583   1.183  0.00  0.00    +0.385 N 
ATOM      7  H   UNL     1       1.429   1.791   2.021  0.00  0.00    -0.081 HD
ENDROOT
BRANCH   3   8
ATOM      8  C   UNL     1      -1.528  -0.328  -0.263  0.00  0.00    +0.220 C 
ATOM      9  O   UNL     1      -2.452   0.452  -0.167  0.00  0.00    -0.275 OA
ATOM     10  N   UNL     1      -1.770  -1.647  -0.394  0.00  0.00    -0.285 N 
ATOM     11  H   UNL     1      -1.033  -2.277  -0.400  0.00  0.00    +0.155 HD
BRANCH  10  12
ATOM     12  C   UNL     1      -3.087  -2.108  -0.522  0.00  0.00    +0.034 A 
ATOM     13  C   UNL     1      -3.451  -3.332   0.024  0.00  0.00    +0.027 A 
ATOM     14  C   UNL     1      -4.750  -3.783  -0.098  0.00  0.00    +0.048 A 
ATOM     15  C   UNL     1      -5.689  -3.019  -0.776  0.00  0.00    +0.130 A 
ATOM     16  C   UNL     1      -5.325  -1.799  -1.327  0.00  0.00    +0.048 A 
ATOM     17  C   UNL     1      -4.028  -1.344  -1.200  0.00  0.00    +0.027 A 
BRANCH  15  18
ATOM     18  O   UNL     1      -6.967  -3.467  -0.901  0.00  0.00    -0.406 OA
BRANCH  18  19
ATOM     19  C   UNL     1      -7.272  -4.732  -0.310  0.00  0.00    +0.575 C 
ATOM     20  F   UNL     1      -7.027  -4.675   1.066  0.00  0.00    -0.133 F 
ATOM     21  F   UNL     1      -8.619  -5.037  -0.531  0.00  0.00    -0.133 F 
ATOM     22  F   UNL     1      -6.469  -5.722  -0.887  0.00  0.00    -0.133 F 
ENDBRANCH  18  19
ENDBRANCH  15  18
ENDBRANCH  10  12
ENDBRANCH   3   8
BRANCH   6  23
ATOM     23  C   UNL     1       3.342   2.139   1.356  0.00  0.00    +0.019 C 
BRANCH  23  25
ATOM     24  N   UNL     1       5.076   2.142   3.120  0.00  0.00    -0.287 N 
ATOM     25  C   UNL     1       3.882   1.689   2.690  0.00  0.00    +0.201 C 
ATOM     26  O   UNL     1       3.242   0.920   3.375  0.00  0.00    -0.278 OA
ATOM     27  H   UNL     1       5.557   2.807   2.604  0.00  0.00    +0.155 HD
BRANCH  24  32
ATOM     28  C   UNL     1       7.290   0.154   7.950  0.00  0.00    +0.044 C 
ATOM     29  C   UNL     1       6.702   0.682   6.667  0.00  0.00    -0.050 A 
ATOM     30  C   UNL     1       5.332   0.832   6.546  0.00  0.00    +0.005 A 
ATOM     31  C   UNL     1       4.790   1.315   5.372  0.00  0.00    +0.024 A 
ATOM     32  C   UNL     1       5.622   1.651   4.311  0.00  0.00    +0.036 A 
ATOM     33  C   UNL     1       6.996   1.495   4.434  0.00  0.00    -0.029 A 
ATOM     34  C   UNL     1       7.532   1.015   5.614  0.00  0.00    +0.008 A 
ATOM     35  C   UNL     1       7.902   1.852   3.284  0.00  0.00    +0.045 C 
ENDBRANCH  24  32
ENDBRANCH  23  25
ENDBRANCH   6  23
TORSDOF 7
