REMARK  Name = ZINC30256871
REMARK  2 active torsions:
REMARK  status: ('A' for Active; 'I' for Inactive)
REMARK    1  A    between atoms: C_6  and  N_7
REMARK    2  A    between atoms: C_16  and  C_18
REMARK                            x       y       z     vdW  Elec       q    Type
REMARK                         _______ _______ _______ _____ _____    ______ ____
ROOT
ATOM      1  N   UNL     1       6.981   5.716   0.865  0.00  0.00    -0.269 N 
ATOM      2  C   UNL     1       6.977   4.395   1.132  0.00  0.00    +0.307 C 
ATOM      3  O   UNL     1       8.028   3.798   1.262  0.00  0.00    -0.252 OA
ATOM      4  N   UNL     1       5.808   3.736   1.257  0.00  0.00    -0.282 N 
ATOM      5  C   UNL     1       5.784   2.328   1.677  0.00  0.00    +0.128 C 
ATOM      6  C   UNL     1       5.021   1.515   0.624  0.00  0.00    +0.127 C 
ATOM      7  N   UNL     1       3.747   2.192   0.341  0.00  0.00    -0.293 N 
ATOM      8  C   UNL     1       3.772   3.598  -0.085  0.00  0.00    +0.127 C 
ATOM      9  C   UNL     1       4.535   4.413   0.974  0.00  0.00    +0.128 C 
ATOM     10  C   UNL     1       2.578   1.532   0.464  0.00  0.00    +0.267 C 
ATOM     11  O   UNL     1       2.545   0.455   1.026  0.00  0.00    -0.268 OA
ATOM     12  H   UNL     1       6.036   6.237   0.654  0.00  0.00    +0.156 HD
ENDROOT
BRANCH  10  13
ATOM     13  C   UNL     1       1.335   2.121  -0.084  0.00  0.00    +0.145 A 
ATOM     14  C   UNL     1       0.103   1.547   0.226  0.00  0.00    +0.072 A 
ATOM     15  C   UNL     1      -1.053   2.106  -0.301  0.00  0.00    +0.025 A 
ATOM     16  C   UNL     1      -0.937   3.225  -1.108  0.00  0.00    +0.041 A 
ATOM     17  C   UNL     1       0.322   3.744  -1.376  0.00  0.00    +0.130 A 
ATOM     18  N   UNL     1       1.403   3.191  -0.868  0.00  0.00    -0.229 NA
ATOM     19 CL   UNL     1       0.474   5.142  -2.394  0.00  0.00    -0.062 Cl
ATOM     20 CL   UNL     1       0.017   0.148   1.250  0.00  0.00    -0.081 Cl
ENDBRANCH  10  13
BRANCH   1  26
ATOM     21  C   UNL     1       9.386   5.757   0.637  0.00  0.00    +0.026 A 
ATOM     22  C   UNL     1      10.575   6.459   0.624  0.00  0.00    +0.040 A 
ATOM     23  C   UNL     1      10.575   7.827   0.838  0.00  0.00    +0.124 A 
ATOM     24  C   UNL     1       9.383   8.495   1.062  0.00  0.00    +0.040 A 
ATOM     25  C   UNL     1       8.191   7.797   1.071  0.00  0.00    +0.026 A 
ATOM     26  C   UNL     1       8.189   6.425   0.856  0.00  0.00    +0.035 A 
ATOM     27  F   UNL     1      11.741   8.511   0.829  0.00  0.00    -0.205 F 
ENDBRANCH   1  26
TORSDOF 2
