REMARK  Name = ZINC44098148
REMARK  3 active torsions:
REMARK  status: ('A' for Active; 'I' for Inactive)
REMARK    1  A    between atoms: C_5  and  N_7
REMARK    2  A    between atoms: C_19  and  C_22
REMARK    3  A    between atoms: C_24  and  C_27
REMARK                            x       y       z     vdW  Elec       q    Type
REMARK                         _______ _______ _______ _____ _____    ______ ____
ROOT
ATOM      1  N   UNL     1       1.304  -2.073   0.059  0.00  0.00    -0.268 N 
ATOM      2  C   UNL     1       0.152  -2.772   0.091  0.00  0.00    +0.307 C 
ATOM      3  O   UNL     1      -0.914  -2.189   0.036  0.00  0.00    -0.252 OA
ATOM      4  N   UNL     1       0.181  -4.116   0.184  0.00  0.00    -0.282 N 
ATOM      5  C   UNL     1       1.456  -4.827   0.355  0.00  0.00    +0.128 C 
ATOM      6  C   UNL     1       1.363  -5.707   1.607  0.00  0.00    +0.125 C 
ATOM      7  N   UNL     1       0.120  -6.488   1.541  0.00  0.00    -0.314 N 
ATOM      8  C   UNL     1      -1.155  -5.777   1.370  0.00  0.00    +0.125 C 
ATOM      9  C   UNL     1      -1.062  -4.897   0.123  0.00  0.00    +0.128 C 
ATOM     10  C   UNL     1       0.150  -7.872   1.637  0.00  0.00    +0.099 A 
ATOM     11  C   UNL     1       1.375  -8.536   1.631  0.00  0.00    +0.042 A 
ATOM     12  C   UNL     1       1.396  -9.912   1.727  0.00  0.00    +0.016 A 
ATOM     13  C   UNL     1       0.175 -10.592   1.827  0.00  0.00    +0.038 A 
ATOM     14  C   UNL     1      -1.008  -9.860   1.826  0.00  0.00    +0.095 A 
ATOM     15  N   UNL     1      -0.987  -8.545   1.739  0.00  0.00    -0.349 N 
ATOM     16  H   UNL     1       2.155  -2.540   0.071  0.00  0.00    +0.156 HD
ATOM     17  H   UNL     1      -1.825  -8.058   1.744  0.00  0.00    +0.167 HD
ENDROOT
BRANCH   1  22
ATOM     18  C   UNL     1       0.144   1.358  -0.575  0.00  0.00    +0.002 A 
ATOM     19  C   UNL     1       1.215   2.090  -0.095  0.00  0.00    +0.002 A 
ATOM     20  C   UNL     1       2.315   1.444   0.437  0.00  0.00    +0.022 A 
ATOM     21  C   UNL     1       2.349   0.063   0.489  0.00  0.00    +0.062 A 
ATOM     22  C   UNL     1       1.274  -0.675   0.007  0.00  0.00    +0.053 A 
ATOM     23  C   UNL     1       0.171  -0.022  -0.525  0.00  0.00    +0.025 A 
ATOM     24 CL   UNL     1       3.731  -0.748   1.156  0.00  0.00    -0.082 Cl
ENDBRANCH   1  22
BRANCH  13  25
ATOM     25  C   UNL     1       0.145 -12.071   1.932  0.00  0.00    +0.203 A 
ATOM     26  N   UNL     1      -0.963 -12.828   2.027  0.00  0.00    -0.191 NA
ATOM     27  C   UNL     1      -0.637 -14.087   2.102  0.00  0.00    +0.231 A 
ATOM     28  O   UNL     1       0.698 -14.184   2.057  0.00  0.00    -0.337 OA
ATOM     29  N   UNL     1       1.193 -12.858   1.941  0.00  0.00    -0.056 NA
BRANCH  27  30
ATOM     30  C   UNL     1      -1.600 -15.240   2.220  0.00  0.00    +0.078 C 
ATOM     31  C   UNL     1      -1.287 -16.063   3.487  0.00  0.00    +0.013 C 
ATOM     32  C   UNL     1      -1.547 -17.530   3.061  0.00  0.00    +0.001 C 
ATOM     33  C   UNL     1      -1.020 -17.562   1.605  0.00  0.00    +0.001 C 
ATOM     34  C   UNL     1      -1.430 -16.193   1.024  0.00  0.00    +0.013 C 
ENDBRANCH  27  30
ENDBRANCH  13  25
TORSDOF 3
