REMARK  Name = ZINC63137704
REMARK  4 active torsions:
REMARK  status: ('A' for Active; 'I' for Inactive)
REMARK    1  A    between atoms: C_1  and  C_2
REMARK    2  A    between atoms: C_2  and  C_3
REMARK    3  A    between atoms: C_3  and  N_4
REMARK    4  A    between atoms: C_24  and  C_26
REMARK                            x       y       z     vdW  Elec       q    Type
REMARK                         _______ _______ _______ _____ _____    ______ ____
ROOT
ATOM      1  N   UNL     1      -1.279  -2.004  -0.229  0.00  0.00    -0.291 N 
ATOM      2  C   UNL     1      -1.326  -2.752  -1.474  0.00  0.00    +0.203 C 
ATOM      3  C   UNL     1      -1.336  -4.227  -1.246  0.00  0.00    +0.234 C 
ATOM      4  O   UNL     1      -1.374  -4.948  -2.220  0.00  0.00    -0.274 OA
ATOM      5  N   UNL     1      -1.306  -4.811  -0.042  0.00  0.00    -0.279 N 
ATOM      6  C   UNL     1      -1.278  -4.050   1.203  0.00  0.00    +0.167 C 
ATOM      7  C   UNL     1      -1.253  -2.575   0.974  0.00  0.00    +0.237 C 
ATOM      8  O   UNL     1      -1.212  -1.851   1.946  0.00  0.00    -0.274 OA
ATOM      9  C   UNL     1      -2.491  -4.424   2.074  0.00  0.00    +0.065 C 
ATOM     10  C   UNL     1      -2.581  -5.930   2.064  0.00  0.00    -0.034 C 
ATOM     11  C   UNL     1      -2.674  -6.813   3.050  0.00  0.00    -0.001 A 
ATOM     12  C   UNL     1      -2.838  -6.646   4.503  0.00  0.00    +0.010 A 
ATOM     13  C   UNL     1      -2.877  -7.789   5.238  0.00  0.00    +0.001 A 
ATOM     14  C   UNL     1      -2.771  -9.066   4.679  0.00  0.00    +0.002 A 
ATOM     15  C   UNL     1      -2.627  -9.313   3.352  0.00  0.00    +0.026 A 
ATOM     16  C   UNL     1      -2.582  -8.190   2.477  0.00  0.00    +0.043 A 
ATOM     17  N   UNL     1      -2.478  -8.137   1.181  0.00  0.00    -0.375 N 
ATOM     18  C   UNL     1      -2.551  -6.735   0.770  0.00  0.00    +0.131 C 
ATOM     19  C   UNL     1      -1.300  -6.291   0.008  0.00  0.00    +0.133 C 
ATOM     20  H   UNL     1      -2.370  -8.898   0.589  0.00  0.00    +0.160 HD
ENDROOT
BRANCH  19  21
ATOM     21  C   UNL     1      -0.066  -6.773   0.727  0.00  0.00    -0.025 A 
ATOM     22  C   UNL     1       0.830  -7.604   0.080  0.00  0.00    +0.007 A 
ATOM     23  C   UNL     1       1.961  -8.047   0.739  0.00  0.00    +0.020 A 
ATOM     24  C   UNL     1       2.197  -7.658   2.045  0.00  0.00    +0.041 A 
ATOM     25  C   UNL     1       1.301  -6.826   2.692  0.00  0.00    +0.020 A 
ATOM     26  C   UNL     1       0.172  -6.380   2.030  0.00  0.00    +0.007 A 
ATOM     27 CL   UNL     1       3.618  -8.214   2.873  0.00  0.00    -0.084 Cl
ENDBRANCH  19  21
BRANCH   1  28
ATOM     28  C   UNL     1      -1.253  -0.541  -0.301  0.00  0.00    +0.108 C 
BRANCH  28  30
ATOM     29  C   UNL     1       0.225   1.469  -0.446  0.00  0.00    +0.005 C 
ATOM     30  C   UNL     1       0.198  -0.059  -0.370  0.00  0.00    +0.016 C 
ENDBRANCH  28  30
ENDBRANCH   1  28
TORSDOF 3
