REMARK  Name = ZINC41301739
REMARK  6 active torsions:
REMARK  status: ('A' for Active; 'I' for Inactive)
REMARK    1  A    between atoms: C_3  and  C_7
REMARK    2  A    between atoms: C_7  and  N_8
REMARK    3  A    between atoms: C_12  and  N_27
REMARK    4  A    between atoms: C_13  and  N_15
REMARK    5  A    between atoms: N_15  and  C_16
REMARK    6  A    between atoms: C_17  and  C_24
REMARK                            x       y       z     vdW  Elec       q    Type
REMARK                         _______ _______ _______ _____ _____    ______ ____
ROOT
ATOM      1  N   UNL     1       4.141   2.271   1.355  0.00  0.00    -0.309 N 
ATOM      2  C   UNL     1       5.346   2.907   1.600  0.00  0.00    +0.219 A 
ATOM      3  N   UNL     1       6.080   3.313   0.575  0.00  0.00    -0.197 NA
ATOM      4  C   UNL     1       7.243   3.929   0.772  0.00  0.00    +0.154 A 
ATOM      5  C   UNL     1       7.684   4.144   2.075  0.00  0.00    +0.205 A 
ATOM      6  C   UNL     1       6.886   3.703   3.125  0.00  0.00    +0.161 A 
ATOM      7  N   UNL     1       5.731   3.099   2.852  0.00  0.00    -0.197 NA
ATOM      8  N   UNL     1       8.006   4.351  -0.306  0.00  0.00    -0.341 N 
ATOM      9  H   UNL     1       3.592   1.972   2.096  0.00  0.00    +0.149 HD
ATOM     10  H   UNL     1       7.693   4.197  -1.211  0.00  0.00    +0.144 HD
ATOM     11  H   UNL     1       8.853   4.799  -0.155  0.00  0.00    +0.144 HD
ENDROOT
BRANCH   5  12
ATOM     12  N   UNL     1       8.973   4.824   2.336  0.00  0.00    +0.063 N 
ATOM     13  O   UNL     1       9.007   6.027   2.457  0.00  0.00    -0.126 OA
ATOM     14  O   UNL     1       9.990   4.178   2.429  0.00  0.00    -0.126 OA
ENDBRANCH   5  12
BRANCH   6  15
ATOM     15  N   UNL     1       7.285   3.895   4.441  0.00  0.00    -0.291 N 
ATOM     16  H   UNL     1       8.126   4.338   4.632  0.00  0.00    +0.154 HD
BRANCH  15  17
ATOM     17  C   UNL     1       6.483   3.453   5.478  0.00  0.00    +0.084 A 
ATOM     18  C   UNL     1       6.715   3.561   6.838  0.00  0.00    +0.068 A 
ATOM     19  C   UNL     1       5.702   3.007   7.736  0.00  0.00    -0.023 A 
ATOM     20  C   UNL     1       4.654   2.450   7.104  0.00  0.00    -0.004 A 
ATOM     21  S   UNL     1       5.004   2.668   5.378  0.00  0.00    -0.077 S 
ATOM     22  C   UNL     1       3.646   1.893   8.072  0.00  0.00    +0.043 C 
ATOM     23  C   UNL     1       4.407   1.793   9.413  0.00  0.00    +0.010 C 
ATOM     24  C   UNL     1       5.488   2.879   9.243  0.00  0.00    +0.037 C 
BRANCH  18  25
ATOM     25  C   UNL     1       7.925   4.204   7.357  0.00  0.00    +0.244 C 
ATOM     26  O   UNL     1       7.930   5.399   7.584  0.00  0.00    -0.270 OA
ATOM     27  N   UNL     1       9.033   3.470   7.583  0.00  0.00    -0.325 N 
ATOM     28  H   UNL     1       9.030   2.517   7.402  0.00  0.00    +0.145 HD
ATOM     29  H   UNL     1       9.834   3.896   7.927  0.00  0.00    +0.145 HD
ENDBRANCH  18  25
ENDBRANCH  15  17
ENDBRANCH   6  15
BRANCH   1  30
ATOM     30  C   UNL     1       3.696   2.049  -0.023  0.00  0.00    +0.141 C 
BRANCH  30  33
ATOM     31  C   UNL     1      -0.017   1.378   0.010  0.00  0.00    +0.020 A 
ATOM     32  C   UNL     1       1.185   2.070   0.002  0.00  0.00    +0.008 A 
ATOM     33  C   UNL     1       2.365   1.343  -0.013  0.00  0.00    -0.012 A 
ATOM     34  C   UNL     1       2.305  -0.038  -0.020  0.00  0.00    +0.115 A 
ATOM     35  N   UNL     1       1.144  -0.663  -0.013  0.00  0.00    -0.263 NA
ATOM     36  C   UNL     1       0.002  -0.004   0.002  0.00  0.00    +0.111 A 
ENDBRANCH  30  33
ENDBRANCH   1  30
TORSDOF 6
