REMARK  Name = ZINC66061428
REMARK  3 active torsions:
REMARK  status: ('A' for Active; 'I' for Inactive)
REMARK    1  A    between atoms: C_1  and  C_2
REMARK    2  A    between atoms: C_12  and  C_14
REMARK    3  A    between atoms: C_15  and  C_27
REMARK                            x       y       z     vdW  Elec       q    Type
REMARK                         _______ _______ _______ _____ _____    ______ ____
ROOT
ATOM      1  C   UNL     1      -0.018   1.503   0.010  0.00  0.00    +0.044 C 
ATOM      2  C   UNL     1       0.002  -0.004   0.002  0.00  0.00    -0.049 A 
ATOM      3  C   UNL     1       0.006  -0.698  -1.199  0.00  0.00    +0.005 A 
ATOM      4  C   UNL     1       0.024  -2.068  -1.235  0.00  0.00    +0.029 A 
ATOM      5  C   UNL     1       0.040  -2.822  -0.038  0.00  0.00    +0.080 A 
ATOM      6  C   UNL     1       0.035  -2.081   1.166  0.00  0.00    +0.041 A 
ATOM      7  C   UNL     1       0.023  -0.709   1.192  0.00  0.00    +0.020 A 
ATOM      8  S   UNL     1       0.058  -3.361   2.397  0.00  0.00    -0.052 S 
ATOM      9  C   UNL     1       0.072  -4.752   1.275  0.00  0.00    +0.166 A 
ATOM     10  N   UNL     1       0.058  -4.165   0.101  0.00  0.00    -0.225 NA
ATOM     11  N   UNL     1       0.092  -6.104   1.569  0.00  0.00    -0.260 N 
ATOM     12  C   UNL     1       0.100  -7.011   0.572  0.00  0.00    +0.257 C 
ATOM     13  O   UNL     1       0.088  -6.640  -0.587  0.00  0.00    -0.269 OA
ATOM     14  H   UNL     1       0.101  -6.400   2.493  0.00  0.00    +0.157 HD
ENDROOT
BRANCH  12  15
ATOM     15  C   UNL     1       0.121  -8.443   0.883  0.00  0.00    +0.080 A 
ATOM     16  C   UNL     1       0.137  -9.501   0.022  0.00  0.00    -0.017 A 
ATOM     17  C   UNL     1       0.157 -10.805   0.523  0.00  0.00    +0.076 A 
ATOM     18  C   UNL     1       0.159 -10.923   1.932  0.00  0.00    +0.116 A 
ATOM     19  S   UNL     1       0.141  -9.235   2.482  0.00  0.00    -0.064 S 
ATOM     20  N   UNL     1       0.177 -12.104   2.530  0.00  0.00    -0.226 NA
ATOM     21  C   UNL     1       0.193 -13.229   1.857  0.00  0.00    +0.114 A 
ATOM     22  N   UNL     1       0.190 -13.244   0.500  0.00  0.00    -0.296 N 
ATOM     23  C   UNL     1       0.176 -12.090  -0.207  0.00  0.00    +0.263 A 
ATOM     24  O   UNL     1       0.179 -12.110  -1.425  0.00  0.00    -0.267 OA
ATOM     25  C   UNL     1       0.200 -14.628  -0.008  0.00  0.00    +0.127 C 
ATOM     26  C   UNL     1       0.658 -15.503   1.177  0.00  0.00    +0.029 C 
ATOM     27  C   UNL     1       0.216 -14.651   2.388  0.00  0.00    +0.076 C 
ATOM     28  C   UNL     1       0.133  -9.264  -1.466  0.00  0.00    +0.046 C 
ENDBRANCH  12  15
TORSDOF 1
