REMARK  Name = ZINC02200651
REMARK  7 active torsions:
REMARK  status: ('A' for Active; 'I' for Inactive)
REMARK    1  A    between atoms: C_1  and  C_2
REMARK    2  A    between atoms: C_9  and  N_27
REMARK    3  A    between atoms: C_10  and  C_13
REMARK    4  A    between atoms: C_14  and  C_15
REMARK    5  A    between atoms: C_14  and  S_17
REMARK    6  A    between atoms: S_17  and  C_20
REMARK    7  A    between atoms: C_32  and  N_55
REMARK                            x       y       z     vdW  Elec       q    Type
REMARK                         _______ _______ _______ _____ _____    ______ ____
ROOT
ATOM      1  C   UNL     1      -4.590   6.205   2.217  0.00  0.00    +0.047 C 
ATOM      2  C   UNL     1      -4.021   5.804   3.554  0.00  0.00    -0.007 A 
ATOM      3  C   UNL     1      -4.565   6.291   4.705  0.00  0.00    +0.008 A 
ATOM      4  C   UNL     1      -4.025   5.910   5.941  0.00  0.00    +0.019 A 
ATOM      5  C   UNL     1      -2.972   5.064   5.988  0.00  0.00    +0.096 A 
ATOM      6  N   UNL     1      -2.421   4.571   4.843  0.00  0.00    -0.267 N 
ATOM      7  C   UNL     1      -2.925   4.925   3.623  0.00  0.00    +0.145 A 
ATOM      8  N   UNL     1      -2.400   4.454   2.492  0.00  0.00    -0.213 NA
ATOM      9  C   UNL     1      -1.367   3.623   2.499  0.00  0.00    +0.136 A 
ATOM     10  C   UNL     1      -0.807   3.218   3.732  0.00  0.00    +0.082 A 
ATOM     11  C   UNL     1      -1.369   3.728   4.926  0.00  0.00    +0.267 A 
ATOM     12  O   UNL     1      -0.914   3.408   6.011  0.00  0.00    -0.267 OA
ENDROOT
BRANCH   9  13
ATOM     13  N   UNL     1      -0.847   3.153   1.313  0.00  0.00    -0.318 N 
ATOM     14  C   UNL     1      -1.047   1.702   1.188  0.00  0.00    +0.088 C 
ATOM     15  C   UNL     1      -0.388   1.208  -0.101  0.00  0.00    -0.060 C 
ATOM     16  C   UNL     1      -0.768   3.369  -1.124  0.00  0.00    -0.060 C 
ATOM     17  C   UNL     1      -1.428   3.863   0.165  0.00  0.00    +0.088 C 
ATOM     18  C   UNL     1      -0.414   1.417  -2.514  0.00  0.00    -0.096 C 
ATOM     19  N   UNL     1      -0.996   1.914  -1.249  0.00  0.00    +0.380 N 
ATOM     20  H   UNL     1      -2.007   1.734  -1.254  0.00  0.00    -0.082 HD
ENDBRANCH   9  13
BRANCH  10  21
ATOM     21  C   UNL     1       0.294   2.326   3.772  0.00  0.00    +0.055 C 
ATOM     22  C   UNL     1       1.443   2.636   3.119  0.00  0.00    +0.170 C 
BRANCH  22  23
ATOM     23  S   UNL     1       2.799   1.512   3.139  0.00  0.00    +0.035 S 
ATOM     24  O   UNL     1       3.950   2.269   3.489  0.00  0.00    -0.164 OA
ATOM     25  O   UNL     1       2.377   0.379   3.885  0.00  0.00    -0.164 OA
BRANCH  23  26
ATOM     26  C   UNL     1       3.043   0.961   1.483  0.00  0.00    +0.094 A 
ATOM     27  C   UNL     1       2.387  -0.167   1.026  0.00  0.00    +0.029 A 
ATOM     28  C   UNL     1       2.574  -0.596  -0.274  0.00  0.00    +0.022 A 
ATOM     29  C   UNL     1       3.426   0.097  -1.116  0.00  0.00    +0.041 A 
ATOM     30  C   UNL     1       4.087   1.222  -0.656  0.00  0.00    +0.022 A 
ATOM     31  C   UNL     1       3.895   1.654   0.643  0.00  0.00    +0.029 A 
ATOM     32 CL   UNL     1       3.666  -0.445  -2.747  0.00  0.00    -0.084 Cl
ENDBRANCH  23  26
ENDBRANCH  22  23
BRANCH  22  33
ATOM     33  C   UNL     1       1.553   3.878   2.415  0.00  0.00    +0.119 C 
ATOM     34  N   UNL     1       1.640   4.864   1.856  0.00  0.00    -0.189 NA
ENDBRANCH  22  33
ENDBRANCH  10  21
TORSDOF 5
