REMARK  Name = ZINC65742870
REMARK  6 active torsions:
REMARK  status: ('A' for Active; 'I' for Inactive)
REMARK    1  A    between atoms: C_12  and  O_23
REMARK    2  A    between atoms: O_23  and  C_24
REMARK    3  A    between atoms: C_26  and  O_40
REMARK    4  A    between atoms: C_28  and  O_39
REMARK    5  A    between atoms: C_30  and  O_38
REMARK    6  A    between atoms: C_32  and  C_35
REMARK                            x       y       z     vdW  Elec       q    Type
REMARK                         _______ _______ _______ _____ _____    ______ ____
ROOT
ATOM      1  C   UNL     1       0.145   0.836  -0.352  0.00  0.00    +0.020 A 
ATOM      2  C   UNL     1       1.211   1.713  -0.268  0.00  0.00    +0.010 A 
ATOM      3  C   UNL     1       2.496   1.199  -0.115  0.00  0.00    -0.013 A 
ATOM      4  C   UNL     1       2.716  -0.154  -0.041  0.00  0.00    -0.038 A 
ATOM      5  C   UNL     1       1.647  -1.030  -0.132  0.00  0.00    +0.024 A 
ATOM      6  C   UNL     1       0.365  -0.529  -0.287  0.00  0.00    +0.041 A 
ATOM      7 CL   UNL     1      -0.978  -1.623  -0.400  0.00  0.00    -0.084 Cl
ATOM      8  C   UNL     1       4.105  -0.682   0.151  0.00  0.00    +0.040 C 
ATOM      9  C   UNL     1       4.644  -0.438   1.534  0.00  0.00    +0.042 C 
ATOM     10  C   UNL     1       4.921   1.003   1.870  0.00  0.00    -0.018 A 
ATOM     11  C   UNL     1       5.675   1.187   3.035  0.00  0.00    +0.053 A 
ATOM     12  C   UNL     1       6.015   2.467   3.442  0.00  0.00    +0.142 A 
ATOM     13  C   UNL     1       5.603   3.549   2.675  0.00  0.00    +0.157 A 
ATOM     14  N   UNL     1       4.891   3.350   1.592  0.00  0.00    -0.251 NA
ATOM     15  C   UNL     1       4.529   2.131   1.174  0.00  0.00    +0.075 A 
ATOM     16  C   UNL     1       3.676   2.088  -0.033  0.00  0.00    +0.007 C 
ATOM     17  C   UNL     1       3.979   2.871  -1.076  0.00  0.00    -0.063 C 
ATOM     18  C   UNL     1       5.251   3.693  -1.096  0.00  0.00    +0.012 C 
ATOM     19  C   UNL     1       5.943   3.470  -2.446  0.00  0.00    -0.078 C 
ATOM     20  N   UNL     1       5.005   3.772  -3.533  0.00  0.00    +0.379 N 
ATOM     21  C   UNL     1       3.909   2.795  -3.542  0.00  0.00    -0.078 C 
ATOM     22  C   UNL     1       3.064   2.962  -2.280  0.00  0.00    +0.012 C 
ATOM     23  H   UNL     1       4.627   4.698  -3.401  0.00  0.00    -0.086 HD
ATOM     24  H   UNL     1       5.493   3.735  -4.415  0.00  0.00    -0.086 HD
ENDROOT
BRANCH  12  25
ATOM     25  O   UNL     1       6.742   2.661   4.573  0.00  0.00    -0.459 OA
BRANCH  25  26
ATOM     26  C   UNL     1       7.052   4.011   4.922  0.00  0.00    +0.340 C 
ATOM     27  C   UNL     1       8.070   4.023   6.065  0.00  0.00    +0.214 C 
ATOM     28  C   UNL     1       8.352   5.472   6.473  0.00  0.00    +0.180 C 
ATOM     29  C   UNL     1       7.032   6.146   6.863  0.00  0.00    +0.186 C 
ATOM     30  C   UNL     1       6.054   6.053   5.689  0.00  0.00    +0.266 C 
ATOM     31  O   UNL     1       5.861   4.681   5.340  0.00  0.00    -0.322 OA
BRANCH  30  32
ATOM     32  C   UNL     1       4.734   6.662   6.086  0.00  0.00    +0.387 C 
ATOM     33  O   UNL     1       4.662   7.853   6.334  0.00  0.00    -0.243 OA
ATOM     34  O   UNL     1       3.737   5.963   6.158  0.00  0.00    -0.243 OA
ENDBRANCH  30  32
BRANCH  29  35
ATOM     35  O   UNL     1       6.478   5.486   8.003  0.00  0.00    -0.386 OA
ATOM     36  H   UNL     1       5.639   5.862   8.305  0.00  0.00    +0.210 HD
ENDBRANCH  29  35
BRANCH  28  37
ATOM     37  O   UNL     1       9.247   5.490   7.587  0.00  0.00    -0.386 OA
ATOM     38  H   UNL     1       9.469   6.378   7.899  0.00  0.00    +0.210 HD
ENDBRANCH  28  37
BRANCH  27  39
ATOM     39  O   UNL     1       9.283   3.404   5.630  0.00  0.00    -0.383 OA
ATOM     40  H   UNL     1       9.178   2.484   5.352  0.00  0.00    +0.210 HD
ENDBRANCH  27  39
ENDBRANCH  25  26
ENDBRANCH  12  25
TORSDOF 6
