REMARK  Name = ZINC02084706
REMARK  5 active torsions:
REMARK  status: ('A' for Active; 'I' for Inactive)
REMARK    1  A    between atoms: C_1  and  C_2
REMARK    2  A    between atoms: C_2  and  C_3
REMARK    3  A    between atoms: C_10  and  N_15
REMARK    4  A    between atoms: C_11  and  C_12
REMARK    5  A    between atoms: C_16  and  C_18
REMARK                            x       y       z     vdW  Elec       q    Type
REMARK                         _______ _______ _______ _____ _____    ______ ____
ROOT
ATOM      1  C   UNL     1      10.060  -3.781   1.082  0.00  0.00    -0.006 C 
ATOM      2  C   UNL     1       9.396  -4.370   2.329  0.00  0.00    +0.008 C 
ATOM      3  C   UNL     1       8.466  -3.333   2.962  0.00  0.00    +0.037 C 
ATOM      4  C   UNL     1       7.518  -2.806   1.891  0.00  0.00    -0.023 A 
ATOM      5  C   UNL     1       7.797  -2.959   0.579  0.00  0.00    -0.004 A 
ATOM      6  S   UNL     1       6.437  -2.204  -0.265  0.00  0.00    -0.077 S 
ATOM      7  C   UNL     1       5.509  -1.690   1.105  0.00  0.00    +0.085 A 
ATOM      8  C   UNL     1       6.276  -2.110   2.182  0.00  0.00    +0.068 A 
ATOM      9  C   UNL     1       8.999  -3.625  -0.017  0.00  0.00    +0.046 C 
ENDROOT
BRANCH   8  10
ATOM     10  C   UNL     1       5.848  -1.865   3.563  0.00  0.00    +0.244 C 
ATOM     11  O   UNL     1       5.158  -2.685   4.141  0.00  0.00    -0.270 OA
ATOM     12  N   UNL     1       6.217  -0.732   4.192  0.00  0.00    -0.325 N 
ATOM     13  H   UNL     1       6.766  -0.078   3.732  0.00  0.00    +0.145 HD
ATOM     14  H   UNL     1       5.933  -0.570   5.105  0.00  0.00    +0.145 HD
ENDBRANCH   8  10
BRANCH   7  15
ATOM     15  N   UNL     1       4.298  -1.016   1.121  0.00  0.00    -0.275 N 
ATOM     16  C   UNL     1       3.697  -0.682  -0.038  0.00  0.00    +0.254 C 
ATOM     17  O   UNL     1       4.218  -0.971  -1.098  0.00  0.00    -0.270 OA
ATOM     18  H   UNL     1       3.882  -0.786   1.967  0.00  0.00    +0.156 HD
BRANCH  16  19
ATOM     19  C   UNL     1       2.409   0.034  -0.021  0.00  0.00    +0.113 A 
ATOM     20  C   UNL     1       1.207  -0.682  -0.014  0.00  0.00    +0.176 A 
ATOM     21  C   UNL     1       0.002  -0.004   0.002  0.00  0.00    +0.197 A 
ATOM     22  C   UNL     1      -0.017   1.383   0.010  0.00  0.00    +0.199 A 
ATOM     23  C   UNL     1       1.171   2.099   0.002  0.00  0.00    +0.197 A 
ATOM     24  C   UNL     1       2.383   1.434  -0.013  0.00  0.00    +0.176 A 
ATOM     25  F   UNL     1       3.539   2.133  -0.020  0.00  0.00    -0.201 F 
ATOM     26  F   UNL     1       1.144   3.450   0.009  0.00  0.00    -0.199 F 
ATOM     27  F   UNL     1      -1.198   2.039   0.019  0.00  0.00    -0.199 F 
ATOM     28  F   UNL     1      -1.159  -0.694   0.009  0.00  0.00    -0.199 F 
ATOM     29  F   UNL     1       1.224  -2.033  -0.022  0.00  0.00    -0.201 F 
ENDBRANCH  16  19
ENDBRANCH   7  15
BRANCH   1  31
ATOM     30  C   UNL     1      11.911  -4.073  -0.572  0.00  0.00    +0.004 C 
ATOM     31  C   UNL     1      11.166  -4.721   0.598  0.00  0.00    +0.000 C 
ENDBRANCH   1  31
TORSDOF 4
