REMARK  Name = ZINC46763461
REMARK  11 active torsions:
REMARK  status: ('A' for Active; 'I' for Inactive)
REMARK    1  A    between atoms: C_1  and  C_2
REMARK    2  A    between atoms: C_2  and  C_4
REMARK    3  A    between atoms: C_2  and  N_11
REMARK    4  A    between atoms: N_14  and  C_17
REMARK    5  A    between atoms: C_17  and  C_18
REMARK    6  A    between atoms: C_18  and  C_20
REMARK    7  A    between atoms: C_18  and  O_32
REMARK    8  A    between atoms: C_20  and  O_21
REMARK    9  A    between atoms: O_21  and  C_22
REMARK   10  A    between atoms: C_25  and  N_28
REMARK   11  A    between atoms: C_29  and  C_31
REMARK                            x       y       z     vdW  Elec       q    Type
REMARK                         _______ _______ _______ _____ _____    ______ ____
ROOT
ATOM      1  C   UNL     1       1.310  -2.834   4.834  0.00  0.00    +0.119 C 
ENDROOT
BRANCH   1   5
ATOM      2  N   UNL     1       0.663  -0.969   1.096  0.00  0.00    +0.386 N 
ATOM      3  C   UNL     1       0.495  -2.426   1.179  0.00  0.00    -0.062 C 
ATOM      4  C   UNL     1       1.224  -2.954   2.416  0.00  0.00    +0.066 C 
ATOM      5  N   UNL     1       0.673  -2.311   3.618  0.00  0.00    -0.303 NA
ATOM      6  C   UNL     1       0.812  -0.850   3.538  0.00  0.00    +0.066 C 
ATOM      7  C   UNL     1       0.086  -0.339   2.291  0.00  0.00    -0.062 C 
ATOM      8  H   UNL     1       1.646  -0.747   1.040  0.00  0.00    -0.081 HD
BRANCH   2  10
ATOM      9  C   UNL     1       0.155   1.052  -0.189  0.00  0.00    -0.008 C 
ATOM     10  C   UNL     1      -0.022  -0.465  -0.102  0.00  0.00    -0.039 C 
BRANCH  10  11
ATOM     11  C   UNL     1       0.570  -1.111  -1.328  0.00  0.00    -0.043 A 
ATOM     12  C   UNL     1       1.824  -1.689  -1.268  0.00  0.00    +0.003 A 
ATOM     13  C   UNL     1       2.367  -2.281  -2.393  0.00  0.00    +0.000 A 
ATOM     14  C   UNL     1       1.656  -2.297  -3.578  0.00  0.00    +0.001 A 
ATOM     15  C   UNL     1       0.402  -1.719  -3.639  0.00  0.00    +0.020 A 
ATOM     16  C   UNL     1      -0.145  -1.131  -2.512  0.00  0.00    +0.043 A 
ATOM     17 CL   UNL     1      -1.723  -0.411  -2.587  0.00  0.00    -0.083 Cl
ENDBRANCH  10  11
ENDBRANCH   2  10
ENDBRANCH   1   5
BRANCH   1  18
ATOM     18  C   UNL     1       0.549  -2.334   6.063  0.00  0.00    +0.166 C 
BRANCH  18  19
ATOM     19  O   UNL     1      -0.771  -2.882   6.062  0.00  0.00    -0.387 OA
ATOM     20  H   UNL     1      -0.796  -3.848   6.084  0.00  0.00    +0.210 HD
ENDBRANCH  18  19
BRANCH  18  21
ATOM     21  C   UNL     1       1.282  -2.776   7.331  0.00  0.00    +0.261 C 
BRANCH  21  22
ATOM     22  O   UNL     1       0.638  -2.212   8.475  0.00  0.00    -0.489 OA
BRANCH  22  23
ATOM     23  C   UNL     1       1.169  -2.507   9.691  0.00  0.00    +0.121 A 
ATOM     24  C   UNL     1       2.290  -3.319   9.780  0.00  0.00    +0.047 A 
ATOM     25  C   UNL     1       2.830  -3.620  11.014  0.00  0.00    +0.027 A 
ATOM     26  C   UNL     1       2.250  -3.110  12.168  0.00  0.00    +0.034 A 
ATOM     27  C   UNL     1       1.127  -2.297  12.079  0.00  0.00    +0.027 A 
ATOM     28  C   UNL     1       0.592  -1.993  10.843  0.00  0.00    +0.047 A 
BRANCH  26  29
ATOM     29  N   UNL     1       2.797  -3.415  13.421  0.00  0.00    -0.286 N 
ATOM     30  C   UNL     1       4.128  -3.583  13.553  0.00  0.00    +0.214 C 
ATOM     31  O   UNL     1       4.861  -3.375  12.610  0.00  0.00    -0.276 OA
ATOM     32  C   UNL     1       4.704  -4.027  14.873  0.00  0.00    +0.109 C 
ATOM     33  H   UNL     1       2.217  -3.506  14.194  0.00  0.00    +0.155 HD
ENDBRANCH  26  29
ENDBRANCH  22  23
ENDBRANCH  21  22
ENDBRANCH  18  21
ENDBRANCH   1  18
TORSDOF 9
