REMARK  Name = ZINC67342021
REMARK  3 active torsions:
REMARK  status: ('A' for Active; 'I' for Inactive)
REMARK    1  A    between atoms: C_13  and  C_15
REMARK    2  A    between atoms: C_15  and  C_16
REMARK    3  A    between atoms: C_19  and  N_22
REMARK                            x       y       z     vdW  Elec       q    Type
REMARK                         _______ _______ _______ _____ _____    ______ ____
ROOT
ATOM      1  C   UNL     1       0.491  -8.123   1.226  0.00  0.00    -0.038 A 
ATOM      2  C   UNL     1       0.528  -8.791   0.015  0.00  0.00    +0.006 A 
ATOM      3  C   UNL     1       0.811 -10.141  -0.023  0.00  0.00    +0.028 A 
ATOM      4  C   UNL     1       1.061 -10.832   1.164  0.00  0.00    +0.067 A 
ATOM      5  C   UNL     1       1.022 -10.152   2.383  0.00  0.00    +0.028 A 
ATOM      6  C   UNL     1       0.743  -8.801   2.406  0.00  0.00    +0.006 A 
ENDROOT
BRANCH   4   7
ATOM      7  N   UNL     1       1.342 -12.172   1.133  0.00  0.00    -0.226 NA
ATOM      8  C   UNL     1       2.332 -12.652   1.852  0.00  0.00    +0.155 C 
ATOM      9  N   UNL     1       2.754 -13.962   1.935  0.00  0.00    -0.318 N 
ATOM     10  C   UNL     1       3.920 -14.268   2.747  0.00  0.00    +0.108 C 
ATOM     11  C   UNL     1       3.803 -15.671   3.371  0.00  0.00    +0.189 C 
ATOM     12  S   UNL     1       3.145 -15.330   5.052  0.00  0.00    -0.028 S 
ATOM     13  O   UNL     1       4.110 -15.730   6.016  0.00  0.00    -0.174 OA
ATOM     14  O   UNL     1       1.819 -15.833   5.140  0.00  0.00    -0.174 OA
ATOM     15  C   UNL     1       3.086 -13.491   4.993  0.00  0.00    +0.182 C 
ATOM     16  C   UNL     1       4.092 -13.205   3.872  0.00  0.00    +0.097 C 
ATOM     17  S   UNL     1       3.436 -11.751   2.933  0.00  0.00    -0.084 S 
ATOM     18  H   UNL     1       2.282 -14.665   1.462  0.00  0.00    +0.148 HD
ENDBRANCH   4   7
BRANCH   1  19
ATOM     19  C   UNL     1       0.181  -6.649   1.261  0.00  0.00    +0.131 C 
BRANCH  19  32
ATOM     20  C   UNL     1       2.370   1.437   0.014  0.00  0.00    +0.005 A 
ATOM     21  C   UNL     1       1.127   2.057   0.003  0.00  0.00    +0.018 A 
ATOM     22  C   UNL     1      -0.015   1.282  -0.017  0.00  0.00    +0.084 A 
ATOM     23  N   UNL     1       0.061  -0.036  -0.024  0.00  0.00    -0.350 N 
ATOM     24  C   UNL     1       1.227  -0.664  -0.014  0.00  0.00    +0.099 A 
ATOM     25  C   UNL     1       2.418   0.054   0.005  0.00  0.00    +0.042 A 
ATOM     26  N   UNL     1       1.260  -2.054  -0.022  0.00  0.00    -0.314 N 
ATOM     27  C   UNL     1       2.538  -2.770  -0.142  0.00  0.00    +0.125 C 
ATOM     28  C   UNL     1       2.671  -3.737   1.041  0.00  0.00    +0.126 C 
ATOM     29  N   UNL     1       1.430  -4.516   1.153  0.00  0.00    -0.298 N 
ATOM     30  C   UNL     1       0.152  -3.799   1.273  0.00  0.00    +0.126 C 
ATOM     31  C   UNL     1       0.020  -2.833   0.096  0.00  0.00    +0.125 C 
ATOM     32  C   UNL     1       1.462  -5.863   1.145  0.00  0.00    +0.220 C 
ATOM     33  O   UNL     1       2.522  -6.443   1.045  0.00  0.00    -0.275 OA
ATOM     34  H   UNL     1      -0.757  -0.557  -0.038  0.00  0.00    +0.166 HD
ENDBRANCH  19  32
ENDBRANCH   1  19
TORSDOF 3
