REMARK  Name = ZINC43420519
REMARK  7 active torsions:
REMARK  status: ('A' for Active; 'I' for Inactive)
REMARK    1  A    between atoms: C_1  and  N_2
REMARK    2  A    between atoms: N_2  and  C_3
REMARK    3  A    between atoms: N_2  and  C_4
REMARK    4  A    between atoms: C_4  and  C_6
REMARK    5  A    between atoms: C_4  and  C_19
REMARK    6  A    between atoms: C_6  and  N_7
REMARK    7  A    between atoms: N_10  and  C_11
REMARK                            x       y       z     vdW  Elec       q    Type
REMARK                         _______ _______ _______ _____ _____    ______ ____
ROOT
ATOM      1  N   UNL     1      -1.171  -2.657   1.125  0.00  0.00    -0.300 N 
ATOM      2  C   UNL     1      -1.397  -3.972   1.318  0.00  0.00    +0.304 C 
ATOM      3  O   UNL     1      -1.992  -4.616   0.475  0.00  0.00    -0.253 OA
ATOM      4  N   UNL     1      -0.964  -4.572   2.444  0.00  0.00    -0.268 N 
ATOM      5  H   UNL     1      -0.697  -2.143   1.797  0.00  0.00    +0.150 HD
ATOM      6  H   UNL     1      -0.546  -4.047   3.144  0.00  0.00    +0.156 HD
ENDROOT
BRANCH   4   7
ATOM      7  C   UNL     1      -1.118  -5.955   2.604  0.00  0.00    +0.053 A 
ATOM      8  C   UNL     1      -1.061  -6.793   1.499  0.00  0.00    +0.026 A 
ATOM      9  C   UNL     1      -1.213  -8.157   1.659  0.00  0.00    +0.017 A 
ATOM     10  C   UNL     1      -1.421  -8.688   2.920  0.00  0.00    +0.019 A 
ATOM     11  C   UNL     1      -1.479  -7.855   4.023  0.00  0.00    +0.037 A 
ATOM     12  C   UNL     1      -1.322  -6.491   3.870  0.00  0.00    +0.063 A 
ATOM     13 CL   UNL     1      -1.387  -5.447   5.255  0.00  0.00    -0.082 Cl
ATOM     14 BR   UNL     1      -1.629 -10.555   3.135  0.00  0.00    -0.050 Br
ENDBRANCH   4   7
BRANCH   1  15
ATOM     15  C   UNL     1      -1.642  -2.004  -0.099  0.00  0.00    +0.098 C 
BRANCH  15  16
ATOM     16  C   UNL     1      -1.373  -0.501  -0.011  0.00  0.00    +0.016 C 
BRANCH  16  17
ATOM     17  C   UNL     1       0.115  -0.258   0.018  0.00  0.00    +0.093 A 
ATOM     18  C   UNL     1       0.871   0.120  -1.028  0.00  0.00    +0.043 A 
ATOM     19  C   UNL     1       2.199   0.229  -0.554  0.00  0.00    +0.041 A 
ATOM     20  C   UNL     1       2.175  -0.089   0.752  0.00  0.00    +0.195 A 
ATOM     21  O   UNL     1       0.908  -0.378   1.095  0.00  0.00    -0.469 OA
ENDBRANCH  16  17
BRANCH  16  23
ATOM     22  C   UNL     1      -1.803   1.493   1.251  0.00  0.00    -0.096 C 
ATOM     23  N   UNL     1      -1.981   0.035   1.214  0.00  0.00    +0.384 N 
ATOM     24  C   UNL     1      -3.415  -0.284   1.229  0.00  0.00    -0.096 C 
ATOM     25  H   UNL     1      -1.536  -0.379   2.019  0.00  0.00    -0.082 HD
ENDBRANCH  16  23
ENDBRANCH  15  16
ENDBRANCH   1  15
TORSDOF 5
