REMARK  Name = ZINC09969830
REMARK  8 active torsions:
REMARK  status: ('A' for Active; 'I' for Inactive)
REMARK    1  A    between atoms: C_1  and  C_2
REMARK    2  A    between atoms: C_3  and  O_26
REMARK    3  A    between atoms: C_4  and  C_12
REMARK    4  A    between atoms: C_5  and  C_8
REMARK    5  A    between atoms: C_8  and  O_9
REMARK    6  A    between atoms: O_9  and  P_10
REMARK    7  A    between atoms: N_13  and  C_14
REMARK    8  A    between atoms: C_19  and  C_20
REMARK                            x       y       z     vdW  Elec       q    Type
REMARK                         _______ _______ _______ _____ _____    ______ ____
ROOT
ATOM      1  C   UNL     1      -3.435   4.555   6.412  0.00  0.00    +0.069 C 
ATOM      2  C   UNL     1      -3.110   3.666   5.239  0.00  0.00    +0.080 A 
ATOM      3  C   UNL     1      -4.136   3.022   4.563  0.00  0.00    +0.147 A 
ATOM      4  C   UNL     1      -3.815   2.200   3.468  0.00  0.00    +0.043 A 
ATOM      5  C   UNL     1      -2.464   2.064   3.120  0.00  0.00    +0.009 A 
ATOM      6  C   UNL     1      -1.513   2.744   3.851  0.00  0.00    +0.117 A 
ATOM      7  N   UNL     1      -1.856   3.510   4.869  0.00  0.00    -0.256 NA
ENDROOT
BRANCH   4   8
ATOM      8  C   UNL     1      -4.866   1.498   2.713  0.00  0.00    +0.123 C 
ATOM      9  N   UNL     1      -6.117   1.638   3.054  0.00  0.00    -0.254 NA
BRANCH   9  10
ATOM     10  C   UNL     1      -7.100   1.081   2.287  0.00  0.00    +0.072 A 
ATOM     11  C   UNL     1      -7.089   1.248   0.901  0.00  0.00    +0.028 A 
ATOM     12  C   UNL     1      -8.082   0.679   0.131  0.00  0.00    +0.002 A 
ATOM     13  C   UNL     1      -9.099  -0.050   0.726  0.00  0.00    +0.001 A 
ATOM     14  C   UNL     1      -9.129  -0.221   2.095  0.00  0.00    +0.010 A 
ATOM     15  C   UNL     1      -8.134   0.340   2.889  0.00  0.00    +0.007 A 
BRANCH  15  16
ATOM     16  C   UNL     1      -8.162   0.159   4.360  0.00  0.00    -0.016 A 
ATOM     17  C   UNL     1      -7.024  -0.286   5.032  0.00  0.00    +0.008 A 
ATOM     18  C   UNL     1      -7.055  -0.448   6.402  0.00  0.00    +0.001 A 
ATOM     19  C   UNL     1      -8.215  -0.180   7.107  0.00  0.00    +0.000 A 
ATOM     20  C   UNL     1      -9.349   0.256   6.445  0.00  0.00    +0.001 A 
ATOM     21  C   UNL     1      -9.328   0.427   5.075  0.00  0.00    +0.008 A 
ENDBRANCH  15  16
ENDBRANCH   9  10
ENDBRANCH   4   8
BRANCH   3  22
ATOM     22  O   UNL     1      -5.427   3.186   4.948  0.00  0.00    -0.504 OA
ATOM     23  H   UNL     1      -5.876   3.925   4.514  0.00  0.00    +0.292 HD
ENDBRANCH   3  22
BRANCH   5  24
ATOM     24  C   UNL     1      -2.058   1.193   1.959  0.00  0.00    +0.210 C 
BRANCH  24  25
ATOM     25  O   UNL     1      -0.637   1.230   1.810  0.00  0.00    -0.279 OA
BRANCH  25  26
ATOM     26  P   UNL     1       0.146   0.413   0.665  0.00  0.00    +0.532 P 
ATOM     27  O   UNL     1      -0.406   0.768  -0.661  0.00  0.00    -0.222 OA
ATOM     28  O   UNL     1      -0.033  -1.168   0.916  0.00  0.00    -0.115 OA
ATOM     29  O   UNL     1       1.711   0.789   0.713  0.00  0.00    -0.115 OA
ENDBRANCH  25  26
ENDBRANCH  24  25
ENDBRANCH   5  24
TORSDOF 7
