REMARK  Name = ZINC64800030
REMARK  7 active torsions:
REMARK  status: ('A' for Active; 'I' for Inactive)
REMARK    1  A    between atoms: C_1  and  C_2
REMARK    2  A    between atoms: C_2  and  N_3
REMARK    3  A    between atoms: C_6  and  C_27
REMARK    4  A    between atoms: C_8  and  N_10
REMARK    5  A    between atoms: N_18  and  C_19
REMARK    6  A    between atoms: C_23  and  C_26
REMARK    7  A    between atoms: C_24  and  C_25
REMARK                            x       y       z     vdW  Elec       q    Type
REMARK                         _______ _______ _______ _____ _____    ______ ____
ROOT
ATOM      1  N   UNL     1       1.987  -3.760   4.129  0.00  0.00    -0.312 N 
ATOM      2  C   UNL     1       2.030  -2.889   5.311  0.00  0.00    +0.125 C 
ATOM      3  C   UNL     1       1.447  -3.653   6.506  0.00  0.00    +0.128 C 
ATOM      4  N   UNL     1       2.087  -4.974   6.576  0.00  0.00    -0.282 N 
ATOM      5  C   UNL     1       2.044  -5.846   5.394  0.00  0.00    +0.128 C 
ATOM      6  C   UNL     1       2.622  -5.084   4.201  0.00  0.00    +0.125 C 
ATOM      7  C   UNL     1       2.704  -5.378   7.704  0.00  0.00    +0.307 C 
ATOM      8  O   UNL     1       2.654  -4.690   8.705  0.00  0.00    -0.252 OA
ATOM      9  N   UNL     1       3.377  -6.546   7.723  0.00  0.00    -0.269 N 
ATOM     10  H   UNL     1       3.458  -7.072   6.912  0.00  0.00    +0.156 HD
ENDROOT
BRANCH   1  16
ATOM     11  N   UNL     1      -0.479  -0.525   1.790  0.00  0.00    -0.315 N 
ATOM     12  C   UNL     1       0.141  -1.762   1.811  0.00  0.00    +0.195 A 
ATOM     13  N   UNL     1       0.113  -2.517   0.722  0.00  0.00    -0.332 N 
ATOM     14  C   UNL     1       0.696  -3.707   0.703  0.00  0.00    +0.019 A 
ATOM     15  C   UNL     1       1.340  -4.162   1.837  0.00  0.00    +0.064 A 
ATOM     16  C   UNL     1       1.353  -3.345   2.969  0.00  0.00    +0.127 A 
ATOM     17  N   UNL     1       0.752  -2.160   2.916  0.00  0.00    -0.201 NA
ATOM     18  C   UNL     1       0.656  -4.555  -0.542  0.00  0.00    +0.063 C 
ATOM     19  H   UNL     1      -0.462   0.039   2.579  0.00  0.00    +0.149 HD
ATOM     20  H   UNL     1      -0.340  -2.194  -0.072  0.00  0.00    +0.168 HD
BRANCH  11  22
ATOM     21  C   UNL     1      -1.756   1.321   0.819  0.00  0.00    +0.024 C 
ATOM     22  C   UNL     1      -1.160  -0.067   0.577  0.00  0.00    +0.101 C 
ENDBRANCH  11  22
ENDBRANCH   1  16
BRANCH   9  23
ATOM     23  C   UNL     1       3.958  -7.000   8.912  0.00  0.00    +0.038 A 
ATOM     24  C   UNL     1       4.371  -6.089   9.876  0.00  0.00    +0.023 A 
ATOM     25  C   UNL     1       4.944  -6.540  11.049  0.00  0.00    +0.002 A 
ATOM     26  C   UNL     1       5.108  -7.896  11.264  0.00  0.00    +0.004 A 
ATOM     27  C   UNL     1       4.699  -8.805  10.306  0.00  0.00    -0.046 A 
ATOM     28  C   UNL     1       4.119  -8.361   9.133  0.00  0.00    -0.026 A 
ATOM     29  C   UNL     1       3.668  -9.353   8.092  0.00  0.00    +0.046 C 
ATOM     30  C   UNL     1       4.880 -10.282  10.543  0.00  0.00    +0.044 C 
ENDBRANCH   9  23
TORSDOF 3
