REMARK  Name = ZINC63752368
REMARK  8 active torsions:
REMARK  status: ('A' for Active; 'I' for Inactive)
REMARK    1  A    between atoms: C_1  and  C_2
REMARK    2  A    between atoms: C_5  and  C_8
REMARK    3  A    between atoms: N_10  and  C_11
REMARK    4  A    between atoms: C_14  and  C_38
REMARK    5  A    between atoms: C_19  and  C_21
REMARK    6  A    between atoms: N_26  and  C_29
REMARK    7  A    between atoms: C_32  and  C_35
REMARK    8  A    between atoms: C_35  and  C_37
REMARK                            x       y       z     vdW  Elec       q    Type
REMARK                         _______ _______ _______ _____ _____    ______ ____
ROOT
ATOM      1  C   UNL     1       0.281  -6.392   1.103  0.00  0.00    +0.051 C 
ATOM      2  C   UNL     1       0.434  -7.271   0.044  0.00  0.00    +0.018 A 
ATOM      3  C   UNL     1       0.486  -7.077  -1.357  0.00  0.00    +0.015 A 
ATOM      4  C   UNL     1       0.646  -8.145  -2.177  0.00  0.00    -0.050 A 
ATOM      5  C   UNL     1       0.761  -9.444  -1.675  0.00  0.00    +0.005 A 
ATOM      6  C   UNL     1       0.719  -9.704  -0.345  0.00  0.00    +0.026 A 
ATOM      7  C   UNL     1       0.555  -8.638   0.577  0.00  0.00    +0.045 A 
ATOM      8  N   UNL     1       0.484  -8.627   1.893  0.00  0.00    -0.369 N 
ATOM      9  C   UNL     1       0.315  -7.245   2.352  0.00  0.00    +0.211 C 
ATOM     10  C   UNL     1       0.701  -7.926  -3.667  0.00  0.00    +0.044 C 
ATOM     11  H   UNL     1       0.539  -9.408   2.466  0.00  0.00    +0.161 HD
ENDROOT
BRANCH   9  12
ATOM     12  C   UNL     1      -0.980  -7.107   3.110  0.00  0.00    +0.244 C 
ATOM     13  O   UNL     1      -1.898  -7.868   2.885  0.00  0.00    -0.273 OA
ATOM     14  N   UNL     1      -1.119  -6.139   4.037  0.00  0.00    -0.296 N 
ATOM     15  C   UNL     1      -0.062  -5.137   4.237  0.00  0.00    +0.126 C 
ATOM     16  C   UNL     1      -0.676  -3.740   4.084  0.00  0.00    +0.124 C 
ATOM     17  N   UNL     1      -1.888  -3.666   4.913  0.00  0.00    -0.327 N 
ATOM     18  C   UNL     1      -2.944  -4.668   4.714  0.00  0.00    +0.124 C 
ATOM     19  C   UNL     1      -2.333  -6.062   4.862  0.00  0.00    +0.126 C 
BRANCH  17  20
ATOM     20  C   UNL     1      -2.031  -2.668   5.869  0.00  0.00    +0.030 A 
ATOM     21  C   UNL     1      -1.088  -1.646   5.952  0.00  0.00    +0.024 A 
ATOM     22  C   UNL     1      -1.225  -0.663   6.890  0.00  0.00    +0.013 A 
ATOM     23  C   UNL     1      -2.316  -0.684   7.769  0.00  0.00    +0.017 A 
ATOM     24  C   UNL     1      -3.261  -1.714   7.682  0.00  0.00    +0.013 A 
ATOM     25  C   UNL     1      -3.120  -2.689   6.737  0.00  0.00    +0.024 A 
BRANCH  23  26
ATOM     26  C   UNL     1      -2.466   0.370   8.779  0.00  0.00    +0.160 C 
ATOM     27  O   UNL     1      -1.646   1.261   8.853  0.00  0.00    -0.292 OA
ATOM     28  C   UNL     1      -3.640   0.346   9.724  0.00  0.00    +0.091 C 
ENDBRANCH  23  26
ENDBRANCH  17  20
ENDBRANCH   9  12
BRANCH   1  31
ATOM     29  C   UNL     1      -0.378  -4.472  -0.073  0.00  0.00    +0.248 C 
ATOM     30  O   UNL     1      -0.816  -5.171  -0.966  0.00  0.00    -0.270 OA
ATOM     31  N   UNL     1       0.137  -5.040   1.035  0.00  0.00    -0.282 N 
ATOM     32  H   UNL     1       0.405  -4.486   1.785  0.00  0.00    +0.155 HD
BRANCH  29  37
ATOM     33  C   UNL     1      -0.503   1.258  -0.577  0.00  0.00    +0.044 C 
ATOM     34  C   UNL     1      -0.470  -0.243  -0.446  0.00  0.00    -0.050 A 
ATOM     35  C   UNL     1      -0.883  -1.036  -1.501  0.00  0.00    +0.004 A 
ATOM     36  C   UNL     1      -0.856  -2.411  -1.387  0.00  0.00    +0.013 A 
ATOM     37  C   UNL     1      -0.409  -3.001  -0.203  0.00  0.00    +0.037 A 
ATOM     38  C   UNL     1       0.007  -2.194   0.858  0.00  0.00    +0.013 A 
ATOM     39  C   UNL     1      -0.021  -0.821   0.729  0.00  0.00    +0.004 A 
ENDBRANCH  29  37
ENDBRANCH   1  31
TORSDOF 5
