REMARK  Name = ZINC21803988
REMARK  8 active torsions:
REMARK  status: ('A' for Active; 'I' for Inactive)
REMARK    1  A    between atoms: C_1  and  C_2
REMARK    2  A    between atoms: C_5  and  N_8
REMARK    3  A    between atoms: C_9  and  C_11
REMARK    4  A    between atoms: C_11  and  C_12
REMARK    5  A    between atoms: C_12  and  C_13
REMARK    6  A    between atoms: C_14  and  C_31
REMARK    7  A    between atoms: N_23  and  C_24
REMARK    8  A    between atoms: C_24  and  C_25
REMARK                            x       y       z     vdW  Elec       q    Type
REMARK                         _______ _______ _______ _____ _____    ______ ____
ROOT
ATOM      1  C   UNL     1       9.061  -3.701  -3.064  0.00  0.00    +0.040 A 
ATOM      2  C   UNL     1       9.252  -3.802  -1.729  0.00  0.00    +0.050 A 
ATOM      3  N   UNL     1       8.330  -3.286  -0.867  0.00  0.00    -0.215 NA
ATOM      4  C   UNL     1       7.203  -2.663  -1.350  0.00  0.00    +0.258 A 
ATOM      5  N   UNL     1       6.181  -2.088  -0.749  0.00  0.00    -0.176 NA
ATOM      6  C   UNL     1       5.323  -1.623  -1.662  0.00  0.00    +0.237 A 
ATOM      7  N   UNL     1       5.787  -1.884  -2.863  0.00  0.00    -0.125 NA
ATOM      8  N   UNL     1       7.004  -2.558  -2.692  0.00  0.00    -0.158 N 
ATOM      9  C   UNL     1       7.903  -3.061  -3.556  0.00  0.00    +0.279 A 
ATOM     10  O   UNL     1       7.720  -2.965  -4.756  0.00  0.00    -0.265 OA
ATOM     11  N   UNL     1       4.130  -0.960  -1.384  0.00  0.00    -0.308 N 
ATOM     12  C   UNL     1      10.485  -4.484  -1.194  0.00  0.00    +0.066 C 
ATOM     13  H   UNL     1       3.491  -0.608  -2.208  0.00  0.00    +0.149 HD
ENDROOT
BRANCH   1  14
ATOM     14  C   UNL     1      10.077  -4.270  -4.020  0.00  0.00    +0.051 C 
BRANCH  14  15
ATOM     15  C   UNL     1       9.654  -5.680  -4.435  0.00  0.00    +0.101 C 
BRANCH  15  17
ATOM     16  N   UNL     1      10.504  -7.489  -5.894  0.00  0.00    -0.285 N 
ATOM     17  C   UNL     1      10.671  -6.249  -5.392  0.00  0.00    +0.218 C 
ATOM     18  O   UNL     1      11.638  -5.591  -5.710  0.00  0.00    -0.275 OA
ATOM     19  H   UNL     1       9.668  -8.115  -5.547  0.00  0.00    +0.155 HD
BRANCH  16  24
ATOM     20  C   UNL     1      14.114  -9.480  -9.791  0.00  0.00    +0.044 C 
ATOM     21  C   UNL     1      13.155  -8.951  -8.756  0.00  0.00    -0.050 A 
ATOM     22  C   UNL     1      13.615  -8.121  -7.749  0.00  0.00    +0.005 A 
ATOM     23  C   UNL     1      12.739  -7.635  -6.799  0.00  0.00    +0.023 A 
ATOM     24  C   UNL     1      11.395  -7.980  -6.855  0.00  0.00    +0.033 A 
ATOM     25  C   UNL     1      10.937  -8.818  -7.864  0.00  0.00    +0.023 A 
ATOM     26  C   UNL     1      11.817  -9.296  -8.814  0.00  0.00    +0.005 A 
ENDBRANCH  16  24
ENDBRANCH  15  17
ENDBRANCH  14  15
ENDBRANCH   1  14
BRANCH  11  27
ATOM     27  C   UNL     1       3.726  -0.730   0.005  0.00  0.00    +0.139 C 
BRANCH  27  28
ATOM     28  C   UNL     1       2.409   0.001   0.030  0.00  0.00    -0.030 A 
ATOM     29  C   UNL     1       1.224  -0.710   0.046  0.00  0.00    +0.005 A 
ATOM     30  C   UNL     1       0.015  -0.040   0.070  0.00  0.00    +0.000 A 
ATOM     31  C   UNL     1      -0.009   1.342   0.077  0.00  0.00    +0.000 A 
ATOM     32  C   UNL     1       1.177   2.054   0.062  0.00  0.00    +0.000 A 
ATOM     33  C   UNL     1       2.385   1.383   0.038  0.00  0.00    +0.005 A 
ENDBRANCH  27  28
ENDBRANCH  11  27
TORSDOF 6
