REMARK  Name = ZINC20150239
REMARK  11 active torsions:
REMARK  status: ('A' for Active; 'I' for Inactive)
REMARK    1  A    between atoms: C_1  and  C_2
REMARK    2  A    between atoms: C_2  and  C_3
REMARK    3  A    between atoms: C_2  and  C_4
REMARK    4  A    between atoms: C_4  and  C_5
REMARK    5  A    between atoms: C_8  and  C_11
REMARK    6  A    between atoms: C_14  and  C_16
REMARK    7  A    between atoms: C_16  and  C_32
REMARK    8  A    between atoms: C_17  and  N_18
REMARK    9  A    between atoms: N_18  and  C_19
REMARK   10  A    between atoms: C_22  and  S_25
REMARK   11  A    between atoms: S_25  and  N_28
REMARK                            x       y       z     vdW  Elec       q    Type
REMARK                         _______ _______ _______ _____ _____    ______ ____
ROOT
ATOM      1  C   UNL     1       2.361  -2.879  -0.037  0.00  0.00    +0.098 C 
ATOM      2  C   UNL     1       2.182  -4.230  -0.042  0.00  0.00    +0.093 C 
ENDROOT
BRANCH   1   6
ATOM      3  C   UNL     1       0.002  -0.004   0.002  0.00  0.00    +0.079 A 
ATOM      4  C   UNL     1      -1.170  -0.710   0.009  0.00  0.00    +0.075 A 
ATOM      5  S   UNL     1      -0.549  -2.387  -0.006  0.00  0.00    -0.074 S 
ATOM      6  C   UNL     1       1.192  -1.979  -0.021  0.00  0.00    +0.120 A 
ATOM      7  N   UNL     1       1.152  -0.655  -0.018  0.00  0.00    -0.238 NA
BRANCH   3  11
ATOM      8  C   UNL     1      -0.056   4.247   0.024  0.00  0.00    -0.047 A 
ATOM      9  C   UNL     1       1.153   3.575   0.010  0.00  0.00    +0.004 A 
ATOM     10  C   UNL     1       1.178   2.195   0.003  0.00  0.00    +0.010 A 
ATOM     11  C   UNL     1      -0.018   1.479   0.010  0.00  0.00    +0.001 A 
ATOM     12  C   UNL     1      -1.233   2.162   0.020  0.00  0.00    +0.010 A 
ATOM     13  C   UNL     1      -1.246   3.542   0.032  0.00  0.00    +0.004 A 
BRANCH   8  14
ATOM     14  C   UNL     1      -0.076   5.754   0.031  0.00  0.00    +0.038 C 
BRANCH  14  16
ATOM     15  C   UNL     1      -0.243   7.793  -1.403  0.00  0.00    +0.007 C 
ATOM     16  C   UNL     1      -0.096   6.271  -1.409  0.00  0.00    -0.013 C 
ATOM     17  C   UNL     1       1.210   5.886  -2.107  0.00  0.00    +0.007 C 
ENDBRANCH  14  16
ENDBRANCH   8  14
ENDBRANCH   3  11
ENDBRANCH   1   6
BRANCH   2  18
ATOM     18  N   UNL     1       3.265  -5.063  -0.057  0.00  0.00    -0.319 N 
ATOM     19  H   UNL     1       4.282  -4.643  -0.064  0.00  0.00    +0.152 HD
BRANCH  18  20
ATOM     20  C   UNL     1       3.081  -6.448  -0.063  0.00  0.00    +0.031 A 
ATOM     21  C   UNL     1       1.798  -6.980  -0.048  0.00  0.00    +0.025 A 
ATOM     22  C   UNL     1       1.620  -8.349  -0.060  0.00  0.00    +0.031 A 
ATOM     23  C   UNL     1       2.717  -9.191  -0.075  0.00  0.00    +0.113 A 
ATOM     24  C   UNL     1       3.996  -8.665  -0.084  0.00  0.00    +0.031 A 
ATOM     25  C   UNL     1       4.181  -7.296  -0.078  0.00  0.00    +0.025 A 
BRANCH  23  26
ATOM     26  S   UNL     1       2.485 -10.937  -0.084  0.00  0.00    +0.102 S 
ATOM     27  O   UNL     1       1.192 -11.173  -0.624  0.00  0.00    -0.146 OA
ATOM     28  O   UNL     1       3.661 -11.501  -0.649  0.00  0.00    -0.146 OA
BRANCH  26  29
ATOM     29  N   UNL     1       2.435 -11.432   1.496  0.00  0.00    -0.093 NA
ATOM     30  C   UNL     1       1.409 -11.021   2.313  0.00  0.00    +0.212 C 
ATOM     31  N   UNL     1       0.476 -10.240   1.845  0.00  0.00    -0.369 N 
ATOM     32  N   UNL     1       1.368 -11.431   3.625  0.00  0.00    -0.369 N 
ATOM     33  H   UNL     1      -0.344  -9.910   2.499  0.00  0.00    +0.159 HD
ATOM     34  H   UNL     1       0.547 -11.102   4.279  0.00  0.00    +0.159 HD
ATOM     35  H   UNL     1       2.156 -12.090   4.020  0.00  0.00    +0.159 HD
ATOM     36  H   UNL     1       0.510  -9.911   0.796  0.00  0.00    +0.159 HD
ENDBRANCH  26  29
ENDBRANCH  23  26
ENDBRANCH  18  20
ENDBRANCH   2  18
BRANCH   1  37
ATOM     37  C   UNL     1       3.685  -2.332  -0.046  0.00  0.00    +0.103 C 
ATOM     38  N   UNL     1       4.735  -1.899  -0.054  0.00  0.00    -0.191 NA
ENDBRANCH   1  37
TORSDOF 9
