REMARK  Name = ZINC33722746
REMARK  5 active torsions:
REMARK  status: ('A' for Active; 'I' for Inactive)
REMARK    1  A    between atoms: C_1  and  O_2
REMARK    2  A    between atoms: O_2  and  C_3
REMARK    3  A    between atoms: C_4  and  C_11
REMARK    4  A    between atoms: N_12  and  N_13
REMARK    5  A    between atoms: N_16  and  N_17
REMARK                            x       y       z     vdW  Elec       q    Type
REMARK                         _______ _______ _______ _____ _____    ______ ____
ROOT
ATOM      1  C   UNL     1       2.853  -0.544  -0.455  0.00  0.00    +0.144 C 
ATOM      2  N   UNL     1       4.113  -0.810  -0.617  0.00  0.00    -0.179 NA
ENDROOT
BRANCH   1   4
ATOM      3  C   UNL     1       0.887  -0.905   1.034  0.00  0.00    +0.143 A 
ATOM      4  C   UNL     1       2.251  -0.618   0.888  0.00  0.00    +0.039 A 
ATOM      5  C   UNL     1       3.037  -0.403   2.022  0.00  0.00    +0.028 A 
ATOM      6  C   UNL     1       2.467  -0.474   3.278  0.00  0.00    +0.020 A 
ATOM      7  C   UNL     1       1.119  -0.758   3.418  0.00  0.00    +0.034 A 
ATOM      8  C   UNL     1       0.330  -0.968   2.301  0.00  0.00    +0.061 A 
ATOM      9 BR   UNL     1      -1.512  -1.347   2.505  0.00  0.00    -0.046 Br
ATOM     10 BR   UNL     1       3.533  -0.184   4.813  0.00  0.00    -0.050 Br
BRANCH   3  12
ATOM     11  C   UNL     1      -0.432   0.040  -0.703  0.00  0.00    +0.277 C 
ATOM     12  O   UNL     1       0.113  -1.115  -0.062  0.00  0.00    -0.493 OA
ENDBRANCH   3  12
ENDBRANCH   1   4
BRANCH   2  13
ATOM     13  N   UNL     1       4.851  -1.371   0.433  0.00  0.00    -0.247 N 
ATOM     14  C   UNL     1       6.209  -1.548   0.301  0.00  0.00    +0.213 C 
ATOM     15  N   UNL     1       6.824  -1.106  -0.760  0.00  0.00    -0.369 N 
ATOM     16  N   UNL     1       6.918  -2.192   1.289  0.00  0.00    -0.197 N 
ATOM     17  H   UNL     1       6.450  -2.597   2.036  0.00  0.00    +0.197 HD
ATOM     18  H   UNL     1       7.761  -1.316  -0.900  0.00  0.00    +0.159 HD
ATOM     19  H   UNL     1       4.405  -1.634   1.253  0.00  0.00    +0.192 HD
ATOM     20  H   UNL     1       6.346  -0.567  -1.409  0.00  0.00    +0.159 HD
BRANCH  16  21
ATOM     21  N   UNL     1       8.315  -2.264   1.215  0.00  0.00    +0.133 N 
ATOM     22  O   UNL     1       8.908  -1.648   0.360  0.00  0.00    -0.108 OA
ATOM     23  O   UNL     1       8.928  -2.941   2.007  0.00  0.00    -0.108 OA
ENDBRANCH  16  21
ENDBRANCH   2  13
TORSDOF 4
