REMARK  Name = ZINC12671606
REMARK  7 active torsions:
REMARK  status: ('A' for Active; 'I' for Inactive)
REMARK    1  A    between atoms: C_3  and  C_9
REMARK    2  A    between atoms: N_11  and  C_12
REMARK    3  A    between atoms: C_12  and  C_13
REMARK    4  A    between atoms: N_15  and  N_16
REMARK    5  A    between atoms: C_17  and  C_19
REMARK    6  A    between atoms: C_19  and  S_20
REMARK    7  A    between atoms: S_20  and  C_21
REMARK                            x       y       z     vdW  Elec       q    Type
REMARK                         _______ _______ _______ _____ _____    ______ ____
ROOT
ATOM      1  C   UNL     1      -0.513   1.424  -4.808  0.00  0.00    +0.246 C 
ATOM      2  O   UNL     1       0.481   0.741  -4.933  0.00  0.00    -0.273 OA
ATOM      3  N   UNL     1      -0.966   1.736  -3.578  0.00  0.00    -0.233 N 
ATOM      4  H   UNL     1      -1.761   2.283  -3.479  0.00  0.00    +0.173 HD
ENDROOT
BRANCH   3   5
ATOM      5  N   UNL     1      -0.288   1.272  -2.443  0.00  0.00    -0.234 N 
ATOM      6  C   UNL     1      -0.742   1.585  -1.213  0.00  0.00    +0.239 C 
ATOM      7  O   UNL     1      -1.736   2.268  -1.088  0.00  0.00    -0.273 OA
ATOM      8  H   UNL     1       0.507   0.726  -2.543  0.00  0.00    +0.173 HD
BRANCH   6   9
ATOM      9  C   UNL     1      -0.013   1.086   0.008  0.00  0.00    +0.171 C 
BRANCH   9  10
ATOM     10  S   UNL     1      -0.862   1.671   1.500  0.00  0.00    -0.114 S 
BRANCH  10  11
ATOM     11  C   UNL     1       0.099   1.013   2.823  0.00  0.00    +0.028 A 
ATOM     12  C   UNL     1       1.218   0.236   2.551  0.00  0.00    +0.036 A 
ATOM     13  C   UNL     1       1.972  -0.274   3.591  0.00  0.00    +0.042 A 
ATOM     14  C   UNL     1       1.607  -0.022   4.902  0.00  0.00    +0.021 A 
ATOM     15  C   UNL     1       0.490   0.746   5.176  0.00  0.00    +0.022 A 
ATOM     16  C   UNL     1      -0.266   1.264   4.141  0.00  0.00    +0.054 A 
ATOM     17 CL   UNL     1      -1.667   2.229   4.487  0.00  0.00    -0.082 Cl
ATOM     18 CL   UNL     1       3.375  -1.239   3.252  0.00  0.00    -0.084 Cl
ENDBRANCH  10  11
ENDBRANCH   9  10
ENDBRANCH   6   9
ENDBRANCH   3   5
BRANCH   1  19
ATOM     19  C   UNL     1      -1.242   1.923  -6.029  0.00  0.00    +0.202 C 
BRANCH  19  22
ATOM     20  C   UNL     1      -1.033   1.776  -8.452  0.00  0.00    +0.246 C 
ATOM     21  O   UNL     1      -2.031   2.462  -8.551  0.00  0.00    -0.270 OA
ATOM     22  N   UNL     1      -0.556   1.450  -7.234  0.00  0.00    -0.303 N 
ATOM     23  H   UNL     1       0.241   0.903  -7.156  0.00  0.00    +0.150 HD
BRANCH  20  26
ATOM     24  C   UNL     1       1.447   0.070 -10.696  0.00  0.00    +0.021 A 
ATOM     25  C   UNL     1       0.806   0.512  -9.558  0.00  0.00    +0.016 A 
ATOM     26  C   UNL     1      -0.341   1.300  -9.668  0.00  0.00    +0.055 A 
ATOM     27  C   UNL     1      -0.836   1.631 -10.932  0.00  0.00    +0.054 A 
ATOM     28  C   UNL     1      -0.181   1.188 -12.064  0.00  0.00    +0.040 A 
ATOM     29  C   UNL     1       0.956   0.406 -11.947  0.00  0.00    +0.042 A 
ATOM     30 CL   UNL     1       1.769  -0.155 -13.374  0.00  0.00    -0.083 Cl
ATOM     31 CL   UNL     1      -2.266   2.605 -11.079  0.00  0.00    -0.083 Cl
ENDBRANCH  20  26
ENDBRANCH  19  22
ENDBRANCH   1  19
TORSDOF 7
