REMARK  Name = ZINC63138547
REMARK  3 active torsions:
REMARK  status: ('A' for Active; 'I' for Inactive)
REMARK    1  A    between atoms: C_1  and  C_2
REMARK    2  A    between atoms: C_5  and  C_8
REMARK    3  A    between atoms: N_27  and  C_30
REMARK                            x       y       z     vdW  Elec       q    Type
REMARK                         _______ _______ _______ _____ _____    ______ ____
ROOT
ATOM      1  C   UNL     1       0.059  -4.275  -0.021  0.00  0.00    +0.133 C 
ATOM      2  C   UNL     1      -1.361  -4.792   0.205  0.00  0.00    +0.131 C 
ATOM      3  C   UNL     1      -1.217  -6.274   0.543  0.00  0.00    -0.034 C 
ATOM      4  C   UNL     1      -1.871  -6.946  -0.395  0.00  0.00    -0.001 A 
ATOM      5  C   UNL     1      -2.105  -8.386  -0.585  0.00  0.00    +0.010 A 
ATOM      6  C   UNL     1      -2.831  -8.737  -1.679  0.00  0.00    +0.001 A 
ATOM      7  C   UNL     1      -3.340  -7.809  -2.593  0.00  0.00    +0.002 A 
ATOM      8  C   UNL     1      -3.175  -6.466  -2.496  0.00  0.00    +0.026 A 
ATOM      9  C   UNL     1      -2.430  -5.975  -1.384  0.00  0.00    +0.043 A 
ATOM     10  N   UNL     1      -2.134  -4.737  -1.043  0.00  0.00    -0.375 N 
ATOM     11  C   UNL     1      -0.421  -6.728   1.736  0.00  0.00    +0.065 C 
ATOM     12  C   UNL     1       0.838  -5.908   1.853  0.00  0.00    +0.167 C 
ATOM     13  N   UNL     1       0.978  -4.743   1.007  0.00  0.00    -0.279 N 
ATOM     14  C   UNL     1       2.142  -4.033   1.172  0.00  0.00    +0.234 C 
ATOM     15  O   UNL     1       2.348  -3.001   0.569  0.00  0.00    -0.274 OA
ATOM     16  C   UNL     1       3.157  -4.600   2.143  0.00  0.00    +0.204 C 
ATOM     17  N   UNL     1       3.263  -6.052   1.912  0.00  0.00    -0.288 N 
ATOM     18  C   UNL     1       2.093  -6.740   1.782  0.00  0.00    +0.237 C 
ATOM     19  O   UNL     1       2.062  -7.942   1.623  0.00  0.00    -0.274 OA
ATOM     20  H   UNL     1      -2.374  -3.930  -1.524  0.00  0.00    +0.160 HD
ENDROOT
BRANCH   1  25
ATOM     21  C   UNL     1      -0.018   1.503   0.010  0.00  0.00    +0.044 C 
ATOM     22  C   UNL     1       0.002  -0.004   0.002  0.00  0.00    -0.050 A 
ATOM     23  C   UNL     1       0.006  -0.689  -1.199  0.00  0.00    +0.004 A 
ATOM     24  C   UNL     1       0.025  -2.071  -1.206  0.00  0.00    +0.006 A 
ATOM     25  C   UNL     1       0.040  -2.768  -0.013  0.00  0.00    -0.025 A 
ATOM     26  C   UNL     1       0.037  -2.084   1.188  0.00  0.00    +0.006 A 
ATOM     27  C   UNL     1       0.023  -0.702   1.195  0.00  0.00    +0.004 A 
ENDBRANCH   1  25
BRANCH  17  28
ATOM     28  C   UNL     1       4.562  -6.724   1.825  0.00  0.00    +0.077 C 
ATOM     29  C   UNL     1       5.329  -6.524   3.134  0.00  0.00    +0.022 C 
ATOM     30  C   UNL     1       6.686  -7.225   3.043  0.00  0.00    +0.002 C 
ATOM     31  C   UNL     1       7.490  -6.631   1.885  0.00  0.00    +0.000 C 
ATOM     32  C   UNL     1       6.724  -6.832   0.576  0.00  0.00    +0.002 C 
ATOM     33  C   UNL     1       5.367  -6.130   0.667  0.00  0.00    +0.022 C 
ENDBRANCH  17  28
TORSDOF 2
