REMARK  Name = ZINC63308321
REMARK  7 active torsions:
REMARK  status: ('A' for Active; 'I' for Inactive)
REMARK    1  A    between atoms: C_1  and  C_2
REMARK    2  A    between atoms: C_4  and  C_34
REMARK    3  A    between atoms: N_10  and  C_11
REMARK    4  A    between atoms: N_13  and  C_14
REMARK    5  A    between atoms: N_21  and  C_22
REMARK    6  A    between atoms: C_22  and  C_23
REMARK    7  A    between atoms: C_23  and  C_24
REMARK                            x       y       z     vdW  Elec       q    Type
REMARK                         _______ _______ _______ _____ _____    ______ ____
ROOT
ATOM      1  C   UNL     1      -0.392  -7.251   5.754  0.00  0.00    +0.066 C 
ATOM      2  C   UNL     1      -0.371  -6.743   4.335  0.00  0.00    +0.044 A 
ATOM      3  C   UNL     1      -0.297  -7.630   3.273  0.00  0.00    +0.046 A 
ATOM      4  C   UNL     1      -0.280  -7.120   1.984  0.00  0.00    +0.044 A 
ATOM      5  N   UNL     1      -0.334  -5.811   1.808  0.00  0.00    -0.217 NA
ATOM      6  C   UNL     1      -0.403  -4.990   2.845  0.00  0.00    +0.231 A 
ATOM      7  N   UNL     1      -0.426  -5.445   4.089  0.00  0.00    -0.217 NA
ATOM      8  N   UNL     1      -0.458  -3.620   2.623  0.00  0.00    -0.297 N 
ATOM      9  C   UNL     1      -0.421  -2.754   3.681  0.00  0.00    +0.198 C 
ATOM     10  N   UNL     1      -0.228  -3.214   4.906  0.00  0.00    -0.129 NA
ATOM     11  N   UNL     1      -0.583  -1.416   3.473  0.00  0.00    -0.357 N 
ATOM     12  C   UNL     1      -0.201  -8.047   0.798  0.00  0.00    +0.066 C 
ATOM     13  H   UNL     1      -0.522  -3.278   1.718  0.00  0.00    +0.171 HD
ATOM     14  H   UNL     1      -0.474  -0.793   4.209  0.00  0.00    +0.162 HD
ENDROOT
BRANCH  10  15
ATOM     15  C   UNL     1      -0.079  -2.358   5.927  0.00  0.00    +0.330 C 
ATOM     16  O   UNL     1      -0.219  -1.162   5.745  0.00  0.00    -0.250 OA
ATOM     17  N   UNL     1       0.227  -2.822   7.155  0.00  0.00    -0.268 N 
ATOM     18  H   UNL     1       0.414  -3.765   7.285  0.00  0.00    +0.156 HD
BRANCH  17  19
ATOM     19  C   UNL     1       0.274  -1.943   8.243  0.00  0.00    +0.035 A 
ATOM     20  C   UNL     1      -0.606  -0.871   8.310  0.00  0.00    +0.025 A 
ATOM     21  C   UNL     1      -0.557  -0.005   9.385  0.00  0.00    +0.022 A 
ATOM     22  C   UNL     1       0.368  -0.205  10.395  0.00  0.00    +0.041 A 
ATOM     23  C   UNL     1       1.246  -1.272  10.331  0.00  0.00    +0.022 A 
ATOM     24  C   UNL     1       1.197  -2.145   9.261  0.00  0.00    +0.025 A 
ATOM     25 CL   UNL     1       0.427   0.886  11.744  0.00  0.00    -0.084 Cl
ENDBRANCH  17  19
ENDBRANCH  10  15
BRANCH  11  26
ATOM     26  C   UNL     1      -0.923  -0.918   2.137  0.00  0.00    +0.120 C 
BRANCH  26  27
ATOM     27  C   UNL     1      -0.926   0.612   2.148  0.00  0.00    +0.054 C 
BRANCH  27  28
ATOM     28  C   UNL     1      -1.394   1.123   0.810  0.00  0.00    -0.040 C 
ATOM     29  C   UNL     1      -2.651   1.493   0.476  0.00  0.00    +0.000 A 
ATOM     30  C   UNL     1      -3.910   1.528   1.228  0.00  0.00    +0.030 A 
ATOM     31  C   UNL     1      -5.034   1.957   0.608  0.00  0.00    +0.042 A 
ATOM     32  C   UNL     1      -5.025   2.367  -0.734  0.00  0.00    +0.022 A 
ATOM     33  C   UNL     1      -3.906   2.363  -1.489  0.00  0.00    +0.027 A 
ATOM     34  C   UNL     1      -2.668   1.932  -0.938  0.00  0.00    +0.043 A 
ATOM     35  N   UNL     1      -1.468   1.837  -1.457  0.00  0.00    -0.380 N 
ATOM     36  C   UNL     1      -0.552   1.332  -0.428  0.00  0.00    +0.144 C 
ATOM     37 CL   UNL     1      -6.526   2.000   1.495  0.00  0.00    -0.084 Cl
ATOM     38  H   UNL     1      -1.226   2.065  -2.368  0.00  0.00    +0.160 HD
ENDBRANCH  27  28
ENDBRANCH  26  27
ENDBRANCH  11  26
TORSDOF 5
