REMARK  Name = ZINC11173296
REMARK  5 active torsions:
REMARK  status: ('A' for Active; 'I' for Inactive)
REMARK    1  A    between atoms: C_3  and  N_19
REMARK    2  A    between atoms: C_4  and  N_16
REMARK    3  A    between atoms: C_6  and  S_7
REMARK    4  A    between atoms: S_7  and  N_10
REMARK    5  A    between atoms: C_22  and  C_25
REMARK                            x       y       z     vdW  Elec       q    Type
REMARK                         _______ _______ _______ _____ _____    ______ ____
ROOT
ATOM      1  C   UNL     1       2.531   5.318   0.315  0.00  0.00    +0.030 A 
ATOM      2  C   UNL     1       2.304   6.582   0.825  0.00  0.00    +0.027 A 
ATOM      3  C   UNL     1       1.125   7.250   0.520  0.00  0.00    +0.060 A 
ATOM      4  C   UNL     1       0.178   6.644  -0.298  0.00  0.00    +0.149 A 
ATOM      5  C   UNL     1       0.415   5.383  -0.808  0.00  0.00    +0.063 A 
ATOM      6  C   UNL     1       1.587   4.718  -0.498  0.00  0.00    +0.108 A 
ENDROOT
BRANCH   3   7
ATOM      7  N   UNL     1       0.891   8.527   1.033  0.00  0.00    -0.331 N 
ATOM      8  C   UNL     1       1.868   9.492   0.508  0.00  0.00    +0.086 C 
ATOM      9  C   UNL     1       1.531  10.891   1.031  0.00  0.00    -0.062 C 
ATOM     10  C   UNL     1       0.567   9.914   3.025  0.00  0.00    +0.033 C 
ATOM     11  C   UNL     1       0.905   8.515   2.503  0.00  0.00    +0.098 C 
ATOM     12  N   UNL     1       1.550  10.884   2.506  0.00  0.00    +0.389 N 
ATOM     13  H   UNL     1       1.315  11.822   2.852  0.00  0.00    -0.085 HD
ATOM     14  H   UNL     1       2.488  10.624   2.831  0.00  0.00    -0.085 HD
BRANCH  10  15
ATOM     15  C   UNL     1       0.620   9.914   4.531  0.00  0.00    +0.198 C 
ATOM     16  O   UNL     1       1.598  10.344   5.104  0.00  0.00    -0.278 OA
ATOM     17  N   UNL     1      -0.422   9.437   5.241  0.00  0.00    -0.331 N 
ATOM     18  H   UNL     1      -1.204   9.093   4.783  0.00  0.00    +0.145 HD
ATOM     19  H   UNL     1      -0.388   9.437   6.211  0.00  0.00    +0.145 HD
ENDBRANCH  10  15
ENDBRANCH   3   7
BRANCH   6  20
ATOM     20  S   UNL     1       1.882   3.107  -1.146  0.00  0.00    +0.061 S 
ATOM     21  O   UNL     1       3.292   2.925  -1.157  0.00  0.00    -0.153 OA
ATOM     22  O   UNL     1       1.090   2.990  -2.320  0.00  0.00    -0.153 OA
BRANCH  20  23
ATOM     23  N   UNL     1       1.274   2.021  -0.054  0.00  0.00    -0.177 NA
ATOM     24  C   UNL     1      -0.119   1.563  -0.151  0.00  0.00    +0.109 C 
ATOM     25  C   UNL     1      -0.134   0.031  -0.179  0.00  0.00    +0.017 C 
ATOM     26  C   UNL     1       0.621  -0.505   1.040  0.00  0.00    +0.003 C 
ATOM     27  C   UNL     1       2.076  -0.034   0.988  0.00  0.00    +0.017 C 
ATOM     28  C   UNL     1       2.116   1.496   1.029  0.00  0.00    +0.109 C 
ENDBRANCH  20  23
ENDBRANCH   6  20
BRANCH   4  29
ATOM     29  N   UNL     1      -1.079   7.353  -0.626  0.00  0.00    +0.058 N 
ATOM     30  O   UNL     1      -1.948   6.787  -1.264  0.00  0.00    -0.126 OA
ATOM     31  O   UNL     1      -1.245   8.501  -0.257  0.00  0.00    -0.126 OA
ENDBRANCH   4  29
TORSDOF 5
