REMARK  Name = ZINC40066421
REMARK  10 active torsions:
REMARK  status: ('A' for Active; 'I' for Inactive)
REMARK    1  A    between atoms: C_1  and  C_2
REMARK    2  A    between atoms: C_2  and  N_3
REMARK    3  A    between atoms: C_4  and  N_23
REMARK    4  A    between atoms: C_5  and  C_13
REMARK    5  A    between atoms: C_6  and  C_12
REMARK    6  A    between atoms: C_7  and  C_10
REMARK    7  A    between atoms: N_17  and  C_21
REMARK    8  A    between atoms: C_21  and  C_22
REMARK    9  A    between atoms: N_23  and  C_24
REMARK   10  A    between atoms: C_24  and  C_25
REMARK                            x       y       z     vdW  Elec       q    Type
REMARK                         _______ _______ _______ _____ _____    ______ ____
ROOT
ATOM      1  N   UNL     1      -1.275  -0.807   0.174  0.00  0.00    -0.296 N 
ATOM      2  C   UNL     1      -1.838  -0.964   1.399  0.00  0.00    +0.109 A 
ATOM      3  C   UNL     1      -3.198  -1.295   1.522  0.00  0.00    +0.019 A 
ATOM      4  C   UNL     1      -3.976  -1.463   0.364  0.00  0.00    -0.017 A 
ATOM      5  C   UNL     1      -3.374  -1.296  -0.880  0.00  0.00    +0.120 A 
ATOM      6  C   UNL     1      -1.999  -0.958  -0.950  0.00  0.00    +0.270 A 
ATOM      7  O   UNL     1      -1.468  -0.806  -2.036  0.00  0.00    -0.266 OA
ATOM      8  C   UNL     1      -5.437  -1.818   0.468  0.00  0.00    +0.046 C 
ENDROOT
BRANCH   3   9
ATOM      9  C   UNL     1      -3.800  -1.463   2.846  0.00  0.00    +0.032 C 
ATOM     10  C   UNL     1      -3.740  -0.451   3.754  0.00  0.00    +0.077 C 
ATOM     11  C   UNL     1      -4.150  -0.433   5.122  0.00  0.00    +0.258 C 
ATOM     12  O   UNL     1      -4.636  -1.420   5.645  0.00  0.00    -0.269 OA
ATOM     13  N   UNL     1      -3.986   0.688   5.804  0.00  0.00    -0.256 N 
ATOM     14  C   UNL     1      -3.447   1.783   5.224  0.00  0.00    +0.121 C 
ATOM     15  S   UNL     1      -3.145   3.322   5.910  0.00  0.00    -0.027 S 
ATOM     16  S   UNL     1      -3.122   1.215   3.562  0.00  0.00    -0.061 S 
BRANCH  13  17
ATOM     17  C   UNL     1      -4.394   0.743   7.210  0.00  0.00    +0.111 C 
ATOM     18  C   UNL     1      -3.221   0.326   8.099  0.00  0.00    +0.025 C 
ENDBRANCH  13  17
ENDBRANCH   3   9
BRANCH   1  20
ATOM     19  C   UNL     1       0.311   1.054   0.181  0.00  0.00    +0.027 C 
ATOM     20  C   UNL     1       0.146  -0.463   0.074  0.00  0.00    +0.123 C 
ENDBRANCH   1  20
BRANCH   5  21
ATOM     21  C   UNL     1      -4.139  -1.461  -2.079  0.00  0.00    +0.105 C 
ATOM     22  N   UNL     1      -4.746  -1.592  -3.031  0.00  0.00    -0.191 NA
ENDBRANCH   5  21
BRANCH   2  23
ATOM     23  N   UNL     1      -1.078  -0.799   2.520  0.00  0.00    -0.326 N 
ATOM     24  H   UNL     1      -0.952   0.086   2.895  0.00  0.00    +0.148 HD
BRANCH  23  25
ATOM     25  C   UNL     1      -0.452  -1.960   3.157  0.00  0.00    +0.138 C 
BRANCH  25  26
ATOM     26  C   UNL     1       0.246  -1.524   4.420  0.00  0.00    -0.030 A 
ATOM     27  C   UNL     1       1.567  -1.120   4.375  0.00  0.00    +0.005 A 
ATOM     28  C   UNL     1       2.207  -0.721   5.534  0.00  0.00    +0.000 A 
ATOM     29  C   UNL     1       1.526  -0.725   6.736  0.00  0.00    +0.000 A 
ATOM     30  C   UNL     1       0.205  -1.128   6.781  0.00  0.00    +0.000 A 
ATOM     31  C   UNL     1      -0.437  -1.524   5.622  0.00  0.00    +0.005 A 
ENDBRANCH  25  26
ENDBRANCH  23  25
ENDBRANCH   2  23
TORSDOF 7
