REMARK  Name = ZINC38532104
REMARK  6 active torsions:
REMARK  status: ('A' for Active; 'I' for Inactive)
REMARK    1  A    between atoms: C_3  and  N_9
REMARK    2  A    between atoms: C_10  and  C_12
REMARK    3  A    between atoms: C_12  and  S_13
REMARK    4  A    between atoms: S_13  and  C_14
REMARK    5  A    between atoms: C_16  and  N_20
REMARK    6  A    between atoms: N_23  and  C_26
REMARK                            x       y       z     vdW  Elec       q    Type
REMARK                         _______ _______ _______ _____ _____    ______ ____
ROOT
ATOM      1  C   UNL     1       6.104   6.754  -0.479  0.00  0.00    +0.102 A 
ATOM      2  C   UNL     1       6.231   8.137  -0.578  0.00  0.00    +0.078 A 
ATOM      3  C   UNL     1       7.509   8.675  -0.688  0.00  0.00    +0.126 A 
ATOM      4  N   UNL     1       8.558   7.854  -0.696  0.00  0.00    -0.221 NA
ATOM      5  C   UNL     1       8.396   6.550  -0.600  0.00  0.00    +0.224 A 
ATOM      6  N   UNL     1       7.204   6.002  -0.488  0.00  0.00    -0.229 NA
ENDROOT
BRANCH   3   7
ATOM      7  N   UNL     1       7.689  10.046  -0.790  0.00  0.00    -0.312 N 
ATOM      8  C   UNL     1       9.005  10.604  -1.131  0.00  0.00    +0.125 C 
ATOM      9  C   UNL     1       8.851  11.507  -2.362  0.00  0.00    +0.124 C 
ATOM     10  N   UNL     1       7.729  12.428  -2.131  0.00  0.00    -0.327 N 
ATOM     11  C   UNL     1       6.413  11.869  -1.790  0.00  0.00    +0.124 C 
ATOM     12  C   UNL     1       6.566  10.967  -0.565  0.00  0.00    +0.125 C 
BRANCH  10  13
ATOM     13  C   UNL     1       7.910  13.810  -2.234  0.00  0.00    +0.030 A 
ATOM     14  C   UNL     1       6.822  14.665  -2.116  0.00  0.00    +0.026 A 
ATOM     15  C   UNL     1       7.004  16.030  -2.217  0.00  0.00    +0.040 A 
ATOM     16  C   UNL     1       8.269  16.547  -2.436  0.00  0.00    +0.124 A 
ATOM     17  C   UNL     1       9.356  15.697  -2.554  0.00  0.00    +0.040 A 
ATOM     18  C   UNL     1       9.180  14.331  -2.448  0.00  0.00    +0.026 A 
ATOM     19  F   UNL     1       8.445  17.883  -2.535  0.00  0.00    -0.205 F 
ENDBRANCH  10  13
ENDBRANCH   3   7
BRANCH   1  20
ATOM     20  S   UNL     1       4.513   6.011  -0.336  0.00  0.00    -0.096 S 
BRANCH  20  21
ATOM     21  C   UNL     1       4.867   4.235  -0.231  0.00  0.00    +0.171 C 
BRANCH  21  23
ATOM     22  N   UNL     1       3.590   2.128  -0.009  0.00  0.00    -0.284 N 
ATOM     23  C   UNL     1       3.573   3.472  -0.103  0.00  0.00    +0.227 C 
ATOM     24  O   UNL     1       2.517   4.068  -0.085  0.00  0.00    -0.275 OA
ATOM     25  H   UNL     1       4.436   1.657   0.058  0.00  0.00    +0.155 HD
BRANCH  22  28
ATOM     26  C   UNL     1       0.069   1.244  -0.597  0.00  0.00    +0.003 A 
ATOM     27  C   UNL     1       1.254   1.953  -0.598  0.00  0.00    +0.025 A 
ATOM     28  C   UNL     1       2.388   1.411  -0.009  0.00  0.00    +0.053 A 
ATOM     29  C   UNL     1       2.327   0.154   0.582  0.00  0.00    +0.080 A 
ATOM     30  C   UNL     1       1.137  -0.551   0.580  0.00  0.00    +0.061 A 
ATOM     31  C   UNL     1       0.009  -0.006  -0.009  0.00  0.00    +0.021 A 
ATOM     32 CL   UNL     1       1.058  -2.121   1.317  0.00  0.00    -0.082 Cl
ATOM     33 CL   UNL     1       3.741  -0.529   1.320  0.00  0.00    -0.080 Cl
ENDBRANCH  22  28
ENDBRANCH  21  23
ENDBRANCH  20  21
ENDBRANCH   1  20
TORSDOF 6
