REMARK  Name = ZINC09461203
REMARK  7 active torsions:
REMARK  status: ('A' for Active; 'I' for Inactive)
REMARK    1  A    between atoms: C_1  and  C_2
REMARK    2  A    between atoms: C_2  and  C_3
REMARK    3  A    between atoms: C_2  and  C_4
REMARK    4  A    between atoms: C_2  and  C_5
REMARK    5  A    between atoms: C_5  and  C_7
REMARK    6  A    between atoms: C_9  and  C_31
REMARK    7  A    between atoms: C_31  and  C_33
REMARK                            x       y       z     vdW  Elec       q    Type
REMARK                         _______ _______ _______ _____ _____    ______ ____
ROOT
ATOM      1  C   UNL     1      -3.473   0.637  -0.568  0.00  0.00    +0.136 C 
ATOM      2  C   UNL     1      -2.999   0.105  -1.946  0.00  0.00    +0.111 C 
ATOM      3  C   UNL     1      -1.472   0.307  -1.853  0.00  0.00    +0.107 C 
ATOM      4  C   UNL     1      -0.737  -0.566  -2.808  0.00  0.00    -0.008 A 
ATOM      5  C   UNL     1      -0.681  -1.935  -2.955  0.00  0.00    +0.006 A 
ATOM      6  C   UNL     1       0.128  -2.430  -3.972  0.00  0.00    +0.000 A 
ATOM      7  C   UNL     1       0.847  -1.587  -4.794  0.00  0.00    +0.002 A 
ATOM      8  C   UNL     1       0.801  -0.209  -4.651  0.00  0.00    +0.023 A 
ATOM      9  C   UNL     1      -0.007   0.302  -3.634  0.00  0.00    +0.038 A 
ATOM     10  N   UNL     1      -0.235   1.619  -3.272  0.00  0.00    -0.284 N 
ATOM     11  C   UNL     1      -1.090   1.715  -2.229  0.00  0.00    +0.231 C 
ATOM     12  O   UNL     1      -1.475   2.736  -1.698  0.00  0.00    -0.274 OA
ATOM     13  C   UNL     1      -1.162   0.001  -0.391  0.00  0.00    +0.107 C 
ATOM     14  C   UNL     1      -2.398   0.433   1.752  0.00  0.00    +0.054 C 
ATOM     15  C   UNL     1      -1.274   0.905   2.329  0.00  0.00    +0.022 C 
ATOM     16  C   UNL     1      -0.139   1.311   1.476  0.00  0.00    -0.019 A 
ATOM     17  C   UNL     1      -0.061   0.877   0.147  0.00  0.00    -0.020 A 
ATOM     18  C   UNL     1       1.002   1.250  -0.642  0.00  0.00    +0.006 A 
ATOM     19  C   UNL     1       1.998   2.061  -0.123  0.00  0.00    +0.000 A 
ATOM     20  C   UNL     1       1.928   2.499   1.188  0.00  0.00    +0.001 A 
ATOM     21  C   UNL     1       0.868   2.130   1.990  0.00  0.00    +0.008 A 
ATOM     22  H   UNL     1       0.170   2.381  -3.714  0.00  0.00    +0.155 HD
ATOM     23  N   UNL     1      -2.433   0.001   0.294  0.00  0.00    -0.384 NA
ATOM     24  H   UNL     1      -2.700  -0.989   0.339  0.00  0.00    +0.127 HD
ENDROOT
BRANCH   1  25
ATOM     25  C   UNL     1      -4.731  -0.075  -0.141  0.00  0.00    +0.158 C 
ATOM     26  O   UNL     1      -4.781  -1.281  -0.169  0.00  0.00    -0.295 OA
BRANCH  25  28
ATOM     27  C   UNL     1      -7.030  -0.239   0.774  0.00  0.00    +0.018 C 
ATOM     28  C   UNL     1      -5.925   0.719   0.322  0.00  0.00    +0.022 C 
ATOM     29  C   UNL     1      -5.519   1.616   1.493  0.00  0.00    +0.018 C 
ATOM     30  C   UNL     1      -6.440   1.584  -0.830  0.00  0.00    +0.018 C 
ENDBRANCH  25  28
ENDBRANCH   1  25
BRANCH   2  31
ATOM     31  C   UNL     1      -3.584   0.921  -3.070  0.00  0.00    +0.204 C 
ATOM     32  O   UNL     1      -4.013   2.037  -2.850  0.00  0.00    -0.288 OA
BRANCH  31  33
ATOM     33  C   UNL     1      -3.634   0.390  -4.378  0.00  0.00    +0.170 A 
ATOM     34  C   UNL     1      -4.041   1.061  -5.514  0.00  0.00    +0.053 A 
ATOM     35  C   UNL     1      -3.927   0.153  -6.575  0.00  0.00    +0.042 A 
ATOM     36  C   UNL     1      -3.473  -1.012  -6.059  0.00  0.00    +0.196 A 
ATOM     37  O   UNL     1      -3.299  -0.867  -4.740  0.00  0.00    -0.460 OA
ENDBRANCH  31  33
ENDBRANCH   2  31
TORSDOF 4
