REMARK  Name = ZINC01153991
REMARK  10 active torsions:
REMARK  status: ('A' for Active; 'I' for Inactive)
REMARK    1  A    between atoms: C_1  and  O_2
REMARK    2  A    between atoms: O_2  and  C_3
REMARK    3  A    between atoms: C_5  and  C_13
REMARK    4  A    between atoms: C_6  and  O_11
REMARK    5  A    between atoms: C_8  and  O_9
REMARK    6  A    between atoms: O_9  and  C_10
REMARK    7  A    between atoms: O_11  and  C_12
REMARK    8  A    between atoms: C_16  and  C_27
REMARK    9  A    between atoms: C_22  and  N_26
REMARK   10  A    between atoms: C_23  and  C_24
REMARK                            x       y       z     vdW  Elec       q    Type
REMARK                         _______ _______ _______ _____ _____    ______ ____
ROOT
ATOM      1  C   UNL     1      -4.538   0.223   0.112  0.00  0.00    +0.105 C 
ATOM      2  C   UNL     1      -4.818   1.033   1.352  0.00  0.00    +0.054 A 
ATOM      3  C   UNL     1      -5.225   0.601   2.617  0.00  0.00    +0.102 A 
ATOM      4  N   UNL     1      -5.345   1.664   3.390  0.00  0.00    -0.171 NA
ATOM      5  N   UNL     1      -5.017   2.799   2.634  0.00  0.00    -0.246 N 
ATOM      6  H   UNL     1      -5.019   3.716   2.951  0.00  0.00    +0.192 HD
ATOM      7  C   UNL     1      -4.698   2.392   1.388  0.00  0.00    +0.223 A 
ATOM      8  O   UNL     1      -4.319   3.122   0.309  0.00  0.00    -0.423 OA
ATOM      9  C   UNL     1      -4.322   2.510  -0.892  0.00  0.00    +0.200 C 
ATOM     10  C   UNL     1      -4.424   1.171  -1.055  0.00  0.00    +0.098 C 
ENDROOT
BRANCH   3  11
ATOM     11  C   UNL     1      -5.478  -0.805   3.021  0.00  0.00    +0.021 A 
ATOM     12  C   UNL     1      -6.252  -1.636   2.213  0.00  0.00    +0.011 A 
ATOM     13  C   UNL     1      -6.484  -2.942   2.593  0.00  0.00    +0.001 A 
ATOM     14  C   UNL     1      -5.949  -3.428   3.773  0.00  0.00    +0.001 A 
ATOM     15  C   UNL     1      -5.181  -2.609   4.579  0.00  0.00    +0.020 A 
ATOM     16  C   UNL     1      -4.938  -1.301   4.206  0.00  0.00    +0.050 A 
ATOM     17 CL   UNL     1      -3.967  -0.275   5.216  0.00  0.00    -0.083 Cl
ENDBRANCH   3  11
BRANCH   1  20
ATOM     18  C   UNL     1      -0.904  -0.555   0.794  0.00  0.00    +0.162 A 
ATOM     19  C   UNL     1      -2.093   0.139   0.639  0.00  0.00    +0.057 A 
ATOM     20  C   UNL     1      -3.246  -0.534   0.281  0.00  0.00    +0.011 A 
ATOM     21  C   UNL     1      -3.216  -1.906   0.077  0.00  0.00    +0.128 A 
ATOM     22  C   UNL     1      -2.028  -2.604   0.232  0.00  0.00    +0.095 A 
ATOM     23  C   UNL     1      -0.870  -1.930   0.585  0.00  0.00    +0.165 A 
BRANCH  18  25
ATOM     24  C   UNL     1       0.121   1.519   1.346  0.00  0.00    +0.277 C 
ATOM     25  O   UNL     1       0.230   0.109   1.147  0.00  0.00    -0.491 OA
ENDBRANCH  18  25
BRANCH  23  26
ATOM     26  O   UNL     1       0.297  -2.612   0.731  0.00  0.00    -0.491 OA
ATOM     27  C   UNL     1       0.258  -4.022   0.500  0.00  0.00    +0.277 C 
ENDBRANCH  23  26
BRANCH  21  28
ATOM     28  O   UNL     1      -4.351  -2.566  -0.275  0.00  0.00    -0.495 OA
ATOM     29  C   UNL     1      -4.247  -3.978  -0.469  0.00  0.00    +0.277 C 
ENDBRANCH  21  28
ENDBRANCH   1  20
BRANCH   9  30
ATOM     30  N   UNL     1      -4.218   3.291  -2.016  0.00  0.00    -0.328 N 
ATOM     31  H   UNL     1      -4.145   4.255  -1.932  0.00  0.00    +0.145 HD
ATOM     32  H   UNL     1      -4.218   2.880  -2.895  0.00  0.00    +0.145 HD
ENDBRANCH   9  30
BRANCH  10  33
ATOM     33  C   UNL     1      -4.422   0.634  -2.383  0.00  0.00    +0.101 C 
ATOM     34  N   UNL     1      -4.420   0.208  -3.436  0.00  0.00    -0.191 NA
ENDBRANCH  10  33
TORSDOF 7
