REMARK  Name = ZINC31305996
REMARK  7 active torsions:
REMARK  status: ('A' for Active; 'I' for Inactive)
REMARK    1  A    between atoms: C_3  and  N_11
REMARK    2  A    between atoms: C_4  and  N_8
REMARK    3  A    between atoms: N_14  and  C_17
REMARK    4  A    between atoms: C_17  and  C_18
REMARK    5  A    between atoms: C_18  and  C_20
REMARK    6  A    between atoms: C_21  and  N_32
REMARK    7  A    between atoms: N_22  and  C_29
REMARK                            x       y       z     vdW  Elec       q    Type
REMARK                         _______ _______ _______ _____ _____    ______ ____
ROOT
ATOM      1  C   UNL     1       0.217   1.017  -2.356  0.00  0.00    +0.003 C 
ENDROOT
BRANCH   1   5
ATOM      2  N   UNL     1      -0.441   3.279   1.150  0.00  0.00    -0.332 N 
ATOM      3  C   UNL     1      -0.017   1.880   1.303  0.00  0.00    +0.086 C 
ATOM      4  C   UNL     1       0.627   1.400  -0.000  0.00  0.00    -0.059 C 
ATOM      5  N   UNL     1      -0.338   1.538  -1.100  0.00  0.00    +0.387 N 
ATOM      6  C   UNL     1      -0.762   2.937  -1.253  0.00  0.00    -0.059 C 
ATOM      7  C   UNL     1      -1.406   3.417   0.050  0.00  0.00    +0.086 C 
ATOM      8  H   UNL     1      -1.226   0.939  -0.850  0.00  0.00    -0.081 HD
BRANCH   2  11
ATOM      9  C   UNL     1      -2.598   3.660   4.102  0.00  0.00    +0.022 A 
ATOM     10  C   UNL     1      -2.078   3.168   2.921  0.00  0.00    +0.027 A 
ATOM     11  C   UNL     1      -0.969   3.775   2.345  0.00  0.00    +0.060 A 
ATOM     12  C   UNL     1      -0.383   4.873   2.962  0.00  0.00    +0.148 A 
ATOM     13  C   UNL     1      -0.910   5.364   4.141  0.00  0.00    +0.054 A 
ATOM     14  C   UNL     1      -2.015   4.757   4.712  0.00  0.00    +0.043 A 
ATOM     15 CL   UNL     1      -2.671   5.373   6.196  0.00  0.00    -0.083 Cl
BRANCH  12  16
ATOM     16  N   UNL     1       0.802   5.519   2.355  0.00  0.00    +0.058 N 
ATOM     17  O   UNL     1       1.372   6.421   2.943  0.00  0.00    -0.126 OA
ATOM     18  O   UNL     1       1.208   5.148   1.268  0.00  0.00    -0.126 OA
ENDBRANCH  12  16
ENDBRANCH   2  11
ENDBRANCH   1   5
BRANCH   1  19
ATOM     19  C   UNL     1       0.396  -0.475  -2.245  0.00  0.00    +0.155 C 
ATOM     20  O   UNL     1       0.010  -1.061  -1.253  0.00  0.00    -0.294 OA
BRANCH  19  21
ATOM     21  C   UNL     1       1.011  -1.192  -3.293  0.00  0.00    +0.118 A 
ATOM     22  C   UNL     1       1.122  -2.593  -3.247  0.00  0.00    +0.116 A 
ATOM     23  N   UNL     1       1.721  -3.243  -4.288  0.00  0.00    -0.278 N 
ATOM     24  C   UNL     1       2.212  -2.570  -5.341  0.00  0.00    +0.331 A 
ATOM     25  O   UNL     1       2.741  -3.195  -6.240  0.00  0.00    -0.246 OA
ATOM     26  N   UNL     1       2.140  -1.233  -5.438  0.00  0.00    -0.274 N 
ATOM     27  H   UNL     1       2.556  -0.722  -6.319  0.00  0.00    +0.173 HD
ATOM     28  C   UNL     1       1.563  -0.498  -4.465  0.00  0.00    +0.266 A 
ATOM     29  O   UNL     1       1.500   0.714  -4.555  0.00  0.00    -0.267 OA
BRANCH  23  30
ATOM     30  C   UNL     1       1.835  -4.703  -4.253  0.00  0.00    +0.094 C 
ATOM     31  C   UNL     1       2.352  -5.340  -2.961  0.00  0.00    +0.027 C 
ATOM     32  C   UNL     1       3.243  -5.300  -4.205  0.00  0.00    +0.027 C 
ENDBRANCH  23  30
BRANCH  22  33
ATOM     33  N   UNL     1       0.635  -3.290  -2.185  0.00  0.00    -0.344 N 
ATOM     34  H   UNL     1       0.726  -4.386  -2.159  0.00  0.00    +0.144 HD
ATOM     35  H   UNL     1       0.150  -2.758  -1.353  0.00  0.00    +0.144 HD
ENDBRANCH  22  33
ENDBRANCH  19  21
ENDBRANCH   1  19
TORSDOF 7
