REMARK  Name = ZINC35849141
REMARK  5 active torsions:
REMARK  status: ('A' for Active; 'I' for Inactive)
REMARK    1  A    between atoms: C_4  and  C_7
REMARK    2  A    between atoms: C_7  and  C_8
REMARK    3  A    between atoms: C_8  and  C_9
REMARK    4  A    between atoms: C_28  and  C_30
REMARK    5  A    between atoms: C_34  and  N_36
REMARK                            x       y       z     vdW  Elec       q    Type
REMARK                         _______ _______ _______ _____ _____    ______ ____
ROOT
ATOM      1  C   UNL     1       6.151  -1.750   1.350  0.00  0.00    +0.133 A 
ATOM      2  N   UNL     1       6.028  -3.066   1.340  0.00  0.00    -0.217 NA
ATOM      3  C   UNL     1       7.075  -3.871   1.266  0.00  0.00    +0.133 A 
ATOM      4  C   UNL     1       8.379  -3.306   1.195  0.00  0.00    +0.051 A 
ATOM      5  C   UNL     1       9.671  -3.989   1.110  0.00  0.00    -0.025 A 
ATOM      6  C   UNL     1      10.771  -3.211   1.054  0.00  0.00    -0.004 A 
ATOM      7  S   UNL     1      10.165  -1.546   1.109  0.00  0.00    -0.073 S 
ATOM      8  C   UNL     1       8.429  -1.897   1.210  0.00  0.00    +0.114 A 
ATOM      9  N   UNL     1       7.332  -1.169   1.281  0.00  0.00    -0.225 NA
ATOM     10  C   UNL     1      12.198  -3.662   0.964  0.00  0.00    +0.043 C 
ATOM     11  C   UNL     1      12.258  -5.154   1.321  0.00  0.00    +0.005 C 
ATOM     12  C   UNL     1      11.166  -5.890   0.538  0.00  0.00    +0.005 C 
ATOM     13  C   UNL     1       9.789  -5.510   1.085  0.00  0.00    +0.037 C 
ATOM     14  N   UNL     1       6.905  -5.244   1.258  0.00  0.00    -0.312 N 
ATOM     15  C   UNL     1       7.003  -6.016   2.504  0.00  0.00    +0.125 C 
ATOM     16  C   UNL     1       5.713  -6.828   2.680  0.00  0.00    +0.127 C 
ATOM     17  N   UNL     1       5.431  -7.539   1.425  0.00  0.00    -0.295 N 
ATOM     18  C   UNL     1       5.333  -6.766   0.179  0.00  0.00    +0.127 C 
ATOM     19  C   UNL     1       6.618  -5.954   0.004  0.00  0.00    +0.125 C 
ATOM     20  C   UNL     1       5.265  -8.877   1.417  0.00  0.00    +0.247 C 
ATOM     21  O   UNL     1       5.130  -9.466   0.363  0.00  0.00    -0.270 OA
ENDROOT
BRANCH  20  22
ATOM     22  C   UNL     1       5.247  -9.627   2.691  0.00  0.00    +0.039 A 
ATOM     23  C   UNL     1       4.568  -9.113   3.797  0.00  0.00    +0.013 A 
ATOM     24  C   UNL     1       4.555  -9.818   4.983  0.00  0.00    +0.003 A 
ATOM     25  C   UNL     1       5.213 -11.032   5.077  0.00  0.00    +0.033 A 
ATOM     26  C   UNL     1       5.887 -11.546   3.985  0.00  0.00    +0.127 A 
ATOM     27  C   UNL     1       5.903 -10.854   2.791  0.00  0.00    +0.045 A 
BRANCH  26  28
ATOM     28  N   UNL     1       6.589 -12.845   4.094  0.00  0.00    +0.056 N 
ATOM     29  O   UNL     1       6.571 -13.455   5.138  0.00  0.00    -0.126 OA
ATOM     30  O   UNL     1       7.179 -13.296   3.140  0.00  0.00    -0.126 OA
ENDBRANCH  26  28
ENDBRANCH  20  22
BRANCH   1  31
ATOM     31  C   UNL     1       4.912  -0.896   1.437  0.00  0.00    +0.081 C 
BRANCH  31  32
ATOM     32  C   UNL     1       4.402  -0.592   0.026  0.00  0.00    +0.043 C 
BRANCH  32  36
ATOM     33  C   UNL     1       0.893   1.831   0.270  0.00  0.00    +0.000 A 
ATOM     34  C   UNL     1       2.139   2.425   0.198  0.00  0.00    +0.000 A 
ATOM     35  C   UNL     1       3.275   1.640   0.119  0.00  0.00    +0.003 A 
ATOM     36  C   UNL     1       3.164   0.263   0.113  0.00  0.00    -0.047 A 
ATOM     37  C   UNL     1       1.918  -0.331   0.186  0.00  0.00    +0.003 A 
ATOM     38  C   UNL     1       0.782   0.453   0.263  0.00  0.00    +0.000 A 
ENDBRANCH  32  36
ENDBRANCH  31  32
ENDBRANCH   1  31
TORSDOF 5
