REMARK  Name = ZINC49920592
REMARK  9 active torsions:
REMARK  status: ('A' for Active; 'I' for Inactive)
REMARK    1  A    between atoms: C_1  and  C_2
REMARK    2  A    between atoms: C_2  and  C_3
REMARK    3  A    between atoms: C_2  and  C_4
REMARK    4  A    between atoms: C_2  and  C_5
REMARK    5  A    between atoms: C_8  and  C_11
REMARK    6  A    between atoms: C_11  and  C_13
REMARK    7  A    between atoms: C_13  and  C_14
REMARK    8  A    between atoms: C_14  and  C_16
REMARK    9  A    between atoms: C_14  and  C_18
REMARK                            x       y       z     vdW  Elec       q    Type
REMARK                         _______ _______ _______ _____ _____    ______ ____
ROOT
ATOM      1  C   UNL     1       2.693  -1.859  -4.727  0.00  0.00    +0.165 C 
ATOM      2  O   UNL     1       2.105  -2.557  -5.526  0.00  0.00    -0.292 OA
ENDROOT
BRANCH   1   6
ATOM      3  C   UNL     1       0.707  -0.490  -1.238  0.00  0.00    -0.042 A 
ATOM      4  C   UNL     1       0.032  -1.285  -2.147  0.00  0.00    +0.005 A 
ATOM      5  C   UNL     1       0.670  -1.734  -3.284  0.00  0.00    +0.011 A 
ATOM      6  C   UNL     1       2.004  -1.384  -3.517  0.00  0.00    +0.017 A 
ATOM      7  C   UNL     1       2.680  -0.580  -2.593  0.00  0.00    +0.011 A 
ATOM      8  C   UNL     1       2.026  -0.134  -1.464  0.00  0.00    +0.005 A 
BRANCH   3  10
ATOM      9  C   UNL     1      -0.019   1.526   0.010  0.00  0.00    +0.015 C 
ATOM     10  C   UNL     1       0.002  -0.004   0.002  0.00  0.00    -0.013 C 
ATOM     11  C   UNL     1       0.742  -0.511   1.242  0.00  0.00    +0.015 C 
ATOM     12  C   UNL     1      -1.433  -0.534   0.013  0.00  0.00    +0.015 C 
ENDBRANCH   3  10
ENDBRANCH   1   6
BRANCH   1  13
ATOM     13  C   UNL     1       4.130  -1.479  -4.974  0.00  0.00    +0.102 C 
BRANCH  13  14
ATOM     14  C   UNL     1       4.603  -2.099  -6.291  0.00  0.00    +0.129 C 
BRANCH  14  15
ATOM     15  C   UNL     1       6.072  -1.822  -6.478  0.00  0.00    -0.030 A 
ATOM     16  C   UNL     1       6.528  -0.518  -6.534  0.00  0.00    +0.008 A 
ATOM     17  C   UNL     1       7.875  -0.264  -6.705  0.00  0.00    +0.038 A 
ATOM     18  C   UNL     1       8.769  -1.315  -6.820  0.00  0.00    +0.123 A 
ATOM     19  C   UNL     1       8.312  -2.620  -6.764  0.00  0.00    +0.038 A 
ATOM     20  C   UNL     1       6.964  -2.873  -6.587  0.00  0.00    +0.008 A 
ATOM     21  F   UNL     1      10.087  -1.067  -6.987  0.00  0.00    -0.205 F 
ENDBRANCH  14  15
BRANCH  14  22
ATOM     22  C   UNL     1       3.847  -1.510  -7.409  0.00  0.00    +0.071 C 
ATOM     23  N   UNL     1       3.263  -1.057  -8.271  0.00  0.00    -0.196 NA
ENDBRANCH  14  22
ENDBRANCH  13  14
ENDBRANCH   1  13
TORSDOF 6
