REMARK  Name = ZINC08687753
REMARK  11 active torsions:
REMARK  status: ('A' for Active; 'I' for Inactive)
REMARK    1  A    between atoms: C_1  and  C_2
REMARK    2  A    between atoms: C_2  and  N_3
REMARK    3  A    between atoms: N_3  and  C_4
REMARK    4  A    between atoms: C_7  and  S_23
REMARK    5  A    between atoms: C_9  and  N_10
REMARK    6  A    between atoms: N_10  and  C_11
REMARK    7  A    between atoms: C_11  and  C_12
REMARK    8  A    between atoms: N_14  and  C_15
REMARK    9  A    between atoms: S_23  and  N_26
REMARK   10  A    between atoms: N_26  and  C_27
REMARK   11  A    between atoms: N_26  and  C_28
REMARK                            x       y       z     vdW  Elec       q    Type
REMARK                         _______ _______ _______ _____ _____    ______ ____
ROOT
ATOM      1  C   UNL     1      -1.610  -1.888  -0.036  0.00  0.00    +0.048 A 
ATOM      2  C   UNL     1      -0.545  -2.776  -0.057  0.00  0.00    +0.027 A 
ATOM      3  C   UNL     1      -0.781  -4.138  -0.068  0.00  0.00    +0.030 A 
ATOM      4  C   UNL     1      -2.077  -4.620  -0.057  0.00  0.00    +0.107 A 
ATOM      5  C   UNL     1      -3.144  -3.741  -0.036  0.00  0.00    +0.053 A 
ATOM      6  C   UNL     1      -2.917  -2.374  -0.021  0.00  0.00    +0.051 A 
ENDROOT
BRANCH   4   7
ATOM      7  S   UNL     1      -2.369  -6.357  -0.071  0.00  0.00    +0.060 S 
ATOM      8  O   UNL     1      -3.670  -6.546  -0.609  0.00  0.00    -0.153 OA
ATOM      9  O   UNL     1      -1.214  -6.958  -0.641  0.00  0.00    -0.153 OA
BRANCH   7  10
ATOM     10  N   UNL     1      -2.431  -6.856   1.507  0.00  0.00    -0.183 NA
ATOM     11  C   UNL     1      -3.710  -6.866   2.221  0.00  0.00    +0.131 C 
ATOM     12  C   UNL     1      -1.208  -7.286   2.188  0.00  0.00    +0.131 C 
ENDBRANCH   7  10
ENDBRANCH   4   7
BRANCH   1  13
ATOM     13  N   UNL     1      -1.373  -0.508  -0.025  0.00  0.00    -0.343 N 
ATOM     14  H   UNL     1      -2.119   0.112  -0.007  0.00  0.00    +0.146 HD
BRANCH  13  16
ATOM     15  C   UNL     1      -0.020   1.530  -0.025  0.00  0.00    +0.024 C 
ATOM     16  C   UNL     1       0.001  -0.000  -0.042  0.00  0.00    +0.098 C 
ENDBRANCH  13  16
ENDBRANCH   1  13
BRANCH   6  17
ATOM     17  N   UNL     1      -3.997  -1.482   0.006  0.00  0.00    -0.334 N 
ATOM     18  H   UNL     1      -3.836  -0.526   0.013  0.00  0.00    +0.147 HD
BRANCH  17  19
ATOM     19  C   UNL     1      -5.369  -1.995   0.022  0.00  0.00    +0.198 C 
BRANCH  19  20
ATOM     20  C   UNL     1      -6.336  -0.840   0.050  0.00  0.00    +0.234 C 
ATOM     21  O   UNL     1      -5.920   0.300   0.055  0.00  0.00    -0.274 OA
ATOM     22  N   UNL     1      -7.664  -1.072   0.068  0.00  0.00    -0.282 N 
ATOM     23  H   UNL     1      -7.998  -1.980  -0.001  0.00  0.00    +0.155 HD
BRANCH  22  24
ATOM     24  C   UNL     1      -8.561  -0.003   0.188  0.00  0.00    +0.069 A 
ATOM     25  C   UNL     1      -8.267   1.220  -0.400  0.00  0.00    +0.027 A 
ATOM     26  C   UNL     1      -9.153   2.273  -0.281  0.00  0.00    +0.017 A 
ATOM     27  C   UNL     1     -10.333   2.111   0.424  0.00  0.00    +0.021 A 
ATOM     28  C   UNL     1     -10.630   0.894   1.011  0.00  0.00    +0.055 A 
ATOM     29  C   UNL     1      -9.749  -0.166   0.891  0.00  0.00    +0.146 A 
ATOM     30  F   UNL     1     -10.041  -1.356   1.459  0.00  0.00    -0.204 F 
ATOM     31 BR   UNL     1     -11.542   3.556   0.585  0.00  0.00    -0.050 Br
ENDBRANCH  22  24
ENDBRANCH  19  20
ENDBRANCH  17  19
ENDBRANCH   6  17
TORSDOF 8
