REMARK  Name = ZINC04113133
REMARK  10 active torsions:
REMARK  status: ('A' for Active; 'I' for Inactive)
REMARK    1  A    between atoms: C_1  and  C_2
REMARK    2  A    between atoms: C_3  and  C_8
REMARK    3  A    between atoms: C_4  and  O_5
REMARK    4  A    between atoms: C_8  and  C_9
REMARK    5  A    between atoms: C_8  and  C_20
REMARK    6  A    between atoms: C_11  and  O_18
REMARK    7  A    between atoms: C_12  and  O_16
REMARK    8  A    between atoms: O_16  and  C_17
REMARK    9  A    between atoms: O_18  and  C_19
REMARK   10  A    between atoms: C_21  and  C_27
REMARK                            x       y       z     vdW  Elec       q    Type
REMARK                         _______ _______ _______ _____ _____    ______ ____
ROOT
ATOM      1  C   UNL     1      -1.248   2.212   0.020  0.00  0.00    +0.093 C 
ENDROOT
BRANCH   1   2
ATOM      2  C   UNL     1      -0.781   2.939   1.256  0.00  0.00    +0.052 A 
ATOM      3  C   UNL     1      -1.451   3.915   1.900  0.00  0.00    +0.041 A 
ATOM      4  N   UNL     1      -0.701   4.323   2.966  0.00  0.00    -0.278 N 
ATOM      5  N   UNL     1       0.480   3.570   2.983  0.00  0.00    -0.131 NA
ATOM      6  H   UNL     1      -1.073   5.119   3.628  0.00  0.00    +0.189 HD
ATOM      7  C   UNL     1       0.436   2.715   1.941  0.00  0.00    +0.292 A 
ATOM      8  O   UNL     1       1.289   1.899   1.643  0.00  0.00    -0.264 OA
ATOM      9  C   UNL     1      -2.797   4.468   1.507  0.00  0.00    +0.065 C 
ENDBRANCH   1   2
BRANCH   1  12
ATOM     10  C   UNL     1      -1.477  -0.892   0.124  0.00  0.00    +0.065 C 
ATOM     11  C   UNL     1      -0.288  -0.111  -0.374  0.00  0.00    +0.041 A 
ATOM     12  C   UNL     1      -0.189   1.233  -0.416  0.00  0.00    +0.048 A 
ATOM     13  C   UNL     1       1.082   1.563  -0.942  0.00  0.00    +0.236 A 
ATOM     14  N   UNL     1       1.727   0.408  -1.208  0.00  0.00    -0.136 NA
ATOM     15  N   UNL     1       0.874  -0.646  -0.854  0.00  0.00    -0.278 N 
ATOM     16  H   UNL     1       0.998  -1.738  -0.904  0.00  0.00    +0.189 HD
BRANCH  13  17
ATOM     17  O   UNL     1       1.516   2.687  -1.122  0.00  0.00    -0.491 OA
ATOM     18  H   UNL     1       2.524   2.827  -1.539  0.00  0.00    +0.294 HD
ENDBRANCH  13  17
ENDBRANCH   1  12
BRANCH   1  19
ATOM     19  C   UNL     1      -1.498   3.207  -1.083  0.00  0.00    -0.030 A 
ATOM     20  C   UNL     1      -2.635   3.103  -1.862  0.00  0.00    +0.054 A 
ATOM     21  C   UNL     1      -2.867   4.017  -2.877  0.00  0.00    +0.163 A 
ATOM     22  C   UNL     1      -1.952   5.040  -3.111  0.00  0.00    +0.175 A 
ATOM     23  C   UNL     1      -0.814   5.139  -2.327  0.00  0.00    +0.063 A 
ATOM     24  C   UNL     1      -0.591   4.226  -1.312  0.00  0.00    +0.023 A 
ATOM     25 BR   UNL     1       0.432   6.527  -2.641  0.00  0.00    -0.046 Br
BRANCH  22  26
ATOM     26  O   UNL     1      -2.175   5.939  -4.106  0.00  0.00    -0.490 OA
ATOM     27  C   UNL     1      -2.910   7.116  -3.765  0.00  0.00    +0.277 C 
ENDBRANCH  22  26
BRANCH  21  28
ATOM     28  O   UNL     1      -3.986   3.916  -3.643  0.00  0.00    -0.491 OA
ATOM     29  C   UNL     1      -4.881   2.841  -3.346  0.00  0.00    +0.277 C 
ENDBRANCH  21  28
ENDBRANCH   1  19
TORSDOF 6
