REMARK  Name = ZINC43669142
REMARK  4 active torsions:
REMARK  status: ('A' for Active; 'I' for Inactive)
REMARK    1  A    between atoms: C_1  and  C_2
REMARK    2  A    between atoms: C_4  and  N_16
REMARK    3  A    between atoms: N_5  and  C_7
REMARK    4  A    between atoms: C_7  and  C_8
REMARK                            x       y       z     vdW  Elec       q    Type
REMARK                         _______ _______ _______ _____ _____    ______ ____
ROOT
ATOM      1  C   UNL     1      -0.018   1.503   0.010  0.00  0.00    +0.068 C 
ATOM      2  C   UNL     1       0.002  -0.004   0.002  0.00  0.00    +0.075 A 
ATOM      3  C   UNL     1       0.008  -0.815  -1.136  0.00  0.00    +0.075 A 
ATOM      4  C   UNL     1       0.028  -2.113  -0.724  0.00  0.00    +0.128 A 
ATOM      5  N   UNL     1       0.034  -2.109   0.634  0.00  0.00    -0.245 N 
ATOM      6  N   UNL     1       0.023  -0.775   1.059  0.00  0.00    -0.173 NA
ATOM      7  I   UNL     1      -0.011  -0.152  -3.124  0.00  0.00    -0.038 I 
ENDROOT
BRANCH   4   8
ATOM      8  N   UNL     1       0.040  -3.238  -1.545  0.00  0.00    -0.342 N 
ATOM      9  H   UNL     1       0.034  -3.135  -2.509  0.00  0.00    +0.144 HD
ATOM     10  H   UNL     1       0.053  -4.125  -1.152  0.00  0.00    +0.144 HD
ENDBRANCH   4   8
BRANCH   5  11
ATOM     11  C   UNL     1       0.054  -3.291   1.500  0.00  0.00    +0.185 C 
BRANCH  11  12
ATOM     12  C   UNL     1       1.482  -3.676   1.790  0.00  0.00    +0.027 A 
ATOM     13  C   UNL     1       2.145  -4.558   0.954  0.00  0.00    +0.130 A 
ATOM     14  C   UNL     1       3.457  -4.912   1.221  0.00  0.00    +0.039 A 
ATOM     15  C   UNL     1       4.103  -4.385   2.324  0.00  0.00    +0.004 A 
ATOM     16  C   UNL     1       3.442  -3.505   3.159  0.00  0.00    +0.020 A 
ATOM     17  C   UNL     1       2.132  -3.146   2.889  0.00  0.00    +0.049 A 
ATOM     18 CL   UNL     1       1.304  -2.035   3.935  0.00  0.00    -0.083 Cl
ATOM     19  F   UNL     1       1.512  -5.073  -0.123  0.00  0.00    -0.205 F 
ENDBRANCH  11  12
ENDBRANCH   5  11
TORSDOF 3
