REMARK  Name = ZINC65034013
REMARK  6 active torsions:
REMARK  status: ('A' for Active; 'I' for Inactive)
REMARK    1  A    between atoms: C_6  and  C_7
REMARK    2  A    between atoms: C_9  and  O_29
REMARK    3  A    between atoms: C_12  and  N_17
REMARK    4  A    between atoms: C_18  and  C_20
REMARK    5  A    between atoms: O_29  and  C_30
REMARK    6  A    between atoms: C_30  and  C_31
REMARK                            x       y       z     vdW  Elec       q    Type
REMARK                         _______ _______ _______ _____ _____    ______ ____
ROOT
ATOM      1  C   UNL     1      -1.275  -0.765  -0.179  0.00  0.00    +0.075 A 
ATOM      2  C   UNL     1      -1.245  -2.152  -0.370  0.00  0.00    +0.074 A 
ATOM      3  C   UNL     1      -2.416  -2.864  -0.369  0.00  0.00    +0.132 A 
ATOM      4  C   UNL     1      -3.627  -2.159  -0.171  0.00  0.00    +0.044 A 
ATOM      5  C   UNL     1      -4.859  -2.825  -0.157  0.00  0.00    +0.037 A 
ATOM      6  C   UNL     1      -6.018  -2.104   0.040  0.00  0.00    +0.034 A 
ATOM      7  C   UNL     1      -5.971  -0.718   0.224  0.00  0.00    +0.025 A 
ATOM      8  C   UNL     1      -4.786  -0.051   0.214  0.00  0.00    +0.030 A 
ATOM      9  C   UNL     1      -3.584  -0.756   0.017  0.00  0.00    +0.075 A 
ATOM     10  N   UNL     1      -2.409  -0.117   0.010  0.00  0.00    -0.246 NA
ENDROOT
BRANCH   1  16
ATOM     11  C   UNL     1      -0.007   1.373   0.012  0.00  0.00    +0.011 A 
ATOM     12  C   UNL     1       1.181   2.074   0.008  0.00  0.00    +0.020 A 
ATOM     13  C   UNL     1       2.379   1.409  -0.189  0.00  0.00    +0.041 A 
ATOM     14  C   UNL     1       2.392   0.038  -0.384  0.00  0.00    +0.020 A 
ATOM     15  C   UNL     1       1.208  -0.672  -0.381  0.00  0.00    +0.011 A 
ATOM     16  C   UNL     1      -0.000  -0.007  -0.182  0.00  0.00    +0.001 A 
ATOM     17 CL   UNL     1       3.871   2.296  -0.194  0.00  0.00    -0.084 Cl
ENDBRANCH   1  16
BRANCH   6  18
ATOM     18  N   UNL     1      -7.252  -2.764   0.054  0.00  0.00    -0.281 N 
ATOM     19  C   UNL     1      -7.341  -4.015   0.546  0.00  0.00    +0.248 C 
ATOM     20  O   UNL     1      -6.372  -4.535   1.065  0.00  0.00    -0.270 OA
ATOM     21  H   UNL     1      -8.043  -2.321  -0.291  0.00  0.00    +0.155 HD
BRANCH  19  22
ATOM     22  C   UNL     1      -8.614  -4.755   0.455  0.00  0.00    +0.041 A 
ATOM     23  C   UNL     1      -9.727  -4.162  -0.147  0.00  0.00    +0.017 A 
ATOM     24  C   UNL     1     -10.915  -4.854  -0.231  0.00  0.00    +0.050 A 
ATOM     25  C   UNL     1     -11.012  -6.142   0.280  0.00  0.00    +0.166 A 
ATOM     26  C   UNL     1      -9.904  -6.740   0.882  0.00  0.00    +0.167 A 
ATOM     27  C   UNL     1      -8.709  -6.053   0.964  0.00  0.00    +0.062 A 
ATOM     28  O   UNL     1     -10.257  -7.992   1.296  0.00  0.00    -0.453 OA
ATOM     29  C   UNL     1     -11.697  -8.000   1.310  0.00  0.00    +0.466 C 
ATOM     30  O   UNL     1     -12.055  -7.020   0.318  0.00  0.00    -0.453 OA
ENDBRANCH  19  22
ENDBRANCH   6  18
BRANCH   3  31
ATOM     31  O   UNL     1      -2.414  -4.208  -0.552  0.00  0.00    -0.482 OA
BRANCH  31  32
ATOM     32  C   UNL     1      -1.145  -4.835  -0.745  0.00  0.00    +0.324 C 
BRANCH  32  33
ATOM     33  C   UNL     1      -1.340  -6.317  -0.932  0.00  0.00    +0.248 C 
ATOM     34  O   UNL     1      -2.456  -6.791  -0.902  0.00  0.00    -0.272 OA
ATOM     35  N   UNL     1      -0.274  -7.118  -1.131  0.00  0.00    -0.327 N 
ATOM     36  H   UNL     1       0.619  -6.739  -1.155  0.00  0.00    +0.145 HD
ATOM     37  H   UNL     1      -0.400  -8.072  -1.251  0.00  0.00    +0.145 HD
ENDBRANCH  32  33
ENDBRANCH  31  32
ENDBRANCH   3  31
TORSDOF 6
