REMARK  Name = ZINC36636571
REMARK  6 active torsions:
REMARK  status: ('A' for Active; 'I' for Inactive)
REMARK    1  A    between atoms: C_1  and  C_2
REMARK    2  A    between atoms: C_2  and  C_3
REMARK    3  A    between atoms: C_10  and  C_15
REMARK    4  A    between atoms: C_15  and  S_16
REMARK    5  A    between atoms: S_16  and  C_17
REMARK    6  A    between atoms: C_30  and  C_34
REMARK                            x       y       z     vdW  Elec       q    Type
REMARK                         _______ _______ _______ _____ _____    ______ ____
ROOT
ATOM      1  C   UNL     1       0.230  -3.324  -7.752  0.00  0.00    +0.169 C 
ATOM      2  N   UNL     1       0.623  -2.371  -8.569  0.00  0.00    -0.225 NA
ATOM      3  C   UNL     1       0.017  -2.168  -9.753  0.00  0.00    +0.079 A 
ATOM      4  C   UNL     1       0.428  -1.157 -10.629  0.00  0.00    +0.028 A 
ATOM      5  C   UNL     1      -0.219  -0.992 -11.820  0.00  0.00    +0.002 A 
ATOM      6  C   UNL     1      -1.283  -1.813 -12.176  0.00  0.00    +0.001 A 
ATOM      7  C   UNL     1      -1.708  -2.809 -11.341  0.00  0.00    +0.015 A 
ATOM      8  C   UNL     1      -1.065  -3.001 -10.120  0.00  0.00    +0.063 A 
ATOM      9  C   UNL     1      -1.473  -4.054  -9.179  0.00  0.00    +0.260 C 
ATOM     10  O   UNL     1      -2.399  -4.807  -9.435  0.00  0.00    -0.269 OA
ATOM     11  N   UNL     1      -0.782  -4.160  -8.026  0.00  0.00    -0.200 N 
ATOM     12  C   UNL     1      -1.120  -5.122  -7.127  0.00  0.00    +0.112 A 
ATOM     13  C   UNL     1      -1.618  -6.347  -7.570  0.00  0.00    +0.046 A 
ATOM     14  C   UNL     1      -1.955  -7.312  -6.641  0.00  0.00    -0.046 A 
ATOM     15  C   UNL     1      -1.790  -7.035  -5.282  0.00  0.00    +0.021 A 
ATOM     16  C   UNL     1      -1.302  -5.830  -4.890  0.00  0.00    +0.084 A 
ATOM     17  N   UNL     1      -0.968  -4.892  -5.796  0.00  0.00    -0.349 N 
ATOM     18  C   UNL     1      -2.496  -8.646  -7.089  0.00  0.00    +0.044 C 
ATOM     19  H   UNL     1      -0.618  -4.039  -5.494  0.00  0.00    +0.167 HD
ENDROOT
BRANCH   1  20
ATOM     20  S   UNL     1       1.082  -3.517  -6.222  0.00  0.00    -0.085 S 
BRANCH  20  21
ATOM     21  C   UNL     1       2.345  -2.215  -6.256  0.00  0.00    +0.113 C 
BRANCH  21  29
ATOM     22  C   UNL     1       1.609  -0.867  -1.303  0.00  0.00    -0.026 A 
ATOM     23  C   UNL     1       2.885  -1.388  -1.355  0.00  0.00    +0.052 A 
ATOM     24  C   UNL     1       3.397  -1.849  -2.560  0.00  0.00    +0.140 A 
ATOM     25  C   UNL     1       2.606  -1.780  -3.720  0.00  0.00    +0.023 A 
ATOM     26  C   UNL     1       1.314  -1.249  -3.653  0.00  0.00    +0.032 A 
ATOM     27  C   UNL     1       0.823  -0.802  -2.445  0.00  0.00    +0.045 A 
ATOM     28 CL   UNL     1      -0.782  -0.149  -2.354  0.00  0.00    -0.083 Cl
ATOM     29  C   UNL     1       3.156  -2.269  -4.988  0.00  0.00    -0.020 A 
ATOM     30  C   UNL     1       4.417  -2.773  -4.987  0.00  0.00    +0.097 A 
ATOM     31  C   UNL     1       5.155  -2.812  -3.785  0.00  0.00    +0.338 A 
ATOM     32  O   UNL     1       6.285  -3.266  -3.798  0.00  0.00    -0.245 OA
ATOM     33  O   UNL     1       4.645  -2.362  -2.628  0.00  0.00    -0.422 OA
BRANCH  22  35
ATOM     34  C   UNL     1       1.171   1.156   0.062  0.00  0.00    +0.009 C 
ATOM     35  C   UNL     1       1.060  -0.369   0.009  0.00  0.00    +0.033 C 
ENDBRANCH  22  35
ENDBRANCH  21  29
ENDBRANCH  20  21
ENDBRANCH   1  20
TORSDOF 4
