REMARK  Name = ZINC65404373
REMARK  5 active torsions:
REMARK  status: ('A' for Active; 'I' for Inactive)
REMARK    1  A    between atoms: C_4  and  C_7
REMARK    2  A    between atoms: C_9  and  C_28
REMARK    3  A    between atoms: N_11  and  C_14
REMARK    4  A    between atoms: C_14  and  C_15
REMARK    5  A    between atoms: C_20  and  C_21
REMARK                            x       y       z     vdW  Elec       q    Type
REMARK                         _______ _______ _______ _____ _____    ______ ____
ROOT
ATOM      1  C   UNL     1       3.711  -0.707  -0.038  0.00  0.00    +0.110 C 
ATOM      2  C   UNL     1       4.054  -1.218   1.375  0.00  0.00    +0.144 C 
ATOM      3  N   UNL     1       4.130  -2.694   1.258  0.00  0.00    -0.277 NA
ATOM      4  C   UNL     1       4.426  -2.937  -0.178  0.00  0.00    +0.169 C 
ATOM      5  N   UNL     1       3.610  -1.917  -0.888  0.00  0.00    -0.295 NA
ATOM      6  H   UNL     1       2.651  -2.218  -0.976  0.00  0.00    +0.124 HD
ENDROOT
BRANCH   2   7
ATOM      7  C   UNL     1       2.972  -0.827   2.347  0.00  0.00    +0.104 A 
ATOM      8  N   UNL     1       2.935   0.296   3.047  0.00  0.00    -0.349 N 
ATOM      9  C   UNL     1       1.817   0.287   3.802  0.00  0.00    +0.101 A 
ATOM     10  C   UNL     1       1.170  -0.869   3.548  0.00  0.00    +0.101 A 
ATOM     11  N   UNL     1       1.900  -1.546   2.638  0.00  0.00    -0.349 N 
ATOM     12  H   UNL     1       1.678  -2.413   2.262  0.00  0.00    +0.166 HD
ATOM     13  H   UNL     1       3.598   1.004   3.022  0.00  0.00    +0.166 HD
ENDBRANCH   2   7
BRANCH   1  17
ATOM     14  C   UNL     1      -0.017   1.378   0.010  0.00  0.00    +0.000 A 
ATOM     15  C   UNL     1       1.171   2.086   0.002  0.00  0.00    +0.000 A 
ATOM     16  C   UNL     1       2.377   1.411  -0.013  0.00  0.00    +0.005 A 
ATOM     17  C   UNL     1       2.396   0.029  -0.020  0.00  0.00    -0.029 A 
ATOM     18  C   UNL     1       1.208  -0.679  -0.012  0.00  0.00    +0.005 A 
ATOM     19  C   UNL     1       0.002  -0.004   0.002  0.00  0.00    +0.000 A 
ENDBRANCH   1  17
BRANCH   3  20
ATOM     20  C   UNL     1       5.194  -3.236   2.113  0.00  0.00    +0.101 C 
BRANCH  20  21
ATOM     21  C   UNL     1       5.083  -4.761   2.161  0.00  0.00    +0.097 C 
ATOM     22  C   UNL     1       3.837  -5.183   2.913  0.00  0.00    +0.118 C 
ATOM     23  N   UNL     1       4.246  -5.864   3.933  0.00  0.00    -0.161 NA
ATOM     24  N   UNL     1       5.633  -5.968   3.982  0.00  0.00    -0.153 NA
ATOM     25  C   UNL     1       6.211  -5.353   2.982  0.00  0.00    +0.080 C 
BRANCH  25  26
ATOM     26  C   UNL     1       7.653  -5.256   2.711  0.00  0.00    -0.001 A 
ATOM     27  C   UNL     1       8.111  -4.551   1.593  0.00  0.00    +0.012 A 
ATOM     28  C   UNL     1       9.464  -4.463   1.344  0.00  0.00    +0.039 A 
ATOM     29  C   UNL     1      10.370  -5.071   2.199  0.00  0.00    +0.123 A 
ATOM     30  C   UNL     1       9.923  -5.772   3.309  0.00  0.00    +0.039 A 
ATOM     31  C   UNL     1       8.573  -5.862   3.572  0.00  0.00    +0.012 A 
ATOM     32  F   UNL     1      11.695  -4.982   1.949  0.00  0.00    -0.205 F 
ENDBRANCH  25  26
ENDBRANCH  20  21
ENDBRANCH   3  20
TORSDOF 5
