REMARK  Name = ZINC04131822
REMARK  3 active torsions:
REMARK  status: ('A' for Active; 'I' for Inactive)
REMARK    1  A    between atoms: C_4  and  C_7
REMARK    2  A    between atoms: C_10  and  N_13
REMARK    3  A    between atoms: C_18  and  C_36
REMARK                            x       y       z     vdW  Elec       q    Type
REMARK                         _______ _______ _______ _____ _____    ______ ____
ROOT
ATOM      1  N   UNL     1       7.343  -2.717  -0.079  0.00  0.00    -0.210 N 
ATOM      2  C   UNL     1       8.559  -2.092  -0.093  0.00  0.00    +0.233 C 
ATOM      3  O   UNL     1       8.793  -0.935   0.181  0.00  0.00    -0.274 OA
ATOM      4  C   UNL     1       9.546  -3.142  -0.519  0.00  0.00    +0.125 C 
ATOM      5  C   UNL     1      10.896  -3.256   0.185  0.00  0.00    +0.163 C 
ATOM      6  O   UNL     1      11.097  -4.679   0.412  0.00  0.00    -0.348 OA
ATOM      7  C   UNL     1       9.867  -5.381   0.077  0.00  0.00    +0.206 C 
ATOM      8  C   UNL     1       8.838  -4.344   0.235  0.00  0.00    +0.138 C 
ATOM      9  C   UNL     1       7.453  -4.086  -0.086  0.00  0.00    +0.234 C 
ATOM     10  O   UNL     1       6.582  -4.898  -0.311  0.00  0.00    -0.274 OA
ATOM     11  C   UNL     1       9.980  -5.939  -1.317  0.00  0.00    +0.204 C 
ATOM     12  O   UNL     1      10.121  -5.302  -2.339  0.00  0.00    -0.288 OA
ATOM     13  C   UNL     1       9.886  -7.407  -1.205  0.00  0.00    +0.031 A 
ATOM     14  C   UNL     1       9.931  -8.400  -2.186  0.00  0.00    +0.012 A 
ATOM     15  C   UNL     1       9.817  -9.730  -1.831  0.00  0.00    +0.001 A 
ATOM     16  C   UNL     1       9.659 -10.090  -0.504  0.00  0.00    +0.001 A 
ATOM     17  C   UNL     1       9.613  -9.124   0.482  0.00  0.00    +0.012 A 
ATOM     18  C   UNL     1       9.725  -7.773   0.145  0.00  0.00    +0.031 A 
ATOM     19  C   UNL     1       9.706  -6.565   0.992  0.00  0.00    +0.204 C 
ATOM     20  O   UNL     1       9.583  -6.532   2.198  0.00  0.00    -0.288 OA
ENDROOT
BRANCH   5  21
ATOM     21  C   UNL     1      10.864  -2.518   1.498  0.00  0.00    -0.018 A 
ATOM     22  C   UNL     1      10.374  -3.142   2.630  0.00  0.00    +0.007 A 
ATOM     23  C   UNL     1      10.349  -2.467   3.836  0.00  0.00    +0.015 A 
ATOM     24  C   UNL     1      10.804  -1.163   3.907  0.00  0.00    +0.018 A 
ATOM     25  C   UNL     1      11.289  -0.537   2.773  0.00  0.00    +0.015 A 
ATOM     26  C   UNL     1      11.319  -1.214   1.569  0.00  0.00    +0.007 A 
ATOM     27 BR   UNL     1      10.764  -0.236   5.555  0.00  0.00    -0.050 Br
ENDBRANCH   5  21
BRANCH   1  31
ATOM     28  C   UNL     1       3.699  -0.689  -0.036  0.00  0.00    -0.018 A 
ATOM     29  C   UNL     1       3.722  -2.082  -0.038  0.00  0.00    +0.010 A 
ATOM     30  C   UNL     1       4.928  -2.750  -0.057  0.00  0.00    +0.024 A 
ATOM     31  C   UNL     1       6.119  -2.036  -0.064  0.00  0.00    +0.044 A 
ATOM     32  C   UNL     1       6.099  -0.647  -0.058  0.00  0.00    +0.024 A 
ATOM     33  C   UNL     1       4.895   0.026  -0.044  0.00  0.00    +0.010 A 
BRANCH  28  37
ATOM     34  C   UNL     1      -0.017   1.379   0.010  0.00  0.00    +0.000 A 
ATOM     35  C   UNL     1       1.169   2.092   0.002  0.00  0.00    +0.001 A 
ATOM     36  C   UNL     1       2.377   1.426  -0.013  0.00  0.00    +0.008 A 
ATOM     37  C   UNL     1       2.402   0.033  -0.021  0.00  0.00    -0.018 A 
ATOM     38  C   UNL     1       1.205  -0.680  -0.013  0.00  0.00    +0.008 A 
ATOM     39  C   UNL     1       0.002  -0.004   0.002  0.00  0.00    +0.001 A 
ENDBRANCH  28  37
ENDBRANCH   1  31
TORSDOF 3
