REMARK  Name = ZINC26531780
REMARK  5 active torsions:
REMARK  status: ('A' for Active; 'I' for Inactive)
REMARK    1  A    between atoms: C_1  and  C_2
REMARK    2  A    between atoms: C_5  and  C_34
REMARK    3  A    between atoms: N_8  and  C_10
REMARK    4  A    between atoms: C_11  and  C_21
REMARK    5  A    between atoms: N_25  and  C_29
REMARK                            x       y       z     vdW  Elec       q    Type
REMARK                         _______ _______ _______ _____ _____    ______ ____
ROOT
ATOM      1  C   UNL     1      -0.177   1.415   0.524  0.00  0.00    +0.136 A 
ATOM      2  C   UNL     1       1.055   2.011   0.165  0.00  0.00    +0.081 A 
ATOM      3  C   UNL     1       2.152   1.163  -0.121  0.00  0.00    +0.267 A 
ATOM      4  O   UNL     1       3.233   1.633  -0.435  0.00  0.00    -0.267 OA
ATOM      5  N   UNL     1       1.982  -0.174  -0.041  0.00  0.00    -0.268 N 
ATOM      6  C   UNL     1       3.033  -0.998  -0.314  0.00  0.00    +0.096 A 
ATOM      7  C   UNL     1       2.897  -2.341  -0.243  0.00  0.00    +0.018 A 
ATOM      8  C   UNL     1       1.665  -2.904   0.115  0.00  0.00    +0.005 A 
ATOM      9  C   UNL     1       0.607  -2.089   0.390  0.00  0.00    +0.047 A 
ATOM     10  C   UNL     1       0.768  -0.694   0.311  0.00  0.00    +0.142 A 
ATOM     11  N   UNL     1      -0.272   0.095   0.583  0.00  0.00    -0.214 NA
ENDROOT
BRANCH   1  17
ATOM     12  C   UNL     1      -1.976   4.828   3.453  0.00  0.00    +0.009 C 
ATOM     13  C   UNL     1      -2.210   3.987   2.196  0.00  0.00    +0.004 C 
ATOM     14  C   UNL     1      -3.504   3.184   2.353  0.00  0.00    +0.009 C 
ATOM     15  C   UNL     1      -3.700   2.301   1.117  0.00  0.00    +0.004 C 
ATOM     16  C   UNL     1      -2.484   1.386   0.951  0.00  0.00    +0.109 C 
ATOM     17  N   UNL     1      -1.272   2.203   0.804  0.00  0.00    -0.314 N 
ATOM     18  C   UNL     1      -1.037   3.024   1.999  0.00  0.00    +0.109 C 
ATOM     19  C   UNL     1      -4.959   1.449   1.292  0.00  0.00    +0.009 C 
ENDBRANCH   1  17
BRANCH   2  20
ATOM     20  C   UNL     1       1.188   3.417   0.094  0.00  0.00    +0.037 C 
ATOM     21  C   UNL     1       0.346   4.142  -0.699  0.00  0.00    +0.077 C 
ATOM     22  C   UNL     1       0.255   5.553  -0.871  0.00  0.00    +0.259 C 
ATOM     23  O   UNL     1       0.995   6.307  -0.264  0.00  0.00    -0.269 OA
ATOM     24  N   UNL     1      -0.654   6.021  -1.708  0.00  0.00    -0.252 N 
ATOM     25  C   UNL     1      -1.475   5.184  -2.382  0.00  0.00    +0.121 C 
ATOM     26  S   UNL     1      -2.711   5.564  -3.504  0.00  0.00    -0.027 S 
ATOM     27  S   UNL     1      -0.935   3.579  -1.811  0.00  0.00    -0.061 S 
BRANCH  24  28
ATOM     28  C   UNL     1      -0.776   7.467  -1.909  0.00  0.00    +0.083 C 
ATOM     29  C   UNL     1      -2.207   7.930  -1.564  0.00  0.00    +0.023 C 
ATOM     30  C   UNL     1      -2.511   9.031  -2.611  0.00  0.00    +0.002 C 
ATOM     31  C   UNL     1      -1.842   8.478  -3.894  0.00  0.00    +0.002 C 
ATOM     32  C   UNL     1      -0.544   7.816  -3.389  0.00  0.00    +0.023 C 
ENDBRANCH  24  28
ENDBRANCH   2  20
TORSDOF 3
