REMARK  Name = ZINC33033367
REMARK  11 active torsions:
REMARK  status: ('A' for Active; 'I' for Inactive)
REMARK    1  A    between atoms: C_1  and  C_2
REMARK    2  A    between atoms: C_5  and  S_9
REMARK    3  A    between atoms: C_7  and  C_8
REMARK    4  A    between atoms: S_9  and  N_12
REMARK    5  A    between atoms: N_12  and  C_13
REMARK    6  A    between atoms: C_15  and  C_25
REMARK    7  A    between atoms: C_18  and  N_19
REMARK    8  A    between atoms: N_27  and  C_28
REMARK    9  A    between atoms: N_27  and  C_29
REMARK   10  A    between atoms: C_29  and  C_30
REMARK   11  A    between atoms: N_32  and  C_33
REMARK                            x       y       z     vdW  Elec       q    Type
REMARK                         _______ _______ _______ _____ _____    ______ ____
ROOT
ATOM      1  C   UNL     1      -0.614   2.973   2.970  0.00  0.00    +0.070 A 
ATOM      2  C   UNL     1      -0.137   4.145   2.416  0.00  0.00    +0.039 A 
ATOM      3  C   UNL     1       0.457   5.111   3.235  0.00  0.00    +0.039 A 
ATOM      4  C   UNL     1       0.575   4.882   4.609  0.00  0.00    +0.015 A 
ATOM      5  C   UNL     1       0.103   3.709   5.156  0.00  0.00    +0.026 A 
ATOM      6  C   UNL     1      -0.492   2.750   4.345  0.00  0.00    +0.052 A 
ENDROOT
BRANCH   6   7
ATOM      7  N   UNL     1      -0.969   1.566   4.903  0.00  0.00    -0.332 N 
ATOM      8  C   UNL     1      -0.541   1.433   6.303  0.00  0.00    +0.086 C 
ATOM      9  C   UNL     1      -1.016   0.087   6.853  0.00  0.00    -0.063 C 
ATOM     10  N   UNL     1      -2.479   0.004   6.743  0.00  0.00    +0.381 N 
ATOM     11  C   UNL     1      -2.907   0.136   5.343  0.00  0.00    -0.063 C 
ATOM     12  C   UNL     1      -2.432   1.483   4.792  0.00  0.00    +0.086 C 
ATOM     13  H   UNL     1      -2.821  -0.968   7.127  0.00  0.00    -0.086 HD
ATOM     14  H   UNL     1      -2.938   0.812   7.331  0.00  0.00    -0.086 HD
ENDBRANCH   6   7
BRANCH   3  15
ATOM     15  C   UNL     1       0.962   6.367   2.649  0.00  0.00    +0.247 C 
ATOM     16  O   UNL     1       1.577   6.344   1.600  0.00  0.00    -0.270 OA
ATOM     17  N   UNL     1       0.744   7.539   3.277  0.00  0.00    -0.292 N 
ATOM     18  C   UNL     1       0.086   7.558   4.585  0.00  0.00    +0.133 C 
BRANCH  17  19
ATOM     19  C   UNL     1       1.164   8.795   2.650  0.00  0.00    +0.203 C 
BRANCH  19  20
ATOM     20  C   UNL     1       0.043   9.331   1.798  0.00  0.00    +0.230 C 
ATOM     21  O   UNL     1      -1.004   8.723   1.721  0.00  0.00    -0.274 OA
ATOM     22  N   UNL     1       0.204  10.485   1.121  0.00  0.00    -0.317 N 
ATOM     23  C   UNL     1      -0.886  11.006   0.292  0.00  0.00    +0.128 C 
ATOM     24  H   UNL     1       1.153  11.036   1.190  0.00  0.00    +0.148 HD
ENDBRANCH  19  20
ENDBRANCH  17  19
ENDBRANCH   3  15
BRANCH   1  25
ATOM     25  N   UNL     1      -1.214   2.005   2.155  0.00  0.00    -0.214 N 
ATOM     26  H   UNL     1      -2.309   1.976   2.050  0.00  0.00    +0.174 HD
BRANCH  25  27
ATOM     27  S   UNL     1      -0.276   0.905   1.347  0.00  0.00    +0.072 S 
ATOM     28  O   UNL     1       0.737   1.647   0.681  0.00  0.00    -0.150 OA
ATOM     29  O   UNL     1      -1.167   0.041   0.657  0.00  0.00    -0.150 OA
BRANCH  27  34
ATOM     30  C   UNL     1       2.517  -2.468   5.498  0.00  0.00    +0.044 C 
ATOM     31  C   UNL     1       1.819  -1.625   4.462  0.00  0.00    -0.047 A 
ATOM     32  C   UNL     1       2.415  -0.468   3.997  0.00  0.00    +0.005 A 
ATOM     33  C   UNL     1       1.774   0.306   3.048  0.00  0.00    +0.029 A 
ATOM     34  C   UNL     1       0.537  -0.077   2.563  0.00  0.00    +0.109 A 
ATOM     35  C   UNL     1      -0.058  -1.234   3.029  0.00  0.00    +0.032 A 
ATOM     36  C   UNL     1       0.583  -2.008   3.978  0.00  0.00    -0.046 A 
ATOM     37  C   UNL     1      -0.067  -3.270   4.485  0.00  0.00    +0.044 C 
ENDBRANCH  27  34
ENDBRANCH  25  27
ENDBRANCH   1  25
TORSDOF 7
