REMARK  Name = ZINC41586736
REMARK  4 active torsions:
REMARK  status: ('A' for Active; 'I' for Inactive)
REMARK    1  A    between atoms: C_1  and  C_2
REMARK    2  A    between atoms: C_5  and  C_8
REMARK    3  A    between atoms: C_16  and  C_19
REMARK    4  A    between atoms: N_22  and  C_24
REMARK                            x       y       z     vdW  Elec       q    Type
REMARK                         _______ _______ _______ _____ _____    ______ ____
ROOT
ATOM      1  C   UNL     1       0.059  -4.244  -0.021  0.00  0.00    +0.058 C 
ATOM      2  C   UNL     1       0.176  -4.927   1.144  0.00  0.00    +0.176 C 
ATOM      3  C   UNL     1       0.319  -6.385   1.288  0.00  0.00    +0.231 C 
ATOM      4  O   UNL     1       0.357  -7.221   0.403  0.00  0.00    -0.283 OA
ATOM      5  C   UNL     1       0.407  -6.606   2.743  0.00  0.00    +0.068 A 
ATOM      6  C   UNL     1       0.550  -7.749   3.528  0.00  0.00    +0.024 A 
ATOM      7  C   UNL     1       0.605  -7.642   4.891  0.00  0.00    +0.010 A 
ATOM      8  C   UNL     1       0.519  -6.393   5.497  0.00  0.00    +0.133 A 
ATOM      9  C   UNL     1       0.375  -5.247   4.726  0.00  0.00    +0.034 A 
ATOM     10  C   UNL     1       0.317  -5.339   3.342  0.00  0.00    +0.146 A 
ATOM     11  O   UNL     1       0.189  -4.391   2.388  0.00  0.00    -0.451 OA
ATOM     12  C   UNL     1       0.280  -3.900   5.394  0.00  0.00    +0.051 C 
ATOM     13  O   UNL     1       0.580  -6.272   6.849  0.00  0.00    -0.476 OA
ATOM     14  C   UNL     1       0.364  -7.457   7.619  0.00  0.00    +0.319 C 
ATOM     15  N   UNL     1       1.207  -8.533   7.073  0.00  0.00    -0.262 NA
ATOM     16  C   UNL     1       0.757  -8.892   5.721  0.00  0.00    +0.126 C 
ENDROOT
BRANCH   1  21
ATOM     17  C   UNL     1       0.003   1.503   0.009  0.00  0.00    +0.044 C 
ATOM     18  C   UNL     1       0.017  -0.004   0.001  0.00  0.00    -0.050 A 
ATOM     19  C   UNL     1       0.009  -0.699   1.198  0.00  0.00    +0.004 A 
ATOM     20  C   UNL     1       0.022  -2.077   1.200  0.00  0.00    +0.008 A 
ATOM     21  C   UNL     1       0.044  -2.774  -0.014  0.00  0.00    -0.021 A 
ATOM     22  C   UNL     1       0.053  -2.064  -1.220  0.00  0.00    +0.008 A 
ATOM     23  C   UNL     1       0.034  -0.686  -1.204  0.00  0.00    +0.004 A 
ENDBRANCH   1  21
BRANCH  15  24
ATOM     24  C   UNL     1       1.202  -9.706   7.958  0.00  0.00    +0.083 C 
ATOM     25  C   UNL     1       2.178 -10.762   7.411  0.00  0.00    +0.043 C 
ATOM     26  C   UNL     1       2.391 -11.840   8.512  0.00  0.00    +0.167 C 
ATOM     27  S   UNL     1       2.493 -10.775  10.012  0.00  0.00    -0.029 S 
ATOM     28  O   UNL     1       3.855 -10.456  10.261  0.00  0.00    -0.174 OA
ATOM     29  O   UNL     1       1.711 -11.357  11.046  0.00  0.00    -0.174 OA
ATOM     30  C   UNL     1       1.634  -9.277   9.381  0.00  0.00    +0.184 C 
ENDBRANCH  15  24
TORSDOF 2
