REMARK  Name = ZINC12907755
REMARK  2 active torsions:
REMARK  status: ('A' for Active; 'I' for Inactive)
REMARK    1  A    between atoms: C_12  and  C_14
REMARK    2  A    between atoms: C_14  and  N_15
REMARK                            x       y       z     vdW  Elec       q    Type
REMARK                         _______ _______ _______ _____ _____    ______ ____
ROOT
ATOM      1  C   UNL     1      -0.017   1.368   0.010  0.00  0.00    +0.079 A 
ATOM      2  C   UNL     1       1.159   2.109   0.002  0.00  0.00    +0.127 A 
ATOM      3  C   UNL     1       2.375   1.449  -0.013  0.00  0.00    +0.055 A 
ATOM      4  C   UNL     1       2.402   0.076  -0.021  0.00  0.00    +0.046 A 
ATOM      5  C   UNL     1       1.229  -0.711  -0.013  0.00  0.00    +0.116 A 
ATOM      6  C   UNL     1       0.002  -0.004   0.002  0.00  0.00    +0.152 A 
ATOM      7  F   UNL     1      -1.163  -0.688   0.009  0.00  0.00    -0.203 F 
ATOM      8  N   UNL     1       1.421  -2.049  -0.023  0.00  0.00    -0.222 NA
ATOM      9  C   UNL     1       2.616  -2.590  -0.037  0.00  0.00    +0.166 A 
ATOM     10  S   UNL     1       3.683  -1.156  -0.039  0.00  0.00    -0.052 S 
ATOM     11  N   UNL     1       2.963  -3.932  -0.048  0.00  0.00    -0.263 N 
ATOM     12  C   UNL     1       4.261  -4.292  -0.062  0.00  0.00    +0.237 C 
ATOM     13  O   UNL     1       5.127  -3.442  -0.066  0.00  0.00    -0.274 OA
ATOM     14  F   UNL     1       1.115   3.459   0.010  0.00  0.00    -0.205 F 
ATOM     15  H   UNL     1       2.271  -4.612  -0.044  0.00  0.00    +0.157 HD
ENDROOT
BRANCH  12  16
ATOM     16  C   UNL     1       4.639  -5.751  -0.073  0.00  0.00    +0.214 C 
BRANCH  16  17
ATOM     17  N   UNL     1       6.098  -5.878  -0.088  0.00  0.00    -0.215 N 
ATOM     18  C   UNL     1       6.843  -5.932  -1.211  0.00  0.00    +0.247 C 
ATOM     19  O   UNL     1       6.449  -5.887  -2.357  0.00  0.00    -0.273 OA
ATOM     20  C   UNL     1       8.274  -6.061  -0.741  0.00  0.00    +0.113 C 
ATOM     21  C   UNL     1       9.098  -4.869  -1.214  0.00  0.00    +0.035 C 
ATOM     22  C   UNL     1      10.535  -5.003  -0.702  0.00  0.00    +0.003 C 
ATOM     23  C   UNL     1      11.142  -6.305  -1.227  0.00  0.00    +0.000 C 
ATOM     24  C   UNL     1      10.319  -7.493  -0.725  0.00  0.00    +0.003 C 
ATOM     25  C   UNL     1       8.881  -7.368  -1.237  0.00  0.00    +0.035 C 
ATOM     26  N   UNL     1       8.169  -6.065   0.724  0.00  0.00    -0.285 N 
ATOM     27  C   UNL     1       6.858  -5.948   1.012  0.00  0.00    +0.310 C 
ATOM     28  O   UNL     1       6.415  -5.915   2.143  0.00  0.00    -0.252 OA
ATOM     29  H   UNL     1       8.899  -6.134   1.358  0.00  0.00    +0.151 HD
ENDBRANCH  16  17
ENDBRANCH  12  16
TORSDOF 2
