REMARK  Name = ZINC01437968
REMARK  5 active torsions:
REMARK  status: ('A' for Active; 'I' for Inactive)
REMARK    1  A    between atoms: C_4  and  C_7
REMARK    2  A    between atoms: C_12  and  C_20
REMARK    3  A    between atoms: C_14  and  C_18
REMARK    4  A    between atoms: C_15  and  N_17
REMARK    5  A    between atoms: C_23  and  N_25
REMARK                            x       y       z     vdW  Elec       q    Type
REMARK                         _______ _______ _______ _____ _____    ______ ____
ROOT
ATOM      1  C   UNL     1       5.095   2.133   3.340  0.00  0.00    +0.034 C 
ATOM      2  C   UNL     1       4.843   3.302   2.385  0.00  0.00    +0.083 C 
ATOM      3  C   UNL     1       4.131   2.804   1.149  0.00  0.00    +0.115 C 
ATOM      4  C   UNL     1       3.286   1.762   1.216  0.00  0.00    +0.046 C 
ATOM      5  C   UNL     1       2.565   1.272  -0.016  0.00  0.00    +0.108 C 
ATOM      6  C   UNL     1       3.260   1.773  -1.251  0.00  0.00    +0.099 C 
ATOM      7  C   UNL     1       4.116   2.821  -1.178  0.00  0.00    +0.198 C 
ATOM      8  O   UNL     1       4.364   3.441  -0.014  0.00  0.00    -0.445 OA
ATOM      9  C   UNL     1       3.048   1.088   2.433  0.00  0.00    +0.164 C 
ATOM     10  O   UNL     1       2.266   0.160   2.459  0.00  0.00    -0.292 OA
ATOM     11  C   UNL     1       3.746   1.502   3.700  0.00  0.00    +0.088 C 
ENDROOT
BRANCH   1  15
ATOM     12  C   UNL     1       7.005   3.562   6.883  0.00  0.00    +0.000 A 
ATOM     13  C   UNL     1       7.632   2.617   6.093  0.00  0.00    +0.000 A 
ATOM     14  C   UNL     1       7.014   2.155   4.947  0.00  0.00    +0.004 A 
ATOM     15  C   UNL     1       5.769   2.637   4.590  0.00  0.00    -0.043 A 
ATOM     16  C   UNL     1       5.144   3.586   5.377  0.00  0.00    +0.004 A 
ATOM     17  C   UNL     1       5.760   4.045   6.527  0.00  0.00    +0.000 A 
ENDBRANCH   1  15
BRANCH   5  18
ATOM     18  C   UNL     1       1.146   1.780   0.001  0.00  0.00    +0.005 A 
ATOM     19  C   UNL     1      -0.013   1.076   0.008  0.00  0.00    +0.014 A 
ATOM     20  C   UNL     1      -1.213   1.761   0.017  0.00  0.00    +0.041 A 
ATOM     21  C   UNL     1      -1.196   3.116   0.029  0.00  0.00    +0.164 A 
ATOM     22  S   UNL     1       0.555   3.464   0.015  0.00  0.00    -0.068 S 
BRANCH  21  23
ATOM     23  N   UNL     1      -2.334   4.063   0.045  0.00  0.00    +0.063 N 
ATOM     24  O   UNL     1      -3.477   3.641   0.054  0.00  0.00    -0.126 OA
ATOM     25  O   UNL     1      -2.128   5.263   0.050  0.00  0.00    -0.126 OA
ENDBRANCH  21  23
ENDBRANCH   5  18
BRANCH   7  26
ATOM     26  N   UNL     1       4.743   3.257  -2.318  0.00  0.00    -0.328 N 
ATOM     27  H   UNL     1       4.570   2.817  -3.165  0.00  0.00    +0.145 HD
ATOM     28  H   UNL     1       5.358   4.006  -2.278  0.00  0.00    +0.145 HD
ENDBRANCH   7  26
BRANCH   6  29
ATOM     29  C   UNL     1       3.014   1.141  -2.512  0.00  0.00    +0.101 C 
ATOM     30  N   UNL     1       2.820   0.639  -3.513  0.00  0.00    -0.191 NA
ENDBRANCH   6  29
TORSDOF 5
