REMARK  Name = ZINC13783274
REMARK  9 active torsions:
REMARK  status: ('A' for Active; 'I' for Inactive)
REMARK    1  A    between atoms: C_3  and  N_32
REMARK    2  A    between atoms: C_6  and  C_7
REMARK    3  A    between atoms: C_7  and  C_8
REMARK    4  A    between atoms: C_8  and  N_9
REMARK    5  A    between atoms: N_16  and  C1*_19
REMARK    6  A    between atoms: C2*_21  and  O2*_31
REMARK    7  A    between atoms: C3*_23  and  O3*_30
REMARK    8  A    between atoms: C4*_25  and  C5*_28
REMARK    9  A    between atoms: C5*_28  and  O5*_29
REMARK                            x       y       z     vdW  Elec       q    Type
REMARK                         _______ _______ _______ _____ _____    ______ ____
ROOT
ATOM      1  N   UNL     1      -3.840   3.505   4.661  0.00  0.00    -0.327 N 
ATOM      2  C   UNL     1      -2.823   4.123   3.955  0.00  0.00    +0.150 A 
ATOM      3  C   UNL     1      -1.741   3.380   3.454  0.00  0.00    +0.147 A 
ATOM      4  C   UNL     1      -0.735   4.064   2.750  0.00  0.00    +0.167 A 
ATOM      5  N   UNL     1      -0.848   5.376   2.576  0.00  0.00    -0.216 NA
ATOM      6  C   UNL     1      -1.880   6.032   3.063  0.00  0.00    +0.225 A 
ATOM      7  N   UNL     1      -2.846   5.434   3.736  0.00  0.00    -0.219 NA
ATOM      8  N   UNL     1       0.179   3.112   2.377  0.00  0.00    -0.286 N 
ATOM      9  C   UNL     1      -0.263   1.912   2.850  0.00  0.00    +0.203 A 
ATOM     10  N   UNL     1      -1.390   2.071   3.481  0.00  0.00    -0.231 NA
ATOM     11  H   UNL     1      -3.369   3.059   5.422  0.00  0.00    +0.148 HD
ENDROOT
BRANCH   8  12
ATOM     12  C1* UNL     1       1.410   3.343   1.616  0.00  0.00    +0.253 C 
ATOM     13  C2* UNL     1       1.132   3.285   0.092  0.00  0.00    +0.195 C 
ATOM     14  C3* UNL     1       1.138   1.761  -0.181  0.00  0.00    +0.178 C 
ATOM     15  C4* UNL     1       1.920   1.168   1.007  0.00  0.00    +0.177 C 
ATOM     16  O4* UNL     1       2.349   2.267   1.828  0.00  0.00    -0.346 OA
BRANCH  14  17
ATOM     17  O3* UNL     1      -0.197   1.252  -0.205  0.00  0.00    -0.386 OA
ATOM     18  H3* UNL     1      -0.250   0.292  -0.315  0.00  0.00    +0.210 HD
ENDBRANCH  14  17
BRANCH  13  19
ATOM     19  O2* UNL     1       2.170   3.939  -0.641  0.00  0.00    -0.385 OA
ATOM     20  H2* UNL     1       2.088   3.852  -1.601  0.00  0.00    +0.210 HD
ENDBRANCH  13  19
BRANCH  15  21
ATOM     21  C5* UNL     1       3.135   0.393   0.494  0.00  0.00    +0.190 C 
BRANCH  21  22
ATOM     22  O5* UNL     1       3.788  -0.250   1.591  0.00  0.00    -0.392 OA
ATOM     23  H5* UNL     1       4.569  -0.761   1.339  0.00  0.00    +0.210 HD
ENDBRANCH  21  22
ENDBRANCH  15  21
ENDBRANCH   8  12
BRANCH   1  24
ATOM     24  C   UNL     1      -4.960   4.297   5.176  0.00  0.00    +0.107 C 
BRANCH  24  25
ATOM     25  C   UNL     1      -5.938   3.378   5.912  0.00  0.00    +0.054 C 
BRANCH  25  31
ATOM     26  C   UNL     1      -7.021   4.743   7.709  0.00  0.00    +0.005 A 
ATOM     27  C   UNL     1      -8.072   5.495   8.196  0.00  0.00    +0.023 A 
ATOM     28  C   UNL     1      -9.205   5.688   7.415  0.00  0.00    +0.025 A 
ATOM     29  C   UNL     1      -9.274   5.129   6.145  0.00  0.00    +0.023 A 
ATOM     30  C   UNL     1      -8.216   4.383   5.663  0.00  0.00    +0.005 A 
ATOM     31  C   UNL     1      -7.090   4.193   6.442  0.00  0.00    -0.046 A 
BRANCH  28  32
ATOM     32  N   UNL     1     -10.273   6.442   7.907  0.00  0.00    -0.358 N 
ATOM     33  H   UNL     1     -11.064   6.576   7.361  0.00  0.00    +0.142 HD
ATOM     34  H   UNL     1     -10.224   6.832   8.793  0.00  0.00    +0.142 HD
ENDBRANCH  28  32
ENDBRANCH  25  31
ENDBRANCH  24  25
ENDBRANCH   1  24
TORSDOF 9
