REMARK  Name = ZINC10337080
REMARK  2 active torsions:
REMARK  status: ('A' for Active; 'I' for Inactive)
REMARK    1  A    between atoms: C_3  and  C_8
REMARK    2  A    between atoms: C_26  and  C_28
REMARK                            x       y       z     vdW  Elec       q    Type
REMARK                         _______ _______ _______ _____ _____    ______ ____
ROOT
ATOM      1  C   UNL     1       3.672   2.186  -0.021  0.00  0.00    +0.234 C 
ATOM      2  C   UNL     1       4.142   2.350  -1.437  0.00  0.00    +0.027 C 
ATOM      3  C   UNL     1       4.951   1.431  -2.003  0.00  0.00    +0.083 C 
ATOM      4  C   UNL     1       5.357   0.271  -1.171  0.00  0.00    +0.044 A 
ATOM      5  C   UNL     1       5.903  -0.873  -1.738  0.00  0.00    +0.033 A 
ATOM      6  C   UNL     1       6.266  -1.931  -0.925  0.00  0.00    +0.042 A 
ATOM      7  C   UNL     1       6.086  -1.850   0.446  0.00  0.00    +0.023 A 
ATOM      8  C   UNL     1       5.543  -0.714   1.017  0.00  0.00    +0.048 A 
ATOM      9  C   UNL     1       5.176   0.353   0.215  0.00  0.00    +0.131 A 
ATOM     10  O   UNL     1       4.649   1.480   0.747  0.00  0.00    -0.479 OA
ATOM     11 CL   UNL     1       6.950  -3.365  -1.625  0.00  0.00    -0.084 Cl
ATOM     12  N   UNL     1       5.381   1.558  -3.284  0.00  0.00    -0.213 NA
ATOM     13  C   UNL     1       5.071   2.557  -4.068  0.00  0.00    +0.232 C 
ATOM     14  N   UNL     1       5.393   2.867  -5.353  0.00  0.00    -0.231 N 
ATOM     15  N   UNL     1       4.836   3.977  -5.686  0.00  0.00    -0.086 NA
ATOM     16  N   UNL     1       4.142   4.465  -4.714  0.00  0.00    -0.165 N 
ATOM     17  N   UNL     1       4.255   3.586  -3.636  0.00  0.00    -0.193 N 
ATOM     18  C   UNL     1       3.728   3.545  -2.268  0.00  0.00    +0.162 C 
ATOM     19  H   UNL     1       3.635   5.291  -4.729  0.00  0.00    +0.195 HD
ATOM     20  H   UNL     1       5.958   2.332  -5.931  0.00  0.00    +0.193 HD
ENDROOT
BRANCH   1  23
ATOM     21  C   UNL     1      -0.017   1.377   0.010  0.00  0.00    +0.003 A 
ATOM     22  C   UNL     1       1.171   2.086   0.002  0.00  0.00    +0.008 A 
ATOM     23  C   UNL     1       2.378   1.413  -0.013  0.00  0.00    -0.000 A 
ATOM     24  C   UNL     1       2.399   0.030  -0.021  0.00  0.00    +0.046 A 
ATOM     25  C   UNL     1       1.211  -0.679  -0.013  0.00  0.00    +0.124 A 
ATOM     26  C   UNL     1       0.002  -0.004   0.002  0.00  0.00    +0.038 A 
ATOM     27  F   UNL     1       1.230  -2.030  -0.022  0.00  0.00    -0.205 F 
ENDBRANCH   1  23
BRANCH  18  28
ATOM     28  C   UNL     1       4.177   4.794  -1.553  0.00  0.00    -0.003 A 
ATOM     29  C   UNL     1       3.279   5.530  -0.796  0.00  0.00    +0.009 A 
ATOM     30  C   UNL     1       3.735   6.672  -0.156  0.00  0.00    +0.020 A 
ATOM     31  C   UNL     1       5.062   7.036  -0.293  0.00  0.00    +0.111 A 
ATOM     32  N   UNL     1       5.888   6.311  -1.022  0.00  0.00    -0.263 NA
ATOM     33  C   UNL     1       5.490   5.216  -1.640  0.00  0.00    +0.116 A 
ENDBRANCH  18  28
TORSDOF 2
