REMARK  Name = ZINC35867869
REMARK  5 active torsions:
REMARK  status: ('A' for Active; 'I' for Inactive)
REMARK    1  A    between atoms: C_1  and  C_2
REMARK    2  A    between atoms: C_11  and  N_21
REMARK    3  A    between atoms: C_13  and  C_15
REMARK    4  A    between atoms: N_24  and  S_27
REMARK    5  A    between atoms: S_27  and  C_30
REMARK                            x       y       z     vdW  Elec       q    Type
REMARK                         _______ _______ _______ _____ _____    ______ ____
ROOT
ATOM      1  C   UNL     1       0.025   1.512  -0.041  0.00  0.00    +0.008 C 
ATOM      2  C   UNL     1       0.035  -0.018  -0.038  0.00  0.00    -0.009 C 
ATOM      3  C   UNL     1      -1.403  -0.541  -0.012  0.00  0.00    +0.008 C 
ATOM      4  C   UNL     1      -1.411  -2.050  -0.258  0.00  0.00    +0.037 C 
ATOM      5  C   UNL     1      -0.454  -2.717   0.727  0.00  0.00    -0.025 A 
ATOM      6  C   UNL     1       0.499  -1.992   1.356  0.00  0.00    -0.004 A 
ATOM      7  S   UNL     1       1.363  -3.151   2.387  0.00  0.00    -0.073 S 
ATOM      8  C   UNL     1       0.449  -4.602   1.977  0.00  0.00    +0.114 A 
ATOM      9  C   UNL     1      -0.509  -4.135   1.041  0.00  0.00    +0.051 A 
ATOM     10  C   UNL     1      -1.416  -5.098   0.513  0.00  0.00    +0.133 A 
ATOM     11  N   UNL     1      -1.264  -6.343   0.960  0.00  0.00    -0.216 NA
ATOM     12  C   UNL     1      -0.347  -6.706   1.834  0.00  0.00    +0.135 A 
ATOM     13  N   UNL     1       0.528  -5.859   2.364  0.00  0.00    -0.224 NA
ATOM     14  C   UNL     1       0.770  -0.526   1.210  0.00  0.00    +0.046 C 
ENDROOT
BRANCH  12  15
ATOM     15  C   UNL     1      -0.288  -8.152   2.253  0.00  0.00    +0.057 C 
ATOM     16  C   UNL     1      -0.509  -8.255   3.763  0.00  0.00    +0.011 C 
ATOM     17  C   UNL     1      -0.449  -9.724   4.188  0.00  0.00    +0.001 C 
ATOM     18  C   UNL     1       0.921 -10.303   3.832  0.00  0.00    +0.000 C 
ATOM     19  C   UNL     1       1.142 -10.200   2.322  0.00  0.00    +0.001 C 
ATOM     20  C   UNL     1       1.082  -8.731   1.897  0.00  0.00    +0.011 C 
ENDBRANCH  12  15
BRANCH  10  21
ATOM     21  N   UNL     1      -2.393  -4.761  -0.406  0.00  0.00    -0.312 N 
ATOM     22  C   UNL     1      -2.084  -4.707  -1.841  0.00  0.00    +0.123 C 
ATOM     23  C   UNL     1      -3.060  -5.624  -2.588  0.00  0.00    +0.128 C 
ATOM     24  N   UNL     1      -4.427  -5.314  -2.146  0.00  0.00    -0.174 NA
ATOM     25  C   UNL     1      -4.737  -5.368  -0.711  0.00  0.00    +0.128 C 
ATOM     26  C   UNL     1      -3.762  -4.456   0.036  0.00  0.00    +0.123 C 
BRANCH  24  27
ATOM     27  S   UNL     1      -5.597  -4.910  -3.246  0.00  0.00    +0.061 S 
ATOM     28  O   UNL     1      -6.573  -4.154  -2.542  0.00  0.00    -0.153 OA
ATOM     29  O   UNL     1      -4.922  -4.406  -4.390  0.00  0.00    -0.153 OA
BRANCH  27  30
ATOM     30  C   UNL     1      -6.383  -6.407  -3.744  0.00  0.00    +0.105 A 
ATOM     31  C   UNL     1      -5.894  -7.118  -4.824  0.00  0.00    +0.028 A 
ATOM     32  C   UNL     1      -6.510  -8.292  -5.215  0.00  0.00    +0.002 A 
ATOM     33  C   UNL     1      -7.615  -8.755  -4.525  0.00  0.00    +0.000 A 
ATOM     34  C   UNL     1      -8.103  -8.045  -3.444  0.00  0.00    +0.002 A 
ATOM     35  C   UNL     1      -7.484  -6.873  -3.051  0.00  0.00    +0.028 A 
ENDBRANCH  27  30
ENDBRANCH  24  27
ENDBRANCH  10  21
TORSDOF 4
