REMARK  Name = ZINC19645427
REMARK  8 active torsions:
REMARK  status: ('A' for Active; 'I' for Inactive)
REMARK    1  A    between atoms: C_1  and  C_2
REMARK    2  A    between atoms: C_2  and  C_3
REMARK    3  A    between atoms: C_4  and  C_32
REMARK    4  A    between atoms: C_6  and  N_18
REMARK    5  A    between atoms: C_7  and  C_8
REMARK    6  A    between atoms: N_10  and  C_11
REMARK    7  A    between atoms: C_19  and  C_21
REMARK    8  A    between atoms: C_27  and  C_29
REMARK                            x       y       z     vdW  Elec       q    Type
REMARK                         _______ _______ _______ _____ _____    ______ ____
ROOT
ATOM      1  C   UNL     1      -1.145  -2.998  -0.959  0.00  0.00    -0.024 A 
ATOM      2  C   UNL     1      -1.131  -4.329  -0.760  0.00  0.00    -0.008 A 
ATOM      3  S   UNL     1      -1.045  -4.477   1.012  0.00  0.00    -0.078 S 
ATOM      4  C   UNL     1      -1.025  -2.800   1.442  0.00  0.00    +0.084 A 
ATOM      5  C   UNL     1      -1.092  -2.156   0.212  0.00  0.00    +0.069 A 
ATOM      6  C   UNL     1      -1.176  -5.429  -1.790  0.00  0.00    +0.052 C 
ENDROOT
BRANCH   5   7
ATOM      7  C   UNL     1      -1.102  -0.694   0.108  0.00  0.00    +0.251 C 
ATOM      8  O   UNL     1      -2.159  -0.090   0.116  0.00  0.00    -0.270 OA
ATOM      9  N   UNL     1       0.059  -0.018   0.005  0.00  0.00    -0.281 N 
ATOM     10  H   UNL     1       1.010  -0.566  -0.073  0.00  0.00    +0.155 HD
BRANCH   9  11
ATOM     11  C   UNL     1       0.056   1.381  -0.003  0.00  0.00    +0.034 A 
ATOM     12  C   UNL     1      -0.981   2.071  -0.617  0.00  0.00    +0.025 A 
ATOM     13  C   UNL     1      -0.984   3.452  -0.619  0.00  0.00    +0.022 A 
ATOM     14  C   UNL     1       0.050   4.149  -0.019  0.00  0.00    +0.041 A 
ATOM     15  C   UNL     1       1.087   3.464   0.589  0.00  0.00    +0.022 A 
ATOM     16  C   UNL     1       1.093   2.083   0.599  0.00  0.00    +0.025 A 
ATOM     17 CL   UNL     1       0.047   5.885  -0.030  0.00  0.00    -0.084 Cl
ENDBRANCH   9  11
ENDBRANCH   5   7
BRANCH   4  18
ATOM     18  N   UNL     1      -0.961  -2.235   2.707  0.00  0.00    -0.279 N 
ATOM     19  C   UNL     1      -0.901  -3.027   3.796  0.00  0.00    +0.222 C 
ATOM     20  O   UNL     1      -0.904  -4.234   3.669  0.00  0.00    -0.275 OA
ATOM     21  H   UNL     1      -0.958  -1.141   2.822  0.00  0.00    +0.155 HD
BRANCH  19  22
ATOM     22  C   UNL     1      -0.831  -2.414   5.171  0.00  0.00    +0.093 C 
ATOM     23  C   UNL     1       0.063  -3.270   6.071  0.00  0.00    +0.040 C 
ATOM     24  C   UNL     1      -0.615  -4.572   6.385  0.00  0.00    -0.030 C 
ATOM     25  C   UNL     1      -1.882  -4.785   6.229  0.00  0.00    -0.030 C 
ATOM     26  C   UNL     1      -2.849  -3.765   5.702  0.00  0.00    +0.042 C 
ATOM     27  C   UNL     1      -2.235  -2.365   5.786  0.00  0.00    +0.118 C 
BRANCH  27  28
ATOM     28  C   UNL     1      -3.091  -1.391   5.019  0.00  0.00    +0.360 C 
ATOM     29  O   UNL     1      -2.629  -0.793   4.076  0.00  0.00    -0.246 OA
ATOM     30  O   UNL     1      -4.366  -1.186   5.384  0.00  0.00    -0.246 OA
ENDBRANCH  27  28
ENDBRANCH  19  22
ENDBRANCH   4  18
BRANCH   1  32
ATOM     31  C   UNL     1       0.203  -2.208  -2.885  0.00  0.00    +0.009 C 
ATOM     32  C   UNL     1      -1.214  -2.412  -2.346  0.00  0.00    +0.033 C 
ENDBRANCH   1  32
TORSDOF 6
