REMARK  Name = ZINC38847424
REMARK  11 active torsions:
REMARK  status: ('A' for Active; 'I' for Inactive)
REMARK    1  A    between atoms: C_1  and  C_2
REMARK    2  A    between atoms: C_5  and  S_8
REMARK    3  A    between atoms: S_8  and  N_11
REMARK    4  A    between atoms: C_14  and  C_17
REMARK    5  A    between atoms: N_19  and  C_20
REMARK    6  A    between atoms: C_20  and  C_21
REMARK    7  A    between atoms: C_21  and  N_22
REMARK    8  A    between atoms: N_22  and  C_23
REMARK    9  A    between atoms: N_22  and  C_24
REMARK   10  A    between atoms: C_28  and  C_35
REMARK   11  A    between atoms: C_29  and  C_34
REMARK                            x       y       z     vdW  Elec       q    Type
REMARK                         _______ _______ _______ _____ _____    ______ ____
ROOT
ATOM      1  C   UNL     1       4.480  -7.704  -0.769  0.00  0.00    +0.224 C 
ATOM      2  O   UNL     1       4.027  -6.588  -0.909  0.00  0.00    -0.275 OA
ATOM      3  N   UNL     1       4.980  -8.084   0.423  0.00  0.00    -0.252 N 
ATOM      4  C   UNL     1       5.596  -9.318   0.554  0.00  0.00    +0.168 A 
ATOM      5  N   UNL     1       5.698 -10.286  -0.327  0.00  0.00    -0.224 NA
ATOM      6  C   UNL     1       6.334 -11.447  -0.060  0.00  0.00    +0.083 A 
ATOM      7  C   UNL     1       6.513 -12.560  -0.913  0.00  0.00    -0.021 A 
ATOM      8  C   UNL     1       7.189 -13.671  -0.482  0.00  0.00    -0.045 A 
ATOM      9  C   UNL     1       7.720 -13.745   0.798  0.00  0.00    +0.005 A 
ATOM     10  C   UNL     1       7.564 -12.675   1.659  0.00  0.00    +0.017 A 
ATOM     11  C   UNL     1       6.888 -11.558   1.235  0.00  0.00    +0.041 A 
ATOM     12  S   UNL     1       6.463  -9.994   1.964  0.00  0.00    -0.052 S 
ATOM     13  C   UNL     1       7.359 -14.839  -1.419  0.00  0.00    +0.044 C 
ATOM     14  C   UNL     1       5.953 -12.525  -2.312  0.00  0.00    +0.046 C 
ENDROOT
BRANCH   1  18
ATOM     15  N   UNL     1       4.699  -9.340  -4.668  0.00  0.00    -0.177 NA
ATOM     16  C   UNL     1       3.357  -9.285  -4.071  0.00  0.00    +0.110 C 
ATOM     17  C   UNL     1       3.374  -8.285  -2.912  0.00  0.00    +0.030 C 
ATOM     18  C   UNL     1       4.483  -8.666  -1.929  0.00  0.00    +0.078 C 
ATOM     19  C   UNL     1       5.838  -8.606  -2.638  0.00  0.00    +0.030 C 
ATOM     20  C   UNL     1       5.849  -9.616  -3.796  0.00  0.00    +0.110 C 
BRANCH  15  21
ATOM     21  S   UNL     1       4.910  -9.101  -6.293  0.00  0.00    +0.061 S 
ATOM     22  O   UNL     1       6.253  -8.669  -6.468  0.00  0.00    -0.153 OA
ATOM     23  O   UNL     1       3.799  -8.337  -6.739  0.00  0.00    -0.153 OA
BRANCH  21  28
ATOM     24  C   UNL     1       4.476 -14.495  -8.962  0.00  0.00    +0.044 C 
ATOM     25  C   UNL     1       4.584 -13.148  -8.295  0.00  0.00    -0.050 A 
ATOM     26  C   UNL     1       3.455 -12.371  -8.118  0.00  0.00    +0.005 A 
ATOM     27  C   UNL     1       3.554 -11.136  -7.507  0.00  0.00    +0.029 A 
ATOM     28  C   UNL     1       4.783 -10.677  -7.071  0.00  0.00    +0.105 A 
ATOM     29  C   UNL     1       5.913 -11.454  -7.247  0.00  0.00    +0.029 A 
ATOM     30  C   UNL     1       5.813 -12.692  -7.855  0.00  0.00    +0.005 A 
ENDBRANCH  21  28
ENDBRANCH  15  21
ENDBRANCH   1  18
BRANCH   3  31
ATOM     31  C   UNL     1       4.872  -7.193   1.581  0.00  0.00    +0.097 C 
BRANCH  31  32
ATOM     32  C   UNL     1       3.627  -7.558   2.391  0.00  0.00    -0.060 C 
BRANCH  32  33
ATOM     33  N   UNL     1       3.466  -6.605   3.497  0.00  0.00    +0.377 N 
ATOM     34  C   UNL     1       3.197  -5.266   2.955  0.00  0.00    -0.097 C 
ATOM     35  C   UNL     1       2.341  -7.024   4.345  0.00  0.00    -0.097 C 
ATOM     36  H   UNL     1       4.311  -6.581   4.047  0.00  0.00    -0.083 HD
ENDBRANCH  32  33
ENDBRANCH  31  32
ENDBRANCH   3  31
TORSDOF 6
