REMARK  Name = ZINC10003816
REMARK  6 active torsions:
REMARK  status: ('A' for Active; 'I' for Inactive)
REMARK    1  A    between atoms: C_6  and  C_7
REMARK    2  A    between atoms: N_9  and  C_10
REMARK    3  A    between atoms: C_10  and  N_12
REMARK    4  A    between atoms: N_12  and  C_13
REMARK    5  A    between atoms: C_16  and  O_29
REMARK    6  A    between atoms: C_17  and  C_19
REMARK                            x       y       z     vdW  Elec       q    Type
REMARK                         _______ _______ _______ _____ _____    ______ ____
ROOT
ATOM      1  C   UNL     1      -6.023  -0.777   0.008  0.00  0.00    +0.034 A 
ATOM      2  C   UNL     1      -6.094  -2.165   0.033  0.00  0.00    +0.027 A 
ATOM      3  C   UNL     1      -7.319  -2.801  -0.008  0.00  0.00    +0.048 A 
ATOM      4  C   UNL     1      -8.487  -2.058  -0.074  0.00  0.00    +0.129 A 
ATOM      5  C   UNL     1      -8.423  -0.659  -0.099  0.00  0.00    +0.080 A 
ATOM      6  C   UNL     1      -7.182  -0.022  -0.052  0.00  0.00    +0.040 A 
ENDROOT
BRANCH   5   7
ATOM      7  C   UNL     1      -9.664   0.139  -0.170  0.00  0.00    +0.232 A 
ATOM      8  N   UNL     1      -9.714   1.447  -0.204  0.00  0.00    -0.209 NA
ATOM      9  C   UNL     1     -11.015   1.832  -0.267  0.00  0.00    +0.111 A 
ATOM     10  C   UNL     1     -11.651   3.075  -0.324  0.00  0.00    +0.051 A 
ATOM     11  C   UNL     1     -13.026   3.136  -0.383  0.00  0.00    +0.043 A 
ATOM     12  C   UNL     1     -13.782   1.971  -0.385  0.00  0.00    +0.024 A 
ATOM     13  C   UNL     1     -13.166   0.738  -0.330  0.00  0.00    +0.050 A 
ATOM     14  C   UNL     1     -11.784   0.657  -0.271  0.00  0.00    +0.156 A 
ATOM     15  O   UNL     1     -10.909  -0.372  -0.215  0.00  0.00    -0.435 OA
ATOM     16 CL   UNL     1     -13.819   4.679  -0.453  0.00  0.00    -0.083 Cl
ENDBRANCH   5   7
BRANCH   1  17
ATOM     17  N   UNL     1      -4.775  -0.140   0.050  0.00  0.00    -0.297 N 
ATOM     18  H   UNL     1      -4.636   0.616   0.642  0.00  0.00    +0.154 HD
BRANCH  17  19
ATOM     19  C   UNL     1      -3.769  -0.577  -0.733  0.00  0.00    +0.141 C 
ATOM     20  S   UNL     1      -3.980  -1.976  -1.698  0.00  0.00    -0.018 S 
BRANCH  19  23
ATOM     21  C   UNL     1      -1.590  -0.350  -1.540  0.00  0.00    +0.250 C 
ATOM     22  O   UNL     1      -1.740  -1.343  -2.224  0.00  0.00    -0.270 OA
ATOM     23  N   UNL     1      -2.596   0.087  -0.757  0.00  0.00    -0.264 N 
ATOM     24  H   UNL     1      -2.477   0.879  -0.210  0.00  0.00    +0.157 HD
BRANCH  21  30
ATOM     25  C   UNL     1      -0.132   1.518  -0.779  0.00  0.00    +0.017 A 
ATOM     26  C   UNL     1       1.067   2.195  -0.804  0.00  0.00    +0.050 A 
ATOM     27  C   UNL     1       2.106   1.747  -1.609  0.00  0.00    +0.166 A 
ATOM     28  C   UNL     1       1.938   0.607  -2.397  0.00  0.00    +0.167 A 
ATOM     29  C   UNL     1       0.739  -0.075  -2.376  0.00  0.00    +0.062 A 
ATOM     30  C   UNL     1      -0.307   0.377  -1.565  0.00  0.00    +0.041 A 
ATOM     31  O   UNL     1       3.095   0.381  -3.087  0.00  0.00    -0.453 OA
ATOM     32  C   UNL     1       3.826   1.620  -3.027  0.00  0.00    +0.466 C 
ATOM     33  O   UNL     1       3.366   2.231  -1.807  0.00  0.00    -0.453 OA
ENDBRANCH  21  30
ENDBRANCH  19  23
ENDBRANCH  17  19
ENDBRANCH   1  17
BRANCH   4  34
ATOM     34  O   UNL     1      -9.691  -2.685  -0.115  0.00  0.00    -0.506 OA
ATOM     35  H   UNL     1     -10.079  -2.849   0.755  0.00  0.00    +0.292 HD
ENDBRANCH   4  34
TORSDOF 6
