REMARK  Name = ZINC09208552
REMARK  13 active torsions:
REMARK  status: ('A' for Active; 'I' for Inactive)
REMARK    1  A    between atoms: C_1  and  C_2
REMARK    2  A    between atoms: C_3  and  C_35
REMARK    3  A    between atoms: C_4  and  C_34
REMARK    4  A    between atoms: C_7  and  C_8
REMARK    5  A    between atoms: C_8  and  C_10
REMARK    6  A    between atoms: C_10  and  C_12
REMARK    7  A    between atoms: C_10  and  S_13
REMARK    8  A    between atoms: S_13  and  C_14
REMARK    9  A    between atoms: C_17  and  C_26
REMARK   10  A    between atoms: N_18  and  C_19
REMARK   11  A    between atoms: C_26  and  C_28
REMARK   12  A    between atoms: C_26  and  N_67
REMARK   13  A    between atoms: C_35  and  C_37
REMARK                            x       y       z     vdW  Elec       q    Type
REMARK                         _______ _______ _______ _____ _____    ______ ____
ROOT
ATOM      1  C   UNL     1      -9.177   3.990   0.923  0.00  0.00    +0.197 A 
ATOM      2  N   UNL     1      -9.299   3.159  -0.085  0.00  0.00    -0.122 NA
ATOM      3  N   UNL     1     -10.426   3.347  -0.674  0.00  0.00    -0.135 NA
ATOM      4  C   UNL     1     -11.083   4.308  -0.087  0.00  0.00    +0.125 A 
ATOM      5  N   UNL     1     -10.311   4.754   0.952  0.00  0.00    -0.275 N 
ENDROOT
BRANCH   5   6
ATOM      6  C   UNL     1     -10.620   5.780   1.858  0.00  0.00    +0.050 A 
ATOM      7  C   UNL     1     -11.691   5.640   2.729  0.00  0.00    +0.029 A 
ATOM      8  C   UNL     1     -11.990   6.649   3.623  0.00  0.00    +0.040 A 
ATOM      9  C   UNL     1     -11.228   7.805   3.644  0.00  0.00    +0.124 A 
ATOM     10  C   UNL     1     -10.162   7.949   2.773  0.00  0.00    +0.040 A 
ATOM     11  C   UNL     1      -9.857   6.940   1.881  0.00  0.00    +0.029 A 
ATOM     12  F   UNL     1     -11.525   8.793   4.516  0.00  0.00    -0.205 F 
ENDBRANCH   5   6
BRANCH   4  13
ATOM     13  C   UNL     1     -12.440   4.832  -0.481  0.00  0.00    -0.002 C 
ATOM     14  C   UNL     1     -12.315   5.665  -1.758  0.00  0.00    -0.005 C 
BRANCH  13  20
ATOM     15  C   UNL     1     -14.687   4.176  -1.100  0.00  0.00    -0.078 C 
ATOM     16  C   UNL     1     -15.563   2.981  -1.481  0.00  0.00    -0.019 C 
ATOM     17  C   UNL     1     -15.659   2.024  -0.290  0.00  0.00    -0.004 C 
ATOM     18  C   UNL     1     -14.250   1.584   0.116  0.00  0.00    -0.019 C 
ATOM     19  C   UNL     1     -13.412   2.820   0.451  0.00  0.00    -0.078 C 
ATOM     20  N   UNL     1     -13.338   3.688  -0.743  0.00  0.00    +0.386 N 
ATOM     21  H   UNL     1     -12.963   3.143  -1.528  0.00  0.00    -0.081 HD
ENDBRANCH  13  20
ENDBRANCH   4  13
BRANCH   1  22
ATOM     22  S   UNL     1      -7.807   4.106   2.026  0.00  0.00    -0.074 S 
BRANCH  22  23
ATOM     23  C   UNL     1      -6.749   2.803   1.350  0.00  0.00    +0.124 C 
ATOM     24  C   UNL     1      -7.434   1.446   1.527  0.00  0.00    +0.028 C 
BRANCH  23  25
ATOM     25  C   UNL     1      -5.430   2.797   2.080  0.00  0.00    +0.192 C 
ATOM     26  O   UNL     1      -5.360   3.235   3.210  0.00  0.00    -0.289 OA
BRANCH  25  33
ATOM     27  C   UNL     1      -2.607   2.679   3.374  0.00  0.00    +0.047 C 
ATOM     28  C   UNL     1      -3.012   2.218   1.997  0.00  0.00    -0.012 A 
ATOM     29  C   UNL     1      -2.170   1.637   1.021  0.00  0.00    +0.041 A 
ATOM     30  C   UNL     1      -2.955   1.375  -0.092  0.00  0.00    +0.024 A 
ATOM     31  N   UNL     1      -4.212   1.758   0.172  0.00  0.00    -0.355 N 
ATOM     32  H   UNL     1      -4.962   1.682  -0.440  0.00  0.00    +0.166 HD
ATOM     33  C   UNL     1      -4.273   2.282   1.447  0.00  0.00    +0.087 A 
ATOM     34  C   UNL     1      -2.476   0.760  -1.381  0.00  0.00    +0.064 C 
BRANCH  29  35
ATOM     35  C   UNL     1      -0.735   1.368   1.158  0.00  0.00    +0.162 C 
ATOM     36  O   UNL     1       0.073   2.225   0.868  0.00  0.00    -0.292 OA
ATOM     37  C   UNL     1      -0.264   0.027   1.658  0.00  0.00    +0.091 C 
ENDBRANCH  29  35
ENDBRANCH  25  33
ENDBRANCH  23  25
ENDBRANCH  22  23
ENDBRANCH   1  22
TORSDOF 8
