REMARK  Name = ZINC05022530
REMARK  11 active torsions:
REMARK  status: ('A' for Active; 'I' for Inactive)
REMARK    1  A    between atoms: C_1  and  C_2
REMARK    2  A    between atoms: C_17  and  C_31
REMARK    3  A    between atoms: C_22  and  C_23
REMARK    4  A    between atoms: C_22  and  O_30
REMARK    5  A    between atoms: C_23  and  N_71
REMARK    6  A    between atoms: C_24  and  C_25
REMARK    7  A    between atoms: C_24  and  N_71
REMARK    8  A    between atoms: C_25  and  O_26
REMARK    9  A    between atoms: C_27  and  C_28
REMARK   10  A    between atoms: C_27  and  N_71
REMARK   11  A    between atoms: C_28  and  O_29
REMARK                            x       y       z     vdW  Elec       q    Type
REMARK                         _______ _______ _______ _____ _____    ______ ____
ROOT
ATOM      1  C   UNL     1       1.476   0.809   2.727  0.00  0.00    +0.012 C 
ATOM      2  C   UNL     1       0.221  -0.070   2.691  0.00  0.00    -0.026 C 
ATOM      3  C   UNL     1       0.810  -1.437   2.599  0.00  0.00    +0.007 C 
ATOM      4  C   UNL     1       1.157  -2.106   3.912  0.00  0.00    +0.001 C 
ATOM      5  C   UNL     1       0.103  -1.831   4.978  0.00  0.00    +0.000 C 
ATOM      6  C   UNL     1       0.001  -0.324   5.202  0.00  0.00    +0.004 C 
ATOM      7  C   UNL     1      -0.473   0.365   3.932  0.00  0.00    -0.005 C 
ATOM      8  C   UNL     1      -1.991   0.382   3.889  0.00  0.00    +0.004 C 
ATOM      9  C   UNL     1      -2.539   0.935   2.572  0.00  0.00    +0.004 C 
ATOM     10  C   UNL     1      -1.923   0.117   1.445  0.00  0.00    -0.004 C 
ATOM     11  C   UNL     1      -0.422   0.408   1.409  0.00  0.00    -0.001 C 
ATOM     12  C   UNL     1       0.174  -0.175   0.139  0.00  0.00    +0.005 C 
ATOM     13  C   UNL     1      -0.319   0.622  -1.085  0.00  0.00    +0.010 C 
ATOM     14  C   UNL     1      -1.702   1.164  -0.854  0.00  0.00    -0.002 C 
ATOM     15  C   UNL     1      -2.538   0.281   0.094  0.00  0.00    +0.001 C 
ATOM     16  C   UNL     1      -3.916   0.961   0.032  0.00  0.00    +0.007 C 
ATOM     17  C   UNL     1      -4.041   1.403  -1.452  0.00  0.00    +0.034 C 
ATOM     18  C   UNL     1      -2.632   1.235  -2.081  0.00  0.00    +0.057 C 
ATOM     19  C   UNL     1      -1.609   2.608  -0.328  0.00  0.00    +0.014 C 
ENDROOT
BRANCH  18  20
ATOM     20  O   UNL     1      -2.301   2.378  -2.869  0.00  0.00    -0.390 OA
ATOM     21  H   UNL     1      -2.897   2.526  -3.616  0.00  0.00    +0.210 HD
ENDBRANCH  18  20
BRANCH  18  22
ATOM     22  C   UNL     1      -2.579  -0.037  -2.918  0.00  0.00    -0.043 C 
BRANCH  22  23
ATOM     23  N   UNL     1      -2.841  -1.193  -2.035  0.00  0.00    +0.384 N 
ATOM     24  H   UNL     1      -2.454  -0.997  -1.105  0.00  0.00    -0.082 HD
BRANCH  23  25
ATOM     25  C   UNL     1      -4.297  -1.415  -1.912  0.00  0.00    -0.050 C 
BRANCH  25  26
ATOM     26  C   UNL     1      -4.950  -1.466  -3.295  0.00  0.00    +0.137 C 
BRANCH  26  27
ATOM     27  O   UNL     1      -4.505  -2.633  -3.989  0.00  0.00    -0.397 OA
ATOM     28  H   UNL     1      -4.880  -2.731  -4.875  0.00  0.00    +0.209 HD
ENDBRANCH  26  27
ENDBRANCH  25  26
ENDBRANCH  23  25
BRANCH  23  29
ATOM     29  C   UNL     1      -2.190  -2.403  -2.580  0.00  0.00    -0.050 C 
BRANCH  29  30
ATOM     30  C   UNL     1      -2.134  -3.467  -1.483  0.00  0.00    +0.137 C 
BRANCH  30  31
ATOM     31  O   UNL     1      -3.454  -3.943  -1.212  0.00  0.00    -0.397 OA
ATOM     32  H   UNL     1      -3.505  -4.565  -0.474  0.00  0.00    +0.209 HD
ENDBRANCH  30  31
ENDBRANCH  29  30
ENDBRANCH  23  29
ENDBRANCH  22  23
ENDBRANCH  18  22
TORSDOF 9
