REMARK  Name = ZINC13008678
REMARK  9 active torsions:
REMARK  status: ('A' for Active; 'I' for Inactive)
REMARK    1  A    between atoms: C_1  and  N_2
REMARK    2  A    between atoms: C_10  and  C_12
REMARK    3  A    between atoms: C_12  and  C_14
REMARK    4  A    between atoms: C_12  and  N_65
REMARK    5  A    between atoms: C_14  and  N_15
REMARK    6  A    between atoms: C_16  and  C_18
REMARK    7  A    between atoms: N_20  and  C_21
REMARK    8  A    between atoms: C_28  and  N_65
REMARK    9  A    between atoms: C_29  and  N_65
REMARK                            x       y       z     vdW  Elec       q    Type
REMARK                         _______ _______ _______ _____ _____    ______ ____
ROOT
ATOM      1  C   UNL     1       3.594  -1.390   4.402  0.00  0.00    -0.021 C 
ENDROOT
BRANCH   1  11
ATOM      2  C   UNL     1      -1.609   0.440   1.323  0.00  0.00    +0.129 C 
ATOM      3  N   UNL     1      -0.263   0.666   0.781  0.00  0.00    -0.333 N 
ATOM      4  C   UNL     1      -0.077   2.068   0.402  0.00  0.00    +0.105 C 
ATOM      5  C   UNL     1       1.351   2.249  -0.128  0.00  0.00    +0.024 C 
ATOM      6  C   UNL     1       2.316   2.061   1.044  0.00  0.00    +0.038 C 
ATOM      7  C   UNL     1       1.944   0.819   1.814  0.00  0.00    -0.026 A 
ATOM      8  C   UNL     1       0.714   0.203   1.662  0.00  0.00    +0.033 A 
ATOM      9  C   UNL     1       0.421  -0.936   2.414  0.00  0.00    +0.023 A 
ATOM     10  C   UNL     1       1.348  -1.447   3.297  0.00  0.00    +0.004 A 
ATOM     11  C   UNL     1       2.577  -0.831   3.441  0.00  0.00    -0.059 A 
ATOM     12  C   UNL     1       2.872   0.297   2.701  0.00  0.00    +0.007 A 
ENDBRANCH   1  11
BRANCH   1  15
ATOM     13  C   UNL     1       3.048  -3.570   3.500  0.00  0.00    -0.096 C 
ATOM     14  C   UNL     1       5.023  -2.399   2.728  0.00  0.00    -0.096 C 
ATOM     15  N   UNL     1       4.147  -2.661   3.890  0.00  0.00    +0.382 N 
ATOM     16  H   UNL     1       4.701  -3.107   4.631  0.00  0.00    -0.082 HD
ENDBRANCH   1  15
BRANCH   1  17
ATOM     17  C   UNL     1       2.926  -1.652   5.754  0.00  0.00    +0.094 C 
BRANCH  17  18
ATOM     18  N   UNL     1       3.882  -2.306   6.652  0.00  0.00    -0.309 N 
ATOM     19  C   UNL     1       3.513  -2.635   7.905  0.00  0.00    +0.299 C 
ATOM     20  O   UNL     1       2.389  -2.389   8.291  0.00  0.00    -0.265 OA
ATOM     21  H   UNL     1       4.781  -2.502   6.344  0.00  0.00    +0.149 HD
BRANCH  19  22
ATOM     22  C   UNL     1       4.488  -3.301   8.821  0.00  0.00    +0.299 C 
ATOM     23  O   UNL     1       5.612  -3.546   8.436  0.00  0.00    -0.265 OA
ATOM     24  N   UNL     1       4.119  -3.630  10.075  0.00  0.00    -0.305 N 
ATOM     25  H   UNL     1       3.220  -3.434  10.383  0.00  0.00    +0.149 HD
BRANCH  24  26
ATOM     26  C   UNL     1       5.074  -4.283  10.973  0.00  0.00    +0.073 C 
ATOM     27  C   UNL     1       5.096  -5.795  10.665  0.00  0.00    +0.022 C 
ATOM     28  C   UNL     1       6.384  -6.370  11.187  0.00  0.00    +0.002 C 
ATOM     29  C   UNL     1       6.238  -6.952  12.606  0.00  0.00    +0.000 C 
ATOM     30  C   UNL     1       5.384  -6.064  13.530  0.00  0.00    +0.000 C 
ATOM     31  C   UNL     1       5.689  -4.600  13.366  0.00  0.00    +0.002 C 
ATOM     32  C   UNL     1       4.695  -4.003  12.350  0.00  0.00    +0.022 C 
ENDBRANCH  24  26
ENDBRANCH  19  22
ENDBRANCH  17  18
ENDBRANCH   1  17
TORSDOF 6
