REMARK  Name = ZINC08456818
REMARK  8 active torsions:
REMARK  status: ('A' for Active; 'I' for Inactive)
REMARK    1  A    between atoms: C_1  and  C_2
REMARK    2  A    between atoms: C_2  and  C_4
REMARK    3  A    between atoms: C_2  and  N_20
REMARK    4  A    between atoms: C_7  and  S_15
REMARK    5  A    between atoms: N_8  and  C_9
REMARK    6  A    between atoms: S_15  and  C_16
REMARK    7  A    between atoms: C_16  and  C_17
REMARK    8  A    between atoms: N_20  and  C_21
REMARK                            x       y       z     vdW  Elec       q    Type
REMARK                         _______ _______ _______ _____ _____    ______ ____
ROOT
ATOM      1  C   UNL     1       0.731  -0.503   1.223  0.00  0.00    +0.159 A 
ATOM      2  N   UNL     1       0.274  -0.518   2.443  0.00  0.00    -0.131 NA
ATOM      3  N   UNL     1       1.155  -1.009   3.240  0.00  0.00    -0.122 NA
ATOM      4  C   UNL     1       2.233  -1.338   2.567  0.00  0.00    +0.197 A 
ATOM      5  N   UNL     1       1.994  -1.031   1.255  0.00  0.00    -0.273 N 
ENDROOT
BRANCH   5   6
ATOM      6  C   UNL     1       2.864  -1.216   0.170  0.00  0.00    +0.050 A 
ATOM      7  C   UNL     1       2.537  -2.111  -0.839  0.00  0.00    +0.026 A 
ATOM      8  C   UNL     1       3.392  -2.286  -1.909  0.00  0.00    +0.002 A 
ATOM      9  C   UNL     1       4.579  -1.579  -1.971  0.00  0.00    +0.000 A 
ATOM     10  C   UNL     1       4.910  -0.691  -0.964  0.00  0.00    +0.002 A 
ATOM     11  C   UNL     1       4.056  -0.507   0.105  0.00  0.00    +0.026 A 
ENDBRANCH   5   6
BRANCH   1  13
ATOM     12  C   UNL     1      -0.019   1.526   0.010  0.00  0.00    +0.036 C 
ATOM     13  C   UNL     1       0.002  -0.004   0.002  0.00  0.00    +0.136 C 
BRANCH  13  14
ATOM     14  N   UNL     1      -1.372  -0.511   0.012  0.00  0.00    -0.334 N 
ATOM     15  H   UNL     1      -1.794  -0.752   0.852  0.00  0.00    +0.147 HD
BRANCH  14  16
ATOM     16  C   UNL     1      -2.076  -0.647  -1.187  0.00  0.00    +0.028 A 
ATOM     17  C   UNL     1      -1.475  -0.297  -2.390  0.00  0.00    +0.024 A 
ATOM     18  C   UNL     1      -2.171  -0.438  -3.574  0.00  0.00    +0.017 A 
ATOM     19  C   UNL     1      -3.469  -0.917  -3.563  0.00  0.00    +0.018 A 
ATOM     20  C   UNL     1      -4.072  -1.262  -2.366  0.00  0.00    +0.017 A 
ATOM     21  C   UNL     1      -3.379  -1.128  -1.179  0.00  0.00    +0.024 A 
ATOM     22 BR   UNL     1      -4.421  -1.101  -5.186  0.00  0.00    -0.050 Br
ENDBRANCH  14  16
ENDBRANCH  13  14
ENDBRANCH   1  13
BRANCH   4  23
ATOM     23  S   UNL     1       3.704  -2.049   3.226  0.00  0.00    -0.076 S 
BRANCH  23  24
ATOM     24  C   UNL     1       3.247  -2.151   4.974  0.00  0.00    +0.172 C 
BRANCH  24  25
ATOM     25  C   UNL     1       4.388  -2.748   5.758  0.00  0.00    +0.221 C 
ATOM     26  O   UNL     1       5.410  -3.071   5.190  0.00  0.00    -0.275 OA
ATOM     27  N   UNL     1       4.274  -2.921   7.089  0.00  0.00    -0.329 N 
ATOM     28  H   UNL     1       3.457  -2.662   7.544  0.00  0.00    +0.145 HD
ATOM     29  H   UNL     1       5.008  -3.304   7.593  0.00  0.00    +0.145 HD
ENDBRANCH  24  25
ENDBRANCH  23  24
ENDBRANCH   4  23
TORSDOF 7
