REMARK  Name = ZINC43630013
REMARK  2 active torsions:
REMARK  status: ('A' for Active; 'I' for Inactive)
REMARK    1  A    between atoms: C_8  and  N_10
REMARK    2  A    between atoms: C_15  and  C_24
REMARK                            x       y       z     vdW  Elec       q    Type
REMARK                         _______ _______ _______ _____ _____    ______ ____
ROOT
ATOM      1  N   UNL     1       3.756  -3.466  -0.049  0.00  0.00    -0.299 N 
ATOM      2  C   UNL     1       4.374  -4.662  -0.632  0.00  0.00    +0.110 C 
ATOM      3  C   UNL     1       5.205  -5.308   0.491  0.00  0.00    +0.003 C 
ATOM      4  C   UNL     1       6.636  -4.717   0.483  0.00  0.00    -0.005 C 
ATOM      5  C   UNL     1       6.970  -4.685   1.997  0.00  0.00    -0.018 C 
ATOM      6  N   UNL     1       5.700  -4.319   2.660  0.00  0.00    +0.395 N 
ATOM      7  C   UNL     1       4.571  -4.698   1.764  0.00  0.00    +0.018 C 
ATOM      8  C   UNL     1       3.824  -3.484   1.294  0.00  0.00    +0.206 C 
ATOM      9  O   UNL     1       3.347  -2.639   2.022  0.00  0.00    -0.277 OA
ATOM     10  C   UNL     1       3.676  -5.712   2.480  0.00  0.00    -0.004 C 
ATOM     11  C   UNL     1       4.020  -5.485   3.978  0.00  0.00    -0.019 C 
ATOM     12  C   UNL     1       5.554  -5.111   3.902  0.00  0.00    -0.076 C 
ATOM     13  H   UNL     1       5.685  -3.332   2.870  0.00  0.00    -0.079 HD
ENDROOT
BRANCH   5  14
ATOM     14  C   UNL     1       8.028  -3.650   2.278  0.00  0.00    +0.012 A 
ATOM     15  C   UNL     1       7.814  -2.335   2.482  0.00  0.00    +0.021 A 
ATOM     16  C   UNL     1       9.067  -1.731   2.710  0.00  0.00    +0.020 A 
ATOM     17  C   UNL     1      10.002  -2.699   2.637  0.00  0.00    +0.093 A 
ATOM     18  N   UNL     1       9.371  -3.884   2.377  0.00  0.00    -0.301 N 
ATOM     19  C   UNL     1       9.994  -5.122   2.235  0.00  0.00    +0.177 A 
ATOM     20  N   UNL     1       9.457  -6.272   1.890  0.00  0.00    -0.231 NA
ATOM     21  C   UNL     1      10.187  -7.367   1.798  0.00  0.00    +0.121 A 
ATOM     22  C   UNL     1      11.510  -7.250   2.074  0.00  0.00    +0.068 A 
ATOM     23  S   UNL     1      11.617  -5.508   2.454  0.00  0.00    -0.058 S 
ENDBRANCH   5  14
BRANCH   1  31
ATOM     24  C   UNL     1       0.206   1.347  -0.718  0.00  0.00    +0.000 A 
ATOM     25  C   UNL     1       1.405   2.036  -0.699  0.00  0.00    +0.000 A 
ATOM     26  C   UNL     1       2.596   1.343  -0.608  0.00  0.00    +0.004 A 
ATOM     27  C   UNL     1       2.594  -0.040  -0.537  0.00  0.00    -0.042 A 
ATOM     28  C   UNL     1       1.396  -0.729  -0.556  0.00  0.00    -0.042 A 
ATOM     29  C   UNL     1       0.202  -0.032  -0.647  0.00  0.00    +0.004 A 
ATOM     30  C   UNL     1       1.659  -2.217  -0.467  0.00  0.00    +0.058 C 
ATOM     31  C   UNL     1       3.149  -2.386  -0.831  0.00  0.00    +0.085 C 
ATOM     32  C   UNL     1       3.745  -1.019  -0.433  0.00  0.00    +0.058 C 
ENDBRANCH   1  31
TORSDOF 2
