REMARK  Name = ZINC20503834
REMARK  10 active torsions:
REMARK  status: ('A' for Active; 'I' for Inactive)
REMARK    1  A    between atoms: C_1  and  N_2
REMARK    2  A    between atoms: N_2  and  C_3
REMARK    3  A    between atoms: N_2  and  C_4
REMARK    4  A    between atoms: C_7  and  N_10
REMARK    5  A    between atoms: N_10  and  C_11
REMARK    6  A    between atoms: C_11  and  N_13
REMARK    7  A    between atoms: N_13  and  C_14
REMARK    8  A    between atoms: C_14  and  C_15
REMARK    9  A    between atoms: C_24  and  C_26
REMARK   10  A    between atoms: C_26  and  N_27
REMARK                            x       y       z     vdW  Elec       q    Type
REMARK                         _______ _______ _______ _____ _____    ______ ____
ROOT
ATOM      1  C   UNL     1      -1.761   4.224  -0.151  0.00  0.00    -0.051 C 
ATOM      2  C   UNL     1      -1.220   4.170  -1.583  0.00  0.00    -0.010 C 
ATOM      3  C   UNL     1      -0.877   2.716  -1.929  0.00  0.00    -0.012 C 
ATOM      4  C   UNL     1      -2.147   1.867  -1.786  0.00  0.00    -0.015 C 
ATOM      5  C   UNL     1      -2.662   1.985  -0.349  0.00  0.00    -0.078 C 
ATOM      6  N   UNL     1      -1.772   2.868   0.416  0.00  0.00    +0.383 N 
ATOM      7  C   UNL     1      -0.410   2.315   0.489  0.00  0.00    -0.073 C 
ATOM      8  C   UNL     1       0.166   2.207  -0.926  0.00  0.00    -0.011 C 
ATOM      9  H   UNL     1      -2.164   2.934   1.442  0.00  0.00    -0.081 HD
ENDROOT
BRANCH   1  10
ATOM     10  C   UNL     1      -0.865   5.126   0.700  0.00  0.00    +0.088 C 
BRANCH  10  11
ATOM     11  N   UNL     1      -1.312   5.083   2.095  0.00  0.00    -0.328 N 
ATOM     12  H   UNL     1      -2.174   4.461   2.377  0.00  0.00    +0.148 HD
BRANCH  11  13
ATOM     13  C   UNL     1      -0.666   5.805   3.032  0.00  0.00    +0.134 C 
ATOM     14  S   UNL     1       0.676   6.773   2.592  0.00  0.00    -0.019 S 
BRANCH  13  15
ATOM     15  N   UNL     1      -1.078   5.765   4.314  0.00  0.00    -0.297 N 
ATOM     16  H   UNL     1      -1.981   5.199   4.585  0.00  0.00    +0.154 HD
BRANCH  15  20
ATOM     17  C   UNL     1       1.076   7.788   7.258  0.00  0.00    +0.029 A 
ATOM     18  C   UNL     1       0.788   8.416   6.053  0.00  0.00    +0.025 A 
ATOM     19  C   UNL     1       0.075   7.746   5.079  0.00  0.00    +0.025 A 
ATOM     20  C   UNL     1      -0.354   6.445   5.304  0.00  0.00    +0.033 A 
ATOM     21  C   UNL     1      -0.072   5.819   6.511  0.00  0.00    +0.025 A 
ATOM     22  C   UNL     1       0.646   6.487   7.483  0.00  0.00    +0.025 A 
BRANCH  17  24
ATOM     23  C   UNL     1       2.148   9.877   8.059  0.00  0.00    +0.129 C 
ATOM     24  N   UNL     1       1.798   8.467   8.246  0.00  0.00    -0.336 N 
ATOM     25  C   UNL     1       2.203   7.768   9.468  0.00  0.00    +0.129 C 
ENDBRANCH  17  24
ENDBRANCH  15  20
ENDBRANCH  13  15
ENDBRANCH  11  13
ENDBRANCH  10  11
ENDBRANCH   1  10
BRANCH   8  26
ATOM     26  C   UNL     1       1.434   3.057  -1.030  0.00  0.00    +0.086 C 
BRANCH  26  27
ATOM     27  N   UNL     1       2.471   2.499  -0.152  0.00  0.00    -0.298 NA
ATOM     28  C   UNL     1       3.772   3.140  -0.399  0.00  0.00    +0.089 C 
ATOM     29  C   UNL     1       4.709   2.801   0.761  0.00  0.00    +0.051 C 
ATOM     30  C   UNL     1       4.704   1.314   1.009  0.00  0.00    -0.042 A 
ATOM     31  C   UNL     1       5.731   0.765   1.762  0.00  0.00    +0.004 A 
ATOM     32  C   UNL     1       5.762  -0.591   2.016  0.00  0.00    +0.000 A 
ATOM     33  C   UNL     1       4.763  -1.407   1.517  0.00  0.00    +0.000 A 
ATOM     34  C   UNL     1       3.742  -0.862   0.766  0.00  0.00    +0.005 A 
ATOM     35  C   UNL     1       3.710   0.500   0.508  0.00  0.00    -0.030 A 
ATOM     36  C   UNL     1       2.580   1.046  -0.324  0.00  0.00    +0.119 C 
ENDBRANCH  26  27
ENDBRANCH   8  26
TORSDOF 8
