REMARK  Name = ZINC67295106
REMARK  2 active torsions:
REMARK  status: ('A' for Active; 'I' for Inactive)
REMARK    1  A    between atoms: C_8  and  C_10
REMARK    2  A    between atoms: N_20  and  C_21
REMARK                            x       y       z     vdW  Elec       q    Type
REMARK                         _______ _______ _______ _____ _____    ______ ____
ROOT
ATOM      1  C   UNL     1       0.167  -4.207   0.230  0.00  0.00    +0.098 A 
ATOM      2  C   UNL     1      -1.005  -4.952   0.228  0.00  0.00    +0.030 A 
ATOM      3  C   UNL     1      -0.875  -6.410   0.288  0.00  0.00    +0.019 A 
ATOM      4  C   UNL     1      -1.973  -7.238   0.023  0.00  0.00    +0.026 A 
ATOM      5  C   UNL     1      -1.824  -8.606   0.084  0.00  0.00    +0.019 A 
ATOM      6  C   UNL     1      -0.594  -9.164   0.404  0.00  0.00    +0.019 A 
ATOM      7  C   UNL     1       0.496  -8.361   0.669  0.00  0.00    +0.048 A 
ATOM      8  C   UNL     1       0.369  -6.981   0.615  0.00  0.00    +0.137 A 
ATOM      9  O   UNL     1       1.429  -6.179   0.880  0.00  0.00    -0.439 OA
ATOM     10  C   UNL     1       1.439  -4.955   0.287  0.00  0.00    +0.212 A 
ATOM     11  N   UNL     1       2.545  -4.450  -0.215  0.00  0.00    -0.325 N 
ATOM     12 BR   UNL     1      -3.303  -9.729  -0.272  0.00  0.00    -0.050 Br
ATOM     13  H   UNL     1       2.514  -3.623  -0.721  0.00  0.00    +0.169 HD
ENDROOT
BRANCH   1  21
ATOM     14  C   UNL     1       0.144   1.409  -0.196  0.00  0.00    +0.005 A 
ATOM     15  C   UNL     1       1.219   2.078   0.374  0.00  0.00    +0.020 A 
ATOM     16  C   UNL     1       2.268   1.349   0.899  0.00  0.00    +0.113 A 
ATOM     17  N   UNL     1       2.259   0.030   0.865  0.00  0.00    -0.240 NA
ATOM     18  C   UNL     1       1.253  -0.644   0.331  0.00  0.00    +0.125 A 
ATOM     19  C   UNL     1       0.164   0.025  -0.217  0.00  0.00    +0.044 A 
ATOM     20  N   UNL     1       1.286  -2.037   0.316  0.00  0.00    -0.266 N 
ATOM     21  C   UNL     1       0.142  -2.736   0.172  0.00  0.00    +0.254 C 
ATOM     22  O   UNL     1      -0.910  -2.152  -0.006  0.00  0.00    -0.270 OA
ATOM     23  H   UNL     1       2.131  -2.503   0.410  0.00  0.00    +0.157 HD
ENDBRANCH   1  21
BRANCH  11  24
ATOM     24  C   UNL     1       3.738  -5.093  -0.025  0.00  0.00    +0.043 A 
ATOM     25  C   UNL     1       4.072  -5.593   1.235  0.00  0.00    +0.028 A 
ATOM     26  C   UNL     1       5.276  -6.240   1.421  0.00  0.00    +0.042 A 
ATOM     27  C   UNL     1       6.154  -6.394   0.360  0.00  0.00    +0.142 A 
ATOM     28  C   UNL     1       5.829  -5.899  -0.893  0.00  0.00    +0.078 A 
ATOM     29  C   UNL     1       4.624  -5.256  -1.093  0.00  0.00    +0.048 A 
ATOM     30 CL   UNL     1       6.935  -6.096  -2.216  0.00  0.00    -0.081 Cl
ATOM     31  F   UNL     1       7.332  -7.028   0.549  0.00  0.00    -0.204 F 
ENDBRANCH  11  24
TORSDOF 2
