REMARK  Name = ZINC66287563
REMARK  6 active torsions:
REMARK  status: ('A' for Active; 'I' for Inactive)
REMARK    1  A    between atoms: C_1  and  C_2
REMARK    2  A    between atoms: C_4  and  N_14
REMARK    3  A    between atoms: N_5  and  C_7
REMARK    4  A    between atoms: C_15  and  C_17
REMARK    5  A    between atoms: C_21  and  N_23
REMARK    6  A    between atoms: C_24  and  C_26
REMARK                            x       y       z     vdW  Elec       q    Type
REMARK                         _______ _______ _______ _____ _____    ______ ____
ROOT
ATOM      1  N   UNL     1       0.067  -3.046  -1.148  0.00  0.00    -0.266 N 
ATOM      2  C   UNL     1      -0.026  -2.969  -2.490  0.00  0.00    +0.249 C 
ATOM      3  O   UNL     1      -0.108  -1.884  -3.032  0.00  0.00    -0.270 OA
ATOM      4  H   UNL     1       0.133  -3.912  -0.715  0.00  0.00    +0.157 HD
ENDROOT
BRANCH   2   5
ATOM      5  C   UNL     1      -0.028  -4.202  -3.303  0.00  0.00    +0.039 A 
ATOM      6  C   UNL     1       0.061  -5.450  -2.681  0.00  0.00    +0.016 A 
ATOM      7  C   UNL     1       0.059  -6.601  -3.442  0.00  0.00    +0.041 A 
ATOM      8  C   UNL     1      -0.030  -6.524  -4.822  0.00  0.00    +0.145 A 
ATOM      9  C   UNL     1      -0.118  -5.285  -5.449  0.00  0.00    +0.070 A 
ATOM     10  C   UNL     1      -0.124  -4.125  -4.693  0.00  0.00    +0.039 A 
ATOM     11  F   UNL     1      -0.031  -7.655  -5.561  0.00  0.00    -0.204 F 
BRANCH   9  12
ATOM     12  N   UNL     1      -0.208  -5.211  -6.845  0.00  0.00    -0.283 N 
ATOM     13  C   UNL     1      -0.783  -4.141  -7.428  0.00  0.00    +0.214 C 
ATOM     14  O   UNL     1      -1.313  -3.290  -6.745  0.00  0.00    -0.276 OA
ATOM     15  C   UNL     1      -0.767  -4.001  -8.929  0.00  0.00    +0.109 C 
ATOM     16  H   UNL     1       0.144  -5.931  -7.392  0.00  0.00    +0.155 HD
ENDBRANCH   9  12
ENDBRANCH   2   5
BRANCH   1  20
ATOM     17  C   UNL     1       0.089   1.764   0.178  0.00  0.00    +0.067 C 
ATOM     18  C   UNL     1       0.078   0.259   0.243  0.00  0.00    +0.062 A 
ATOM     19  C   UNL     1       0.082  -0.606  -0.855  0.00  0.00    +0.068 A 
ATOM     20  C   UNL     1       0.069  -1.883  -0.381  0.00  0.00    +0.129 A 
ATOM     21  N   UNL     1       0.058  -1.813   0.978  0.00  0.00    -0.215 N 
ATOM     22  N   UNL     1       0.069  -0.460   1.337  0.00  0.00    -0.170 NA
BRANCH  21  23
ATOM     23  C   UNL     1       0.042  -2.903   1.861  0.00  0.00    +0.102 A 
ATOM     24  C   UNL     1       0.957  -3.935   1.708  0.00  0.00    +0.031 A 
ATOM     25  C   UNL     1       0.940  -5.007   2.579  0.00  0.00    +0.002 A 
ATOM     26  C   UNL     1       0.012  -5.053   3.603  0.00  0.00    +0.003 A 
ATOM     27  C   UNL     1      -0.902  -4.028   3.760  0.00  0.00    +0.040 A 
ATOM     28  C   UNL     1      -0.886  -2.949   2.895  0.00  0.00    +0.149 A 
ATOM     29  F   UNL     1      -1.776  -1.943   3.050  0.00  0.00    -0.203 F 
ENDBRANCH  21  23
ENDBRANCH   1  20
TORSDOF 4
