REMARK  Name = ZINC12883130
REMARK  7 active torsions:
REMARK  status: ('A' for Active; 'I' for Inactive)
REMARK    1  A    between atoms: C_1  and  C_2
REMARK    2  A    between atoms: C_2  and  C_3
REMARK    3  A    between atoms: C_14  and  C_16
REMARK    4  A    between atoms: C_16  and  C_17
REMARK    5  A    between atoms: C_17  and  C_18
REMARK    6  A    between atoms: N_23  and  C_26
REMARK    7  A    between atoms: C_26  and  C_27
REMARK                            x       y       z     vdW  Elec       q    Type
REMARK                         _______ _______ _______ _____ _____    ______ ____
ROOT
ATOM      1  C   UNL     1      -4.242   2.702  -0.108  0.00  0.00    -0.047 A 
ATOM      2  C   UNL     1      -4.922   1.948  -1.047  0.00  0.00    +0.005 A 
ATOM      3  C   UNL     1      -4.229   1.179  -1.957  0.00  0.00    +0.024 A 
ATOM      4  C   UNL     1      -2.836   1.154  -1.938  0.00  0.00    +0.036 A 
ATOM      5  C   UNL     1      -2.162   1.916  -0.989  0.00  0.00    -0.027 A 
ATOM      6  C   UNL     1      -2.858   2.684  -0.082  0.00  0.00    +0.008 A 
ATOM      7  C   UNL     1      -0.700   1.674  -1.231  0.00  0.00    +0.050 C 
ATOM      8  C   UNL     1      -0.013   1.086   0.008  0.00  0.00    +0.088 C 
ATOM      9  C   UNL     1       1.411   1.709  -0.002  0.00  0.00    +0.073 C 
ATOM     10  C   UNL     1       1.437   2.619  -1.248  0.00  0.00    -0.057 C 
ATOM     11  C   UNL     1       1.427   2.566   1.243  0.00  0.00    +0.224 C 
ATOM     12  O   UNL     1       2.360   3.243   1.616  0.00  0.00    -0.275 OA
ATOM     13  N   UNL     1       0.249   2.460   1.870  0.00  0.00    -0.237 N 
ATOM     14  C   UNL     1      -0.631   1.653   1.266  0.00  0.00    +0.225 C 
ATOM     15  O   UNL     1      -1.751   1.415   1.665  0.00  0.00    -0.275 OA
ATOM     16  C   UNL     1      -0.648   0.718  -2.392  0.00  0.00    +0.211 C 
ATOM     17  O   UNL     1       0.348   0.263  -2.911  0.00  0.00    -0.277 OA
ATOM     18  N   UNL     1      -1.925   0.467  -2.742  0.00  0.00    -0.286 N 
ATOM     19  H   UNL     1      -2.180  -0.122  -3.469  0.00  0.00    +0.155 HD
ATOM     20  N   UNL     1       0.025   2.908  -1.503  0.00  0.00    +0.394 N 
ATOM     21  H   UNL     1      -0.303   3.657  -0.882  0.00  0.00    -0.083 HD
ATOM     22  H   UNL     1      -0.109   3.191  -2.481  0.00  0.00    -0.083 HD
ENDROOT
BRANCH   1  24
ATOM     23  C   UNL     1      -5.231   4.938   0.304  0.00  0.00    +0.009 C 
ATOM     24  C   UNL     1      -5.005   3.541   0.885  0.00  0.00    +0.032 C 
ENDBRANCH   1  24
BRANCH  10  25
ATOM     25  C   UNL     1       2.226   3.897  -0.958  0.00  0.00    -0.006 C 
BRANCH  25  26
ATOM     26  C   UNL     1       2.345   4.726  -2.238  0.00  0.00    +0.094 C 
BRANCH  26  27
ATOM     27  C   UNL     1       3.122   5.984  -1.952  0.00  0.00    +0.210 C 
ATOM     28  O   UNL     1       3.541   6.198  -0.834  0.00  0.00    -0.276 OA
ATOM     29  N   UNL     1       3.353   6.873  -2.939  0.00  0.00    -0.329 N 
ATOM     30  H   UNL     1       3.019   6.702  -3.833  0.00  0.00    +0.145 HD
ATOM     31  H   UNL     1       3.854   7.683  -2.755  0.00  0.00    +0.145 HD
ENDBRANCH  26  27
ENDBRANCH  25  26
ENDBRANCH  10  25
BRANCH  13  32
ATOM     32  C   UNL     1      -0.051   3.169   3.116  0.00  0.00    +0.151 C 
BRANCH  32  33
ATOM     33  C   UNL     1      -0.651   4.514   2.796  0.00  0.00    -0.026 A 
ATOM     34  C   UNL     1       0.169   5.616   2.643  0.00  0.00    +0.009 A 
ATOM     35  C   UNL     1      -0.375   6.851   2.343  0.00  0.00    +0.050 A 
ATOM     36  C   UNL     1      -1.747   6.989   2.207  0.00  0.00    +0.166 A 
ATOM     37  C   UNL     1      -2.574   5.880   2.367  0.00  0.00    +0.167 A 
ATOM     38  C   UNL     1      -2.021   4.644   2.662  0.00  0.00    +0.054 A 
ATOM     39  O   UNL     1      -3.869   6.271   2.186  0.00  0.00    -0.453 OA
ATOM     40  C   UNL     1      -3.859   7.705   2.318  0.00  0.00    +0.466 C 
ATOM     41  O   UNL     1      -2.524   8.075   1.926  0.00  0.00    -0.453 OA
ENDBRANCH  32  33
ENDBRANCH  13  32
TORSDOF 6
