REMARK  Name = ZINC09427097
REMARK  8 active torsions:
REMARK  status: ('A' for Active; 'I' for Inactive)
REMARK    1  A    between atoms: C_1  and  C_2
REMARK    2  A    between atoms: C_2  and  C_3
REMARK    3  A    between atoms: C_5  and  C_30
REMARK    4  A    between atoms: C_5  and  C_31
REMARK    5  A    between atoms: C_10  and  C_29
REMARK    6  A    between atoms: C_16  and  C_27
REMARK    7  A    between atoms: C_17  and  N_26
REMARK    8  A    between atoms: C_31  and  C_32
REMARK                            x       y       z     vdW  Elec       q    Type
REMARK                         _______ _______ _______ _____ _____    ______ ____
ROOT
ATOM      1  C   UNL     1      -0.563   4.776  -5.762  0.00  0.00    -0.041 C 
ATOM      2  C   UNL     1      -0.462   3.570  -6.297  0.00  0.00    +0.003 C 
ATOM      3  C   UNL     1      -0.988   2.290  -5.720  0.00  0.00    +0.058 C 
ATOM      4  N   UNL     1      -1.659   2.515  -4.433  0.00  0.00    -0.260 N 
ATOM      5  C   UNL     1      -1.758   3.785  -3.882  0.00  0.00    +0.049 A 
ATOM      6  C   UNL     1      -1.244   4.955  -4.473  0.00  0.00    -0.000 A 
ATOM      7  C   UNL     1      -1.436   6.139  -3.781  0.00  0.00    +0.013 A 
ATOM      8  C   UNL     1      -2.105   6.141  -2.568  0.00  0.00    -0.049 A 
ATOM      9  C   UNL     1      -2.612   4.978  -1.986  0.00  0.00    +0.010 A 
ATOM     10  C   UNL     1      -2.425   3.794  -2.668  0.00  0.00    -0.000 A 
ATOM     11  C   UNL     1      -2.792   2.367  -2.419  0.00  0.00    +0.144 C 
ATOM     12  C   UNL     1      -2.250   1.615  -3.625  0.00  0.00    +0.241 C 
ATOM     13  O   UNL     1      -2.334   0.422  -3.822  0.00  0.00    -0.273 OA
ATOM     14  C   UNL     1      -4.280   2.193  -2.339  0.00  0.00    +0.110 C 
ATOM     15  C   UNL     1      -4.878   1.979  -1.141  0.00  0.00    +0.199 C 
ATOM     16  O   UNL     1      -4.165   1.923  -0.005  0.00  0.00    -0.445 OA
ATOM     17  C   UNL     1      -2.847   1.651  -0.048  0.00  0.00    +0.115 C 
ATOM     18  C   UNL     1      -2.127   1.852  -1.168  0.00  0.00    +0.058 C 
ATOM     19  C   UNL     1      -0.745   1.587  -1.207  0.00  0.00    +0.164 C 
ATOM     20  O   UNL     1      -0.133   1.766  -2.241  0.00  0.00    -0.292 OA
ATOM     21  C   UNL     1      -0.013   1.086   0.008  0.00  0.00    +0.080 C 
ATOM     22  C   UNL     1      -0.735   1.582   1.265  0.00  0.00    +0.016 C 
ATOM     23  C   UNL     1      -2.192   1.113   1.202  0.00  0.00    +0.075 C 
ATOM     24  C   UNL     1      -2.293   7.450  -1.847  0.00  0.00    +0.044 C 
ATOM     25  C   UNL     1       0.177   1.320  -5.512  0.00  0.00    +0.037 C 
ENDROOT
BRANCH  15  26
ATOM     26  N   UNL     1      -6.240   1.817  -1.088  0.00  0.00    -0.328 N 
ATOM     27  H   UNL     1      -6.678   1.663  -0.236  0.00  0.00    +0.145 HD
ATOM     28  H   UNL     1      -6.765   1.855  -1.903  0.00  0.00    +0.145 HD
ENDBRANCH  15  26
BRANCH   1  30
ATOM     29  C   UNL     1      -1.063   6.646  -7.311  0.00  0.00    +0.009 C 
ATOM     30  C   UNL     1       0.024   5.966  -6.475  0.00  0.00    +0.032 C 
ENDBRANCH   1  30
BRANCH  14  31
ATOM     31  C   UNL     1      -5.071   2.254  -3.531  0.00  0.00    +0.102 C 
ATOM     32  N   UNL     1      -5.699   2.302  -4.477  0.00  0.00    -0.191 NA
ENDBRANCH  14  31
BRANCH   3  33
ATOM     33  C   UNL     1      -1.985   1.671  -6.701  0.00  0.00    +0.027 C 
ATOM     34  C   UNL     1      -1.282   1.386  -8.030  0.00  0.00    +0.006 C 
ENDBRANCH   3  33
TORSDOF 4
