REMARK  Name = ZINC13244420
REMARK  12 active torsions:
REMARK  status: ('A' for Active; 'I' for Inactive)
REMARK    1  A    between atoms: C_1  and  C_2
REMARK    2  A    between atoms: C_4  and  C_32
REMARK    3  A    between atoms: C_5  and  C_9
REMARK    4  A    between atoms: C_7  and  C_8
REMARK    5  A    between atoms: C_9  and  C_11
REMARK    6  A    between atoms: C_9  and  N_12
REMARK    7  A    between atoms: C_13  and  C_15
REMARK    8  A    between atoms: C_15  and  N_16
REMARK    9  A    between atoms: N_19  and  CA_20
REMARK   10  A    between atoms: CA_20  and  C_22
REMARK   11  A    between atoms: CA_20  and  C_30
REMARK   12  A    between atoms: C_22  and  C_23
REMARK                            x       y       z     vdW  Elec       q    Type
REMARK                         _______ _______ _______ _____ _____    ______ ____
ROOT
ATOM      1  N   UNL     1      -3.876  -0.445   1.181  0.00  0.00    -0.291 N 
ATOM      2  C   UNL     1      -2.864   0.445   1.181  0.00  0.00    +0.301 C 
ATOM      3  O   UNL     1      -2.341   0.772   2.229  0.00  0.00    -0.253 OA
ATOM      4  N   UNL     1      -2.430   0.973   0.019  0.00  0.00    -0.286 N 
ATOM      5  H   UNL     1      -4.293  -0.705   0.344  0.00  0.00    +0.151 HD
ATOM      6  H   UNL     1      -2.847   0.712  -0.817  0.00  0.00    +0.151 HD
ENDROOT
BRANCH   1   7
ATOM      7  C   UNL     1      -4.347  -1.018   2.444  0.00  0.00    +0.201 C 
BRANCH   7   9
ATOM      8  N   UNL     1      -6.072  -2.627   3.189  0.00  0.00    -0.307 N 
ATOM      9  C   UNL     1      -5.477  -1.976   2.170  0.00  0.00    +0.231 C 
ATOM     10  O   UNL     1      -5.852  -2.162   1.031  0.00  0.00    -0.274 OA
ATOM     11  H   UNL     1      -5.772  -2.479   4.100  0.00  0.00    +0.149 HD
BRANCH   8  12
ATOM     12  C   UNL     1      -7.170  -3.559   2.923  0.00  0.00    +0.100 C 
ATOM     13  C   UNL     1      -8.487  -2.785   2.843  0.00  0.00    +0.033 C 
BRANCH  12  18
ATOM     14  C   UNL     1      -7.479  -7.445   7.189  0.00  0.00    +0.044 C 
ATOM     15  C   UNL     1      -7.398  -6.432   6.076  0.00  0.00    -0.047 A 
ATOM     16  C   UNL     1      -7.886  -6.743   4.821  0.00  0.00    +0.007 A 
ATOM     17  C   UNL     1      -7.817  -5.812   3.802  0.00  0.00    -0.045 A 
ATOM     18  C   UNL     1      -7.250  -4.572   4.035  0.00  0.00    -0.024 A 
ATOM     19  C   UNL     1      -6.762  -4.261   5.290  0.00  0.00    +0.009 A 
ATOM     20  C   UNL     1      -6.836  -5.191   6.311  0.00  0.00    -0.047 A 
ATOM     21  C   UNL     1      -6.304  -4.852   7.679  0.00  0.00    +0.044 C 
ATOM     22  C   UNL     1      -8.355  -6.149   2.435  0.00  0.00    +0.044 C 
ENDBRANCH  12  18
ENDBRANCH   8  12
ENDBRANCH   7   9
ENDBRANCH   1   7
BRANCH   4  23
ATOM     23  CA  UNL     1      -1.329   1.940   0.019  0.00  0.00    +0.196 C 
BRANCH  23  24
ATOM     24  C   UNL     1      -0.014   1.204   0.009  0.00  0.00    +0.376 C 
ATOM     25  O   UNL     1       0.002  -0.004   0.002  0.00  0.00    -0.244 OA
ATOM     26  OXT UNL     1       1.139   1.891   0.001  0.00  0.00    -0.244 OA
ENDBRANCH  23  24
BRANCH  23  27
ATOM     27  C   UNL     1      -1.428   2.825  -1.225  0.00  0.00    +0.130 C 
BRANCH  27  28
ATOM     28  C   UNL     1      -2.686   3.652  -1.154  0.00  0.00    +0.218 C 
ATOM     29  O   UNL     1      -3.430   3.544  -0.203  0.00  0.00    -0.276 OA
ATOM     30  N   UNL     1      -2.984   4.512  -2.149  0.00  0.00    -0.301 N 
ATOM     31  C   UNL     1      -2.172   4.746  -3.351  0.00  0.00    +0.108 C 
ATOM     32  C   UNL     1      -2.891   5.825  -4.188  0.00  0.00    +0.020 C 
ATOM     33  C   UNL     1      -3.768   6.551  -3.134  0.00  0.00    +0.020 C 
ATOM     34  C   UNL     1      -4.176   5.378  -2.207  0.00  0.00    +0.108 C 
ENDBRANCH  27  28
ENDBRANCH  23  27
ENDBRANCH   4  23
TORSDOF 8
