REMARK  Name = ZINC63503359
REMARK  2 active torsions:
REMARK  status: ('A' for Active; 'I' for Inactive)
REMARK    1  A    between atoms: C_8  and  C_25
REMARK    2  A    between atoms: C_16  and  C_18
REMARK                            x       y       z     vdW  Elec       q    Type
REMARK                         _______ _______ _______ _____ _____    ______ ____
ROOT
ATOM      1  C   UNL     1      -0.277   1.005   0.653  0.00  0.00    +0.001 A 
ATOM      2  C   UNL     1       0.810   1.866   0.448  0.00  0.00    +0.002 A 
ATOM      3  C   UNL     1       2.068   1.416   0.256  0.00  0.00    +0.026 A 
ATOM      4  C   UNL     1       2.342   0.022   0.254  0.00  0.00    +0.043 A 
ATOM      5  N   UNL     1       3.458  -0.648   0.071  0.00  0.00    -0.375 N 
ATOM      6  C   UNL     1       3.179  -2.071   0.250  0.00  0.00    +0.131 C 
ATOM      7  C   UNL     1       3.565  -2.889  -0.988  0.00  0.00    +0.133 C 
ATOM      8  N   UNL     1       2.897  -4.196  -0.892  0.00  0.00    -0.288 N 
ATOM      9  C   UNL     1       1.434  -4.284  -0.825  0.00  0.00    +0.113 C 
ATOM     10  C   UNL     1       0.932  -3.488   0.394  0.00  0.00    +0.052 C 
ATOM     11  C   UNL     1       1.672  -2.169   0.414  0.00  0.00    -0.035 C 
ATOM     12  C   UNL     1       1.208  -0.912   0.461  0.00  0.00    -0.001 A 
ATOM     13  C   UNL     1      -0.128  -0.339   0.666  0.00  0.00    +0.010 A 
ATOM     14  C   UNL     1       3.635  -5.324  -0.867  0.00  0.00    +0.247 C 
ATOM     15  O   UNL     1       4.848  -5.255  -0.828  0.00  0.00    -0.270 OA
ATOM     16  H   UNL     1       4.321  -0.263  -0.146  0.00  0.00    +0.160 HD
ENDROOT
BRANCH   7  17
ATOM     17  C   UNL     1       3.111  -2.173  -2.234  0.00  0.00    -0.021 A 
ATOM     18  C   UNL     1       1.767  -1.921  -2.434  0.00  0.00    +0.009 A 
ATOM     19  C   UNL     1       1.346  -1.264  -3.575  0.00  0.00    +0.050 A 
ATOM     20  C   UNL     1       2.271  -0.857  -4.522  0.00  0.00    +0.166 A 
ATOM     21  C   UNL     1       3.626  -1.111  -4.321  0.00  0.00    +0.167 A 
ATOM     22  C   UNL     1       4.041  -1.765  -3.172  0.00  0.00    +0.055 A 
ATOM     23  O   UNL     1       4.325  -0.618  -5.385  0.00  0.00    -0.453 OA
ATOM     24  C   UNL     1       3.352  -0.424  -6.428  0.00  0.00    +0.466 C 
ATOM     25  O   UNL     1       2.122  -0.204  -5.712  0.00  0.00    -0.453 OA
ENDBRANCH   7  17
BRANCH  14  26
ATOM     26  C   UNL     1       2.970  -6.643  -0.885  0.00  0.00    +0.037 A 
ATOM     27  C   UNL     1       1.897  -6.875  -1.747  0.00  0.00    +0.014 A 
ATOM     28  C   UNL     1       1.280  -8.108  -1.760  0.00  0.00    +0.021 A 
ATOM     29  C   UNL     1       1.724  -9.116  -0.920  0.00  0.00    +0.041 A 
ATOM     30  C   UNL     1       2.788  -8.892  -0.062  0.00  0.00    +0.021 A 
ATOM     31  C   UNL     1       3.416  -7.664  -0.044  0.00  0.00    +0.014 A 
ATOM     32 CL   UNL     1       0.942 -10.666  -0.941  0.00  0.00    -0.084 Cl
ENDBRANCH  14  26
TORSDOF 2
