REMARK  Name = ZINC09234295
REMARK  3 active torsions:
REMARK  status: ('A' for Active; 'I' for Inactive)
REMARK    1  A    between atoms: C_4  and  C_7
REMARK    2  A    between atoms: C_7  and  C_9
REMARK    3  A    between atoms: N_27  and  C_30
REMARK                            x       y       z     vdW  Elec       q    Type
REMARK                         _______ _______ _______ _____ _____    ______ ____
ROOT
ATOM      1  C   UNL     1       3.767   1.858  -0.023  0.00  0.00    +0.141 C 
ATOM      2  C   UNL     1       4.029   2.438  -1.428  0.00  0.00    +0.116 C 
ATOM      3  C   UNL     1       4.825   1.302  -2.143  0.00  0.00    +0.113 C 
ATOM      4  C   UNL     1       5.449   0.482  -1.013  0.00  0.00    +0.100 C 
ATOM      5  C   UNL     1       5.433   0.641   1.495  0.00  0.00    +0.054 C 
ATOM      6  C   UNL     1       6.769   0.474   1.540  0.00  0.00    +0.022 C 
ATOM      7  C   UNL     1       7.565   0.667   0.312  0.00  0.00    -0.019 A 
ATOM      8  C   UNL     1       6.943   0.668  -0.943  0.00  0.00    -0.021 A 
ATOM      9  C   UNL     1       7.690   0.839  -2.085  0.00  0.00    +0.006 A 
ATOM     10  C   UNL     1       9.061   1.014  -1.996  0.00  0.00    +0.000 A 
ATOM     11  C   UNL     1       9.684   1.019  -0.761  0.00  0.00    +0.001 A 
ATOM     12  C   UNL     1       8.947   0.847   0.392  0.00  0.00    +0.008 A 
ATOM     13  C   UNL     1       3.741   0.496  -2.830  0.00  0.00    +0.232 C 
ATOM     14  O   UNL     1       3.862  -0.632  -3.258  0.00  0.00    -0.274 OA
ATOM     15  N   UNL     1       2.626   1.239  -2.884  0.00  0.00    -0.208 N 
ATOM     16  C   UNL     1       2.701   2.395  -2.208  0.00  0.00    +0.232 C 
ATOM     17  O   UNL     1       1.867   3.275  -2.216  0.00  0.00    -0.274 OA
ATOM     18  N   UNL     1       4.671   0.697   0.180  0.00  0.00    -0.384 NA
ATOM     19  H   UNL     1       4.045  -0.116   0.228  0.00  0.00    +0.127 HD
ENDROOT
BRANCH  15  20
ATOM     20  C   UNL     1       1.479   0.841  -3.586  0.00  0.00    +0.062 A 
ATOM     21  C   UNL     1       0.499   0.090  -2.951  0.00  0.00    +0.025 A 
ATOM     22  C   UNL     1      -0.631  -0.298  -3.644  0.00  0.00    +0.002 A 
ATOM     23  C   UNL     1      -0.783   0.054  -4.973  0.00  0.00    +0.002 A 
ATOM     24  C   UNL     1       0.192   0.798  -5.611  0.00  0.00    +0.022 A 
ATOM     25  C   UNL     1       1.323   1.193  -4.921  0.00  0.00    +0.063 A 
ATOM     26 CL   UNL     1       2.549   2.126  -5.722  0.00  0.00    -0.082 Cl
ENDBRANCH  15  20
BRANCH   1  27
ATOM     27  C   UNL     1       2.475   1.081  -0.015  0.00  0.00    +0.183 C 
ATOM     28  O   UNL     1       2.497  -0.132  -0.021  0.00  0.00    -0.290 OA
BRANCH  27  32
ATOM     29  C   UNL     1      -1.236   3.135   0.029  0.00  0.00    +0.000 A 
ATOM     30  C   UNL     1      -1.215   1.751   0.017  0.00  0.00    +0.001 A 
ATOM     31  C   UNL     1      -0.013   1.076   0.008  0.00  0.00    +0.011 A 
ATOM     32  C   UNL     1       1.188   1.793   0.000  0.00  0.00    +0.019 A 
ATOM     33  C   UNL     1       1.158   3.192   0.008  0.00  0.00    +0.011 A 
ATOM     34  C   UNL     1      -0.052   3.852   0.022  0.00  0.00    +0.001 A 
ENDBRANCH  27  32
ENDBRANCH   1  27
TORSDOF 3
