REMARK  Name = ZINC09008580
REMARK  12 active torsions:
REMARK  status: ('A' for Active; 'I' for Inactive)
REMARK    1  A    between atoms: C_1  and  C_2
REMARK    2  A    between atoms: C_10  and  C_14
REMARK    3  A    between atoms: C_18  and  C_20
REMARK    4  A    between atoms: C_20  and  N_80
REMARK    5  A    between atoms: C_21  and  C_22
REMARK    6  A    between atoms: C_21  and  N_80
REMARK    7  A    between atoms: C_22  and  C_23
REMARK    8  A    between atoms: C_23  and  C_31
REMARK    9  A    between atoms: C_27  and  C_29
REMARK   10  A    between atoms: C_27  and  C_30
REMARK   11  A    between atoms: C_34  and  O_37
REMARK   12  A    between atoms: O_37  and  C_38
REMARK                            x       y       z     vdW  Elec       q    Type
REMARK                         _______ _______ _______ _____ _____    ______ ____
ROOT
ATOM      1  N   UNL     1      -4.211   6.024  -4.672  0.00  0.00    +0.380 N 
ATOM      2  H   UNL     1      -5.112   5.606  -4.936  0.00  0.00    -0.086 HD
ATOM      3  H   UNL     1      -3.446   5.428  -5.010  0.00  0.00    -0.086 HD
ENDROOT
BRANCH   1   4
ATOM      4  C   UNL     1      -4.135   6.127  -3.203  0.00  0.00    -0.068 C 
BRANCH   4  20
ATOM      5  C   UNL     1      -7.178   3.591   1.340  0.00  0.00    +0.039 C 
ATOM      6  C   UNL     1      -5.767   3.245   1.744  0.00  0.00    -0.073 C 
ATOM      7  C   UNL     1      -4.837   3.256   0.837  0.00  0.00    -0.064 C 
ATOM      8  C   UNL     1      -5.195   3.649  -0.582  0.00  0.00    +0.039 C 
ATOM      9  C   UNL     1      -4.308   4.811  -1.038  0.00  0.00    +0.046 C 
ATOM     10  C   UNL     1      -2.825   4.541  -0.723  0.00  0.00    +0.181 C 
ATOM     11  C   UNL     1      -2.553   4.128   0.700  0.00  0.00    +0.056 C 
ATOM     12  C   UNL     1      -3.397   2.916   1.100  0.00  0.00    -0.007 C 
ATOM     13  C   UNL     1      -3.123   2.523   2.538  0.00  0.00    +0.011 C 
ATOM     14  C   UNL     1      -4.040   3.277   3.500  0.00  0.00    +0.005 C 
ATOM     15  C   UNL     1      -5.490   2.900   3.181  0.00  0.00    +0.030 C 
ATOM     16  C   UNL     1      -3.002   1.747   0.195  0.00  0.00    +0.016 C 
ATOM     17  O   UNL     1      -2.440   3.546  -1.711  0.00  0.00    -0.461 OA
ATOM     18  C   UNL     1      -3.010   3.913  -2.882  0.00  0.00    +0.309 C 
ATOM     19  O   UNL     1      -2.593   3.635  -3.981  0.00  0.00    -0.251 OA
ATOM     20  C   UNL     1      -4.258   4.728  -2.595  0.00  0.00    +0.088 C 
ENDBRANCH   4  20
ENDBRANCH   1   4
BRANCH   1  21
ATOM     21  C   UNL     1      -4.096   7.360  -5.286  0.00  0.00    -0.082 C 
BRANCH  21  22
ATOM     22  C   UNL     1      -4.178   7.221  -6.808  0.00  0.00    -0.007 C 
BRANCH  22  23
ATOM     23  C   UNL     1      -4.207   8.612  -7.446  0.00  0.00    -0.001 C 
ATOM     24  C   UNL     1      -4.365   8.476  -8.963  0.00  0.00    +0.039 C 
ATOM     25  C   UNL     1      -5.708   7.809  -9.270  0.00  0.00    +0.161 C 
ATOM     26  O   UNL     1      -6.765   8.583  -8.698  0.00  0.00    -0.374 OA
ATOM     27  C   UNL     1      -6.695   8.704  -7.276  0.00  0.00    +0.065 C 
ATOM     28  C   UNL     1      -5.390   9.408  -6.887  0.00  0.00    +0.046 C 
ATOM     29  C   UNL     1      -7.885   9.524  -6.774  0.00  0.00    +0.041 C 
ATOM     30  C   UNL     1      -6.732   7.312  -6.643  0.00  0.00    +0.041 C 
BRANCH  23  31
ATOM     31  C   UNL     1      -2.921   9.335  -7.136  0.00  0.00    -0.041 A 
ATOM     32  C   UNL     1      -2.942  10.472  -6.348  0.00  0.00    +0.008 A 
ATOM     33  C   UNL     1      -1.764  11.133  -6.058  0.00  0.00    +0.046 A 
ATOM     34  C   UNL     1      -0.562  10.663  -6.566  0.00  0.00    +0.120 A 
ATOM     35  C   UNL     1      -0.545   9.526  -7.361  0.00  0.00    +0.046 A 
ATOM     36  C   UNL     1      -1.725   8.865  -7.644  0.00  0.00    +0.008 A 
BRANCH  34  37
ATOM     37  O   UNL     1       0.597  11.315  -6.287  0.00  0.00    -0.495 OA
ATOM     38  C   UNL     1       0.504  12.479  -5.462  0.00  0.00    +0.277 C 
ENDBRANCH  34  37
ENDBRANCH  23  31
ENDBRANCH  22  23
ENDBRANCH  21  22
ENDBRANCH   1  21
TORSDOF 7
