REMARK  Name = ZINC05658815
REMARK  7 active torsions:
REMARK  status: ('A' for Active; 'I' for Inactive)
REMARK    1  A    between atoms: C_1  and  C_2
REMARK    2  A    between atoms: C_11  and  N_29
REMARK    3  A    between atoms: C_13  and  S_15
REMARK    4  A    between atoms: S_15  and  C_16
REMARK    5  A    between atoms: C_16  and  C_17
REMARK    6  A    between atoms: C_21  and  C_28
REMARK    7  A    between atoms: C_24  and  C_27
REMARK                            x       y       z     vdW  Elec       q    Type
REMARK                         _______ _______ _______ _____ _____    ______ ____
ROOT
ATOM      1  C   UNL     1       4.968  -1.031  -9.367  0.00  0.00    +0.008 C 
ATOM      2  C   UNL     1       4.353  -0.517  -8.064  0.00  0.00    -0.009 C 
ATOM      3  C   UNL     1       4.295  -1.655  -7.040  0.00  0.00    +0.008 C 
ATOM      4  C   UNL     1       3.914  -1.098  -5.667  0.00  0.00    +0.037 C 
ATOM      5  C   UNL     1       2.638  -0.272  -5.807  0.00  0.00    -0.025 A 
ATOM      6  C   UNL     1       2.241   0.182  -7.012  0.00  0.00    -0.004 A 
ATOM      7  S   UNL     1       0.738   1.070  -6.699  0.00  0.00    -0.073 S 
ATOM      8  C   UNL     1       0.646   0.829  -4.944  0.00  0.00    +0.115 A 
ATOM      9  C   UNL     1       1.793   0.062  -4.659  0.00  0.00    +0.051 A 
ATOM     10  C   UNL     1       1.975  -0.284  -3.290  0.00  0.00    +0.129 A 
ATOM     11  N   UNL     1       1.087   0.120  -2.398  0.00  0.00    -0.207 NA
ATOM     12  C   UNL     1       0.025   0.842  -2.736  0.00  0.00    +0.191 A 
ATOM     13  N   UNL     1      -0.198   1.189  -3.997  0.00  0.00    -0.214 NA
ATOM     14  C   UNL     1       2.924  -0.022  -8.330  0.00  0.00    +0.046 C 
ENDROOT
BRANCH  10  15
ATOM     15  N   UNL     1       3.069  -1.034  -2.898  0.00  0.00    -0.343 N 
ATOM     16  H   UNL     1       3.074  -1.467  -2.030  0.00  0.00    +0.144 HD
ATOM     17  H   UNL     1       3.831  -1.128  -3.492  0.00  0.00    +0.144 HD
ENDBRANCH  10  15
BRANCH  12  18
ATOM     18  S   UNL     1      -1.113   1.342  -1.487  0.00  0.00    -0.077 S 
BRANCH  18  19
ATOM     19  C   UNL     1      -0.329   0.603  -0.033  0.00  0.00    +0.173 C 
BRANCH  19  20
ATOM     20  C   UNL     1      -1.152   0.910   1.192  0.00  0.00    +0.226 C 
ATOM     21  O   UNL     1      -2.169   1.563   1.091  0.00  0.00    -0.275 OA
ATOM     22  N   UNL     1      -0.758   0.458   2.399  0.00  0.00    -0.296 N 
ATOM     23  C   UNL     1      -1.545   0.745   3.609  0.00  0.00    +0.139 C 
ATOM     24  C   UNL     1      -1.782  -0.574   4.355  0.00  0.00    +0.133 C 
ATOM     25  O   UNL     1      -0.529  -1.233   4.554  0.00  0.00    -0.371 OA
ATOM     26  C   UNL     1       0.137  -1.602   3.344  0.00  0.00    +0.133 C 
ATOM     27  C   UNL     1       0.469  -0.342   2.545  0.00  0.00    +0.139 C 
ATOM     28  C   UNL     1       1.428  -2.352   3.679  0.00  0.00    +0.039 C 
ATOM     29  C   UNL     1      -2.429  -0.284   5.711  0.00  0.00    +0.039 C 
ENDBRANCH  19  20
ENDBRANCH  18  19
ENDBRANCH  12  18
TORSDOF 4
