REMARK  Name = ZINC65032688
REMARK  4 active torsions:
REMARK  status: ('A' for Active; 'I' for Inactive)
REMARK    1  A    between atoms: C_1  and  N_2
REMARK    2  A    between atoms: C_6  and  S_12
REMARK    3  A    between atoms: S_12  and  N_15
REMARK    4  A    between atoms: C_21  and  C_23
REMARK                            x       y       z     vdW  Elec       q    Type
REMARK                         _______ _______ _______ _____ _____    ______ ____
ROOT
ATOM      1  N   UNL     1      -5.829  -4.543  -1.698  0.00  0.00    -0.174 NA
ATOM      2  C   UNL     1      -6.780  -3.651  -2.376  0.00  0.00    +0.128 C 
ATOM      3  C   UNL     1      -6.014  -2.804  -3.400  0.00  0.00    +0.125 C 
ATOM      4  N   UNL     1      -5.175  -3.696  -4.213  0.00  0.00    -0.295 N 
ATOM      5  C   UNL     1      -4.224  -4.588  -3.535  0.00  0.00    +0.125 C 
ATOM      6  C   UNL     1      -4.986  -5.431  -2.512  0.00  0.00    +0.128 C 
ATOM      7  C   UNL     1      -5.277  -3.696  -5.557  0.00  0.00    +0.247 C 
ATOM      8  O   UNL     1      -4.531  -4.387  -6.223  0.00  0.00    -0.270 OA
ENDROOT
BRANCH   7   9
ATOM      9  C   UNL     1      -6.295  -2.857  -6.221  0.00  0.00    +0.038 A 
ATOM     10  C   UNL     1      -6.394  -1.498  -5.911  0.00  0.00    +0.016 A 
ATOM     11  C   UNL     1      -7.346  -0.719  -6.533  0.00  0.00    +0.040 A 
ATOM     12  C   UNL     1      -8.205  -1.281  -7.465  0.00  0.00    +0.142 A 
ATOM     13  C   UNL     1      -8.112  -2.630  -7.777  0.00  0.00    +0.077 A 
ATOM     14  C   UNL     1      -7.159  -3.417  -7.164  0.00  0.00    +0.036 A 
ATOM     15 CL   UNL     1      -9.191  -3.326  -8.944  0.00  0.00    -0.081 Cl
ATOM     16  F   UNL     1      -9.135  -0.512  -8.072  0.00  0.00    -0.204 F 
ENDBRANCH   7   9
BRANCH   1  17
ATOM     17  S   UNL     1      -5.704  -4.543  -0.047  0.00  0.00    +0.061 S 
ATOM     18  O   UNL     1      -5.173  -5.809   0.321  0.00  0.00    -0.153 OA
ATOM     19  O   UNL     1      -6.943  -4.062   0.455  0.00  0.00    -0.153 OA
BRANCH  17  25
ATOM     20  C   UNL     1      -1.759   0.837   1.676  0.00  0.00    +0.153 C 
ATOM     21  N   UNL     1      -1.503  -0.579   1.403  0.00  0.00    -0.305 N 
ATOM     22  C   UNL     1      -2.557  -1.415   1.073  0.00  0.00    +0.059 A 
ATOM     23  C   UNL     1      -3.916  -1.079   0.956  0.00  0.00    +0.029 A 
ATOM     24  C   UNL     1      -4.851  -2.028   0.619  0.00  0.00    +0.030 A 
ATOM     25  C   UNL     1      -4.487  -3.343   0.383  0.00  0.00    +0.107 A 
ATOM     26  C   UNL     1      -3.155  -3.703   0.491  0.00  0.00    +0.045 A 
ATOM     27  C   UNL     1      -2.220  -2.754   0.828  0.00  0.00    +0.043 A 
ATOM     28  S   UNL     1      -0.460  -2.780   1.069  0.00  0.00    -0.027 S 
ATOM     29  C   UNL     1      -0.244  -1.054   1.470  0.00  0.00    +0.291 A 
ATOM     30  O   UNL     1       0.783  -0.457   1.738  0.00  0.00    -0.259 OA
ENDBRANCH  17  25
ENDBRANCH   1  17
TORSDOF 3
