REMARK  Name = ZINC13092751
REMARK  13 active torsions:
REMARK  status: ('A' for Active; 'I' for Inactive)
REMARK    1  A    between atoms: C_1  and  C_2
REMARK    2  A    between atoms: C_2  and  O_3
REMARK    3  A    between atoms: O_3  and  C_4
REMARK    4  A    between atoms: C_4  and  C_6
REMARK    5  A    between atoms: C_10  and  N_11
REMARK    6  A    between atoms: C_12  and  C_14
REMARK    7  A    between atoms: C_14  and  C_16
REMARK    8  A    between atoms: C_14  and  S_17
REMARK    9  A    between atoms: S_17  and  C_18
REMARK   10  A    between atoms: C_22  and  C_25
REMARK   11  A    between atoms: C_25  and  C_26
REMARK   12  A    between atoms: C_26  and  C_27
REMARK   13  A    between atoms: C_31  and  C_35
REMARK                            x       y       z     vdW  Elec       q    Type
REMARK                         _______ _______ _______ _____ _____    ______ ____
ROOT
ATOM      1  N   UNL     1      -3.033  -2.524   2.498  0.00  0.00    -0.278 N 
ATOM      2  C   UNL     1      -3.808  -2.867   3.546  0.00  0.00    +0.231 C 
ATOM      3  O   UNL     1      -4.910  -3.337   3.357  0.00  0.00    -0.274 OA
ATOM      4  H   UNL     1      -2.152  -2.147   2.650  0.00  0.00    +0.155 HD
ENDROOT
BRANCH   1   9
ATOM      5  C   UNL     1      -2.842  -2.416   0.016  0.00  0.00    +0.091 A 
ATOM      6  C   UNL     1      -3.548  -2.714  -1.219  0.00  0.00    -0.021 A 
ATOM      7  C   UNL     1      -4.777  -3.242  -1.039  0.00  0.00    -0.004 A 
ATOM      8  S   UNL     1      -4.974  -3.335   0.716  0.00  0.00    -0.077 S 
ATOM      9  C   UNL     1      -3.495  -2.708   1.205  0.00  0.00    +0.086 A 
ATOM     10  C   UNL     1      -5.745  -3.651  -2.106  0.00  0.00    +0.046 C 
ATOM     11  C   UNL     1      -5.287  -3.033  -3.435  0.00  0.00    -0.009 C 
ATOM     12  C   UNL     1      -3.790  -3.300  -3.616  0.00  0.00    +0.008 C 
ATOM     13  C   UNL     1      -2.988  -2.468  -2.612  0.00  0.00    +0.037 C 
ATOM     14  C   UNL     1      -6.066  -3.666  -4.590  0.00  0.00    +0.008 C 
BRANCH   5  15
ATOM     15  C   UNL     1      -1.497  -1.838   0.006  0.00  0.00    +0.342 C 
ATOM     16  O   UNL     1      -0.523  -2.566  -0.007  0.00  0.00    -0.245 OA
BRANCH  15  17
ATOM     17  O   UNL     1      -1.339  -0.499   0.012  0.00  0.00    -0.461 OA
BRANCH  17  19
ATOM     18  C   UNL     1      -0.019   1.526   0.010  0.00  0.00    +0.048 C 
ATOM     19  C   UNL     1       0.002  -0.004   0.002  0.00  0.00    +0.229 C 
ENDBRANCH  17  19
ENDBRANCH  15  17
ENDBRANCH   5  15
ENDBRANCH   1   9
BRANCH   2  20
ATOM     20  C   UNL     1      -3.306  -2.666   4.953  0.00  0.00    +0.137 C 
ATOM     21  C   UNL     1      -3.595  -1.231   5.397  0.00  0.00    +0.029 C 
BRANCH  20  22
ATOM     22  S   UNL     1      -4.147  -3.825   6.066  0.00  0.00    -0.072 S 
BRANCH  22  23
ATOM     23  C   UNL     1      -3.357  -3.572   7.621  0.00  0.00    +0.213 A 
ATOM     24  N   UNL     1      -3.743  -4.279   8.676  0.00  0.00    -0.180 NA
ATOM     25  C   UNL     1      -3.143  -4.085   9.845  0.00  0.00    +0.296 A 
ATOM     26  O   UNL     1      -3.516  -4.792  10.939  0.00  0.00    -0.264 OA
ATOM     27  C   UNL     1      -2.121  -3.138   9.925  0.00  0.00    +0.130 A 
ATOM     28  N   UNL     1      -1.781  -2.465   8.841  0.00  0.00    -0.146 NA
ATOM     29  N   UNL     1      -2.378  -2.681   7.722  0.00  0.00    -0.122 NA
BRANCH  27  30
ATOM     30  C   UNL     1      -1.415  -2.885  11.232  0.00  0.00    +0.074 C 
BRANCH  30  31
ATOM     31  C   UNL     1      -0.208  -3.818  11.347  0.00  0.00    +0.131 C 
BRANCH  31  32
ATOM     32  C   UNL     1       0.498  -3.566  12.655  0.00  0.00    +0.356 C 
ATOM     33  O   UNL     1       0.075  -2.719  13.423  0.00  0.00    -0.246 OA
ATOM     34  O   UNL     1       1.493  -4.209  12.944  0.00  0.00    -0.246 OA
ENDBRANCH  31  32
ENDBRANCH  30  31
ENDBRANCH  27  30
ENDBRANCH  22  23
ENDBRANCH  20  22
ENDBRANCH   2  20
TORSDOF 10
