REMARK  Name = ZINC20731776
REMARK  17 active torsions:
REMARK  status: ('A' for Active; 'I' for Inactive)
REMARK    1  A    between atoms: C_1  and  C_2
REMARK    2  A    between atoms: C_2  and  C_3
REMARK    3  A    between atoms: C_3  and  N_4
REMARK    4  A    between atoms: C_12  and  C_14
REMARK    5  A    between atoms: C_14  and  N_15
REMARK    6  A    between atoms: N_15  and  C_16
REMARK    7  A    between atoms: N_15  and  C_23
REMARK    8  A    between atoms: C_16  and  C_17
REMARK    9  A    between atoms: C_17  and  C_18
REMARK   10  A    between atoms: C_18  and  O_19
REMARK   11  A    between atoms: O_19  and  C_20
REMARK   12  A    between atoms: C_20  and  C_21
REMARK   13  A    between atoms: C_20  and  C_22
REMARK   14  A    between atoms: C_23  and  N_25
REMARK   15  A    between atoms: N_25  and  C_26
REMARK   16  A    between atoms: C_31  and  C_32
REMARK   17  A    between atoms: C_32  and  C_33
REMARK                            x       y       z     vdW  Elec       q    Type
REMARK                         _______ _______ _______ _____ _____    ______ ____
ROOT
ATOM      1  N   UNL     1       0.757  -2.618  -2.270  0.00  0.00    -0.308 N 
ENDROOT
BRANCH   1   2
ATOM      2  C   UNL     1       1.959  -2.852  -2.833  0.00  0.00    +0.137 C 
ATOM      3  S   UNL     1       3.267  -3.390  -1.867  0.00  0.00    -0.018 S 
BRANCH   2   4
ATOM      4  N   UNL     1       2.132  -2.662  -4.156  0.00  0.00    -0.297 N 
ATOM      5  H   UNL     1       1.316  -2.242  -4.762  0.00  0.00    +0.154 HD
BRANCH   4   6
ATOM      6  C   UNL     1       3.349  -2.999  -4.758  0.00  0.00    +0.036 A 
ATOM      7  C   UNL     1       4.546  -2.587  -4.186  0.00  0.00    +0.023 A 
ATOM      8  C   UNL     1       5.746  -2.925  -4.780  0.00  0.00    +0.002 A 
ATOM      9  C   UNL     1       5.756  -3.666  -5.948  0.00  0.00    +0.000 A 
ATOM     10  C   UNL     1       4.566  -4.074  -6.522  0.00  0.00    +0.005 A 
ATOM     11  C   UNL     1       3.363  -3.743  -5.930  0.00  0.00    -0.026 A 
BRANCH  11  12
ATOM     12  C   UNL     1       2.067  -4.187  -6.557  0.00  0.00    +0.033 C 
ATOM     13  C   UNL     1       1.520  -3.068  -7.446  0.00  0.00    +0.009 C 
ENDBRANCH  11  12
ENDBRANCH   4   6
ENDBRANCH   2   4
ENDBRANCH   1   2
BRANCH   1  14
ATOM     14  C   UNL     1       0.570  -2.824  -0.831  0.00  0.00    +0.141 C 
BRANCH  14  23
ATOM     15  N   UNL     1       1.695   2.014   1.914  0.00  0.00    -0.330 N 
ATOM     16  C   UNL     1       2.911   2.001   2.730  0.00  0.00    +0.105 C 
ATOM     17  C   UNL     1       4.088   1.560   1.852  0.00  0.00    +0.024 C 
ATOM     18  C   UNL     1       3.880   0.088   1.489  0.00  0.00    +0.038 C 
ATOM     19  C   UNL     1       2.462  -0.124   1.021  0.00  0.00    -0.026 A 
ATOM     20  C   UNL     1       1.466   0.807   1.255  0.00  0.00    +0.033 A 
ATOM     21  C   UNL     1       0.168   0.547   0.812  0.00  0.00    +0.024 A 
ATOM     22  C   UNL     1      -0.120  -0.622   0.141  0.00  0.00    +0.007 A 
ATOM     23  C   UNL     1       0.881  -1.546  -0.096  0.00  0.00    -0.030 A 
ATOM     24  C   UNL     1       2.166  -1.296   0.343  0.00  0.00    +0.010 A 
BRANCH  15  25
ATOM     25  C   UNL     1       0.528   2.407   2.714  0.00  0.00    +0.105 C 
BRANCH  25  27
ATOM     26  C   UNL     1      -0.359   4.084   4.340  0.00  0.00    +0.005 C 
ATOM     27  C   UNL     1       0.857   3.674   3.507  0.00  0.00    +0.015 C 
ENDBRANCH  25  27
ENDBRANCH  15  25
ENDBRANCH  14  23
ENDBRANCH   1  14
BRANCH   1  28
ATOM     28  C   UNL     1      -0.361  -2.158  -3.096  0.00  0.00    +0.109 C 
BRANCH  28  29
ATOM     29  C   UNL     1      -0.369  -0.628  -3.138  0.00  0.00    +0.047 C 
BRANCH  29  30
ATOM     30  C   UNL     1      -1.538  -0.148  -4.001  0.00  0.00    +0.161 C 
BRANCH  30  31
ATOM     31  O   UNL     1      -1.545   1.281  -4.040  0.00  0.00    -0.377 OA
BRANCH  31  32
ATOM     32  C   UNL     1      -2.603   1.835  -4.824  0.00  0.00    +0.112 C 
ATOM     33  C   UNL     1      -3.830   2.061  -3.938  0.00  0.00    +0.037 C 
ATOM     34  C   UNL     1      -2.151   3.171  -5.418  0.00  0.00    +0.037 C 
ENDBRANCH  31  32
ENDBRANCH  30  31
ENDBRANCH  29  30
ENDBRANCH  28  29
ENDBRANCH   1  28
TORSDOF 13
