REMARK  Name = ZINC59482246
REMARK  6 active torsions:
REMARK  status: ('A' for Active; 'I' for Inactive)
REMARK    1  A    between atoms: C_3  and  O_19
REMARK    2  A    between atoms: C_6  and  C_7
REMARK    3  A    between atoms: C_11  and  C_16
REMARK    4  A    between atoms: O_19  and  C_20
REMARK    5  A    between atoms: C_23  and  C_26
REMARK    6  A    between atoms: C_31  and  C_36
REMARK                            x       y       z     vdW  Elec       q    Type
REMARK                         _______ _______ _______ _____ _____    ______ ____
ROOT
ATOM      1  O   UNL     1       3.546   2.114  -0.021  0.00  0.00    -0.456 OA
ENDROOT
BRANCH   1   4
ATOM      2  C   UNL     1       0.811   0.059   1.209  0.00  0.00    +0.015 A 
ATOM      3  C   UNL     1       1.994   0.765   1.173  0.00  0.00    +0.047 A 
ATOM      4  C   UNL     1       2.380   1.419   0.010  0.00  0.00    +0.128 A 
ATOM      5  C   UNL     1       1.575   1.365  -1.121  0.00  0.00    +0.047 A 
ATOM      6  C   UNL     1       0.391   0.661  -1.093  0.00  0.00    +0.015 A 
ATOM      7  C   UNL     1      -0.000   0.002   0.074  0.00  0.00    +0.018 A 
BRANCH   7   8
ATOM      8  C   UNL     1      -1.270  -0.754   0.108  0.00  0.00    +0.139 A 
ATOM      9  N   UNL     1      -1.733  -1.402   1.148  0.00  0.00    -0.228 NA
ATOM     10  C   UNL     1      -2.918  -1.981   0.831  0.00  0.00    +0.090 A 
ATOM     11  C   UNL     1      -3.820  -2.768   1.547  0.00  0.00    +0.045 A 
ATOM     12  C   UNL     1      -4.980  -3.222   0.923  0.00  0.00    +0.065 A 
ATOM     13  C   UNL     1      -5.237  -2.889  -0.415  0.00  0.00    +0.017 A 
ATOM     14  C   UNL     1      -4.357  -2.119  -1.118  0.00  0.00    +0.028 A 
ATOM     15  C   UNL     1      -3.194  -1.656  -0.511  0.00  0.00    +0.067 A 
ATOM     16  N   UNL     1      -2.141  -0.878  -0.942  0.00  0.00    -0.338 N 
ATOM     17  H   UNL     1      -2.036  -0.491  -1.825  0.00  0.00    +0.167 HD
BRANCH  12  18
ATOM     18  C   UNL     1      -5.939  -4.054   1.670  0.00  0.00    +0.387 C 
ATOM     19  O   UNL     1      -5.716  -4.346   2.837  0.00  0.00    -0.241 OA
ATOM     20  O   UNL     1      -6.958  -4.453   1.124  0.00  0.00    -0.241 OA
ENDBRANCH  12  18
ENDBRANCH   7   8
ENDBRANCH   1   4
BRANCH   1  21
ATOM     21  C   UNL     1       4.707   1.415   0.068  0.00  0.00    +0.128 A 
ATOM     22  C   UNL     1       5.916   2.091   0.174  0.00  0.00    +0.047 A 
ATOM     23  C   UNL     1       7.096   1.386   0.265  0.00  0.00    +0.015 A 
ATOM     24  C   UNL     1       7.075  -0.011   0.250  0.00  0.00    +0.018 A 
ATOM     25  C   UNL     1       5.858  -0.687   0.143  0.00  0.00    +0.015 A 
ATOM     26  C   UNL     1       4.682   0.026   0.059  0.00  0.00    +0.047 A 
BRANCH  24  27
ATOM     27  C   UNL     1       8.338  -0.771   0.346  0.00  0.00    +0.139 A 
ATOM     28  N   UNL     1       8.438  -2.135   0.336  0.00  0.00    -0.338 N 
ATOM     29  H   UNL     1       7.705  -2.766   0.266  0.00  0.00    +0.167 HD
ATOM     30  C   UNL     1       9.782  -2.443   0.446  0.00  0.00    +0.067 A 
ATOM     31  C   UNL     1      10.492  -3.629   0.489  0.00  0.00    +0.043 A 
ATOM     32  C   UNL     1      11.883  -3.597   0.606  0.00  0.00    +0.065 A 
ATOM     33  C   UNL     1      12.554  -2.366   0.680  0.00  0.00    +0.017 A 
ATOM     34  C   UNL     1      11.860  -1.197   0.638  0.00  0.00    +0.031 A 
ATOM     35  C   UNL     1      10.463  -1.212   0.519  0.00  0.00    +0.089 A 
ATOM     36  N   UNL     1       9.534  -0.239   0.449  0.00  0.00    -0.228 NA
BRANCH  32  37
ATOM     37  C   UNL     1      12.646  -4.854   0.653  0.00  0.00    +0.387 C 
ATOM     38  O   UNL     1      12.062  -5.927   0.589  0.00  0.00    -0.241 OA
ATOM     39  O   UNL     1      13.865  -4.827   0.756  0.00  0.00    -0.241 OA
ENDBRANCH  32  37
ENDBRANCH  24  27
ENDBRANCH   1  21
TORSDOF 6
