REMARK  Name = ZINC45840568
REMARK  8 active torsions:
REMARK  status: ('A' for Active; 'I' for Inactive)
REMARK    1  A    between atoms: C_1  and  C_2
REMARK    2  A    between atoms: C_2  and  C_4
REMARK    3  A    between atoms: C_2  and  N_19
REMARK    4  A    between atoms: N_9  and  C_12
REMARK    5  A    between atoms: N_19  and  C_20
REMARK    6  A    between atoms: N_19  and  C_21
REMARK    7  A    between atoms: C_21  and  C_22
REMARK    8  A    between atoms: N_24  and  C_25
REMARK                            x       y       z     vdW  Elec       q    Type
REMARK                         _______ _______ _______ _____ _____    ______ ____
ROOT
ATOM      1  C   UNL     1       0.124   1.547   0.066  0.00  0.00    -0.004 C 
ATOM      2  C   UNL     1      -0.021   0.025   0.126  0.00  0.00    +0.017 C 
ENDROOT
BRANCH   2   3
ATOM      3  C   UNL     1       0.195  -0.444   1.542  0.00  0.00    +0.202 C 
ATOM      4  O   UNL     1      -0.757  -0.684   2.253  0.00  0.00    -0.277 OA
ATOM      5  N   UNL     1       1.447  -0.598   2.017  0.00  0.00    -0.300 N 
ATOM      6  C   UNL     1       2.609  -0.407   1.138  0.00  0.00    +0.126 C 
ATOM      7  C   UNL     1       3.534   0.640   1.770  0.00  0.00    +0.124 C 
ATOM      8  N   UNL     1       3.761   0.280   3.176  0.00  0.00    -0.327 N 
ATOM      9  C   UNL     1       2.599   0.089   4.055  0.00  0.00    +0.124 C 
ATOM     10  C   UNL     1       1.674  -0.953   3.425  0.00  0.00    +0.126 C 
BRANCH   8  11
ATOM     11  C   UNL     1       5.060   0.120   3.669  0.00  0.00    +0.030 A 
ATOM     12  C   UNL     1       5.261  -0.339   4.964  0.00  0.00    +0.026 A 
ATOM     13  C   UNL     1       6.544  -0.496   5.449  0.00  0.00    +0.040 A 
ATOM     14  C   UNL     1       7.631  -0.196   4.645  0.00  0.00    +0.124 A 
ATOM     15  C   UNL     1       7.433   0.262   3.353  0.00  0.00    +0.040 A 
ATOM     16  C   UNL     1       6.151   0.416   2.863  0.00  0.00    +0.026 A 
ATOM     17  F   UNL     1       8.886  -0.350   5.122  0.00  0.00    -0.205 F 
ENDBRANCH   8  11
ENDBRANCH   2   3
BRANCH   2  18
ATOM     18  N   UNL     1      -1.369  -0.356  -0.316  0.00  0.00    +0.391 N 
ATOM     19  C   UNL     1      -1.494  -1.819  -0.299  0.00  0.00    -0.094 C 
ATOM     20  H   UNL     1      -2.054   0.048   0.306  0.00  0.00    -0.080 HD
BRANCH  18  21
ATOM     21  C   UNL     1      -1.595   0.139  -1.680  0.00  0.00    +0.020 C 
BRANCH  21  22
ATOM     22  C   UNL     1      -3.018  -0.144  -2.088  0.00  0.00    +0.201 C 
ATOM     23  O   UNL     1      -3.770  -0.703  -1.317  0.00  0.00    -0.278 OA
ATOM     24  N   UNL     1      -3.456   0.224  -3.308  0.00  0.00    -0.287 N 
ATOM     25  H   UNL     1      -2.837   0.606  -3.950  0.00  0.00    +0.155 HD
BRANCH  24  26
ATOM     26  C   UNL     1      -4.803   0.055  -3.650  0.00  0.00    +0.035 A 
ATOM     27  C   UNL     1      -5.155  -0.260  -4.956  0.00  0.00    +0.025 A 
ATOM     28  C   UNL     1      -6.484  -0.427  -5.291  0.00  0.00    +0.023 A 
ATOM     29  C   UNL     1      -7.466  -0.282  -4.326  0.00  0.00    +0.059 A 
ATOM     30  C   UNL     1      -7.118   0.032  -3.023  0.00  0.00    +0.061 A 
ATOM     31  C   UNL     1      -5.788   0.195  -2.682  0.00  0.00    +0.044 A 
ATOM     32 CL   UNL     1      -8.352   0.215  -1.816  0.00  0.00    -0.082 Cl
ATOM     33 CL   UNL     1      -9.136  -0.492  -4.750  0.00  0.00    -0.082 Cl
ENDBRANCH  24  26
ENDBRANCH  21  22
ENDBRANCH  18  21
ENDBRANCH   2  18
TORSDOF 6
