REMARK  Name = ZINC20927286
REMARK  9 active torsions:
REMARK  status: ('A' for Active; 'I' for Inactive)
REMARK    1  A    between atoms: C_1  and  C_2
REMARK    2  A    between atoms: N_4  and  C_5
REMARK    3  A    between atoms: C_8  and  C_11
REMARK    4  A    between atoms: N_12  and  N_13
REMARK    5  A    between atoms: N_13  and  C_14
REMARK    6  A    between atoms: C_17  and  N_31
REMARK    7  A    between atoms: C_19  and  S_20
REMARK    8  A    between atoms: S_20  and  N_23
REMARK    9  A    between atoms: N_23  and  C_24
REMARK                            x       y       z     vdW  Elec       q    Type
REMARK                         _______ _______ _______ _____ _____    ______ ____
ROOT
ATOM      1  C   UNL     1       1.893   3.435   0.012  0.00  0.00    +0.075 A 
ATOM      2  C   UNL     1       0.595   3.910  -0.129  0.00  0.00    +0.029 A 
ATOM      3  C   UNL     1       0.369   5.263  -0.283  0.00  0.00    +0.035 A 
ATOM      4  C   UNL     1       1.434   6.146  -0.297  0.00  0.00    +0.128 A 
ATOM      5  C   UNL     1       2.728   5.677  -0.157  0.00  0.00    +0.063 A 
ATOM      6  C   UNL     1       2.960   4.326   0.003  0.00  0.00    +0.135 A 
ENDROOT
BRANCH   6   7
ATOM      7  S   UNL     1       4.608   3.730   0.190  0.00  0.00    +0.093 S 
ATOM      8  O   UNL     1       4.762   2.664  -0.737  0.00  0.00    -0.148 OA
ATOM      9  O   UNL     1       5.455   4.871   0.187  0.00  0.00    -0.148 OA
BRANCH   7  10
ATOM     10  N   UNL     1       4.719   3.063   1.701  0.00  0.00    -0.098 NA
BRANCH  10  11
ATOM     11  C   UNL     1       4.495   3.852   2.832  0.00  0.00    +0.074 A 
ATOM     12  C   UNL     1       5.090   5.103   2.936  0.00  0.00    +0.028 A 
ATOM     13  C   UNL     1       4.862   5.884   4.052  0.00  0.00    +0.022 A 
ATOM     14  C   UNL     1       4.051   5.416   5.072  0.00  0.00    +0.041 A 
ATOM     15  C   UNL     1       3.462   4.168   4.974  0.00  0.00    +0.022 A 
ATOM     16  C   UNL     1       3.682   3.385   3.857  0.00  0.00    +0.028 A 
ATOM     17 CL   UNL     1       3.773   6.397   6.477  0.00  0.00    -0.084 Cl
ENDBRANCH  10  11
ENDBRANCH   7  10
ENDBRANCH   6   7
BRANCH   4  18
ATOM     18  N   UNL     1       1.188   7.597  -0.463  0.00  0.00    +0.056 N 
ATOM     19  O   UNL     1       0.050   8.012  -0.587  0.00  0.00    -0.126 OA
ATOM     20  O   UNL     1       2.125   8.376  -0.475  0.00  0.00    -0.126 OA
ENDBRANCH   4  18
BRANCH   1  21
ATOM     21  N   UNL     1       2.125   2.068   0.168  0.00  0.00    -0.236 N 
ATOM     22  H   UNL     1       3.156   1.685   0.197  0.00  0.00    +0.174 HD
BRANCH  21  24
ATOM     23  C   UNL     1       1.256  -0.097   0.334  0.00  0.00    +0.138 C 
ATOM     24  N   UNL     1       1.045   1.184   0.287  0.00  0.00    -0.190 NA
BRANCH  23  28
ATOM     25  C   UNL     1      -2.017  -2.777   0.695  0.00  0.00    +0.033 A 
ATOM     26  C   UNL     1      -0.720  -3.272   0.628  0.00  0.00    +0.024 A 
ATOM     27  C   UNL     1       0.345  -2.405   0.511  0.00  0.00    +0.011 A 
ATOM     28  C   UNL     1       0.120  -1.027   0.460  0.00  0.00    -0.005 A 
ATOM     29  C   UNL     1      -1.185  -0.533   0.533  0.00  0.00    +0.011 A 
ATOM     30  C   UNL     1      -2.245  -1.406   0.645  0.00  0.00    +0.024 A 
BRANCH  25  34
ATOM     31  C   UNL     1      -4.081  -5.803   1.555  0.00  0.00    +0.109 C 
ATOM     32  C   UNL     1      -2.959  -4.797   1.523  0.00  0.00    +0.214 C 
ATOM     33  O   UNL     1      -1.935  -5.011   2.136  0.00  0.00    -0.276 OA
ATOM     34  N   UNL     1      -3.095  -3.659   0.813  0.00  0.00    -0.286 N 
ATOM     35  H   UNL     1      -4.053  -3.425   0.327  0.00  0.00    +0.155 HD
ENDBRANCH  25  34
ENDBRANCH  23  28
ENDBRANCH  21  24
ENDBRANCH   1  21
TORSDOF 8
