REMARK  Name = ZINC41511524
REMARK  6 active torsions:
REMARK  status: ('A' for Active; 'I' for Inactive)
REMARK    1  A    between atoms: C_1  and  C_2
REMARK    2  A    between atoms: C_4  and  O_33
REMARK    3  A    between atoms: C_5  and  C_24
REMARK    4  A    between atoms: C_11  and  C_12
REMARK    5  A    between atoms: C_24  and  N_25
REMARK    6  A    between atoms: C_30  and  C_32
REMARK                            x       y       z     vdW  Elec       q    Type
REMARK                         _______ _______ _______ _____ _____    ______ ____
ROOT
ATOM      1  C   UNL     1      -0.510   1.562   0.086  0.00  0.00    +0.045 C 
ATOM      2  C   UNL     1      -0.539   0.056   0.062  0.00  0.00    -0.033 A 
ATOM      3  C   UNL     1      -0.706  -0.607  -1.121  0.00  0.00    +0.050 A 
ATOM      4  C   UNL     1      -0.732  -1.999  -1.145  0.00  0.00    +0.122 A 
ATOM      5  C   UNL     1      -0.590  -2.727   0.025  0.00  0.00    +0.020 A 
ATOM      6  C   UNL     1      -0.419  -2.069   1.237  0.00  0.00    +0.145 A 
ATOM      7  C   UNL     1      -0.389  -0.665   1.248  0.00  0.00    +0.071 A 
ATOM      8  C   UNL     1      -0.191  -0.265   2.653  0.00  0.00    +0.232 C 
ATOM      9  O   UNL     1      -0.111   0.866   3.102  0.00  0.00    -0.283 OA
ATOM     10  C   UNL     1      -0.112  -1.534   3.390  0.00  0.00    +0.176 C 
ATOM     11  C   UNL     1       0.068  -1.674   4.729  0.00  0.00    +0.061 C 
ATOM     12  O   UNL     1      -0.261  -2.537   2.493  0.00  0.00    -0.451 OA
ENDROOT
BRANCH  11  13
ATOM     13  C   UNL     1      -0.019  -3.002   5.345  0.00  0.00    +0.022 A 
ATOM     14  C   UNL     1      -0.620  -4.061   4.655  0.00  0.00    +0.027 A 
ATOM     15  C   UNL     1      -0.699  -5.306   5.242  0.00  0.00    +0.019 A 
ATOM     16  C   UNL     1      -0.188  -5.512   6.514  0.00  0.00    +0.024 A 
ATOM     17  C   UNL     1       0.409  -4.476   7.208  0.00  0.00    +0.022 A 
ATOM     18  C   UNL     1       0.506  -3.221   6.630  0.00  0.00    +0.136 A 
ATOM     19  O   UNL     1       1.104  -2.199   7.294  0.00  0.00    -0.465 OA
ATOM     20  C   UNL     1       1.291  -2.363   8.703  0.00  0.00    +0.395 C 
ATOM     21  O   UNL     1       1.852  -3.659   8.941  0.00  0.00    -0.339 OA
ATOM     22  C   UNL     1       0.956  -4.723   8.591  0.00  0.00    +0.202 C 
ATOM     23 BR   UNL     1      -1.510  -6.737   4.309  0.00  0.00    -0.050 Br
ENDBRANCH  11  13
BRANCH   4  24
ATOM     24  O   UNL     1      -0.899  -2.648  -2.325  0.00  0.00    -0.506 OA
ATOM     25  H   UNL     1      -0.072  -2.851  -2.783  0.00  0.00    +0.292 HD
ENDBRANCH   4  24
BRANCH   5  26
ATOM     26  C   UNL     1      -0.622  -4.233  -0.016  0.00  0.00    -0.035 C 
BRANCH  26  27
ATOM     27  N   UNL     1       0.741  -4.746  -0.211  0.00  0.00    +0.384 N 
ATOM     28  C   UNL     1       1.238  -4.323  -1.526  0.00  0.00    -0.078 C 
ATOM     29  C   UNL     1       2.686  -4.786  -1.701  0.00  0.00    -0.019 C 
ATOM     30  C   UNL     1       2.745  -6.313  -1.598  0.00  0.00    -0.003 C 
ATOM     31  C   UNL     1       2.155  -6.747  -0.253  0.00  0.00    -0.016 C 
ATOM     32  C   UNL     1       0.727  -6.212  -0.131  0.00  0.00    -0.071 C 
ATOM     33  C   UNL     1       0.134  -6.643   1.211  0.00  0.00    -0.013 C 
ATOM     34  H   UNL     1       1.345  -4.377   0.509  0.00  0.00    -0.081 HD
ENDBRANCH  26  27
ENDBRANCH   5  26
TORSDOF 4
