REMARK  Name = ZINC34749485
REMARK  8 active torsions:
REMARK  status: ('A' for Active; 'I' for Inactive)
REMARK    1  A    between atoms: C_1  and  C_2
REMARK    2  A    between atoms: C_2  and  C_3
REMARK    3  A    between atoms: C_4  and  C_32
REMARK    4  A    between atoms: N_10  and  C_30
REMARK    5  A    between atoms: N_16  and  C_19
REMARK    6  A    between atoms: C_19  and  C_20
REMARK    7  A    between atoms: N_22  and  C_23
REMARK    8  A    between atoms: C_30  and  C_31
REMARK                            x       y       z     vdW  Elec       q    Type
REMARK                         _______ _______ _______ _____ _____    ______ ____
ROOT
ATOM      1  C   UNL     1      -1.266  -0.286  -0.128  0.00  0.00    -0.023 A 
ATOM      2  C   UNL     1      -1.381   0.998   0.242  0.00  0.00    -0.007 A 
ATOM      3  S   UNL     1      -2.599   1.647  -0.887  0.00  0.00    -0.073 S 
ATOM      4  C   UNL     1      -2.917   0.174  -1.824  0.00  0.00    +0.117 A 
ATOM      5  C   UNL     1      -2.064  -0.779  -1.237  0.00  0.00    +0.076 A 
ATOM      6  C   UNL     1      -2.108  -2.090  -1.809  0.00  0.00    +0.264 A 
ATOM      7  O   UNL     1      -1.408  -2.982  -1.363  0.00  0.00    -0.267 OA
ATOM      8  N   UNL     1      -2.934  -2.325  -2.845  0.00  0.00    -0.281 N 
ATOM      9  C   UNL     1      -3.725  -1.339  -3.358  0.00  0.00    +0.202 A 
ATOM     10  N   UNL     1      -3.712  -0.126  -2.845  0.00  0.00    -0.208 NA
ATOM     11  N   UNL     1      -4.553  -1.618  -4.416  0.00  0.00    -0.304 N 
ATOM     12  C   UNL     1      -4.061  -1.550  -5.801  0.00  0.00    +0.089 C 
ATOM     13  C   UNL     1      -5.032  -0.694  -6.620  0.00  0.00    -0.059 C 
ATOM     14  N   UNL     1      -6.391  -1.233  -6.486  0.00  0.00    +0.387 N 
ATOM     15  C   UNL     1      -6.841  -1.116  -5.093  0.00  0.00    -0.059 C 
ATOM     16  C   UNL     1      -5.958  -1.998  -4.197  0.00  0.00    +0.089 C 
ATOM     17  C   UNL     1      -0.656   1.719   1.349  0.00  0.00    +0.052 C 
ATOM     18  H   UNL     1      -6.395  -2.204  -6.759  0.00  0.00    -0.081 HD
ENDROOT
BRANCH   1  20
ATOM     19  C   UNL     1       1.058  -1.150  -0.081  0.00  0.00    +0.009 C 
ATOM     20  C   UNL     1      -0.314  -1.205   0.594  0.00  0.00    +0.033 C 
ENDBRANCH   1  20
BRANCH   8  21
ATOM     21  C   UNL     1      -2.983  -3.665  -3.435  0.00  0.00    +0.125 C 
ATOM     22  C   UNL     1      -3.960  -4.535  -2.642  0.00  0.00    +0.027 C 
ENDBRANCH   8  21
BRANCH  14  23
ATOM     23  C   UNL     1      -7.303  -0.480  -7.358  0.00  0.00    +0.019 C 
BRANCH  23  24
ATOM     24  C   UNL     1      -8.672  -1.108  -7.315  0.00  0.00    +0.201 C 
ATOM     25  O   UNL     1      -8.869  -2.087  -6.626  0.00  0.00    -0.278 OA
ATOM     26  N   UNL     1      -9.678  -0.582  -8.042  0.00  0.00    -0.287 N 
ATOM     27  H   UNL     1      -9.505   0.159  -8.644  0.00  0.00    +0.155 HD
BRANCH  26  28
ATOM     28  C   UNL     1     -10.971  -1.106  -7.929  0.00  0.00    +0.033 A 
ATOM     29  C   UNL     1     -12.072  -0.265  -8.027  0.00  0.00    +0.024 A 
ATOM     30  C   UNL     1     -13.347  -0.784  -7.916  0.00  0.00    +0.017 A 
ATOM     31  C   UNL     1     -13.528  -2.140  -7.707  0.00  0.00    +0.018 A 
ATOM     32  C   UNL     1     -12.432  -2.979  -7.608  0.00  0.00    +0.017 A 
ATOM     33  C   UNL     1     -11.155  -2.467  -7.724  0.00  0.00    +0.024 A 
ATOM     34 BR   UNL     1     -15.275  -2.847  -7.554  0.00  0.00    -0.050 Br
ENDBRANCH  26  28
ENDBRANCH  23  24
ENDBRANCH  14  23
TORSDOF 5
