REMARK  Name = ZINC27501308
REMARK  10 active torsions:
REMARK  status: ('A' for Active; 'I' for Inactive)
REMARK    1  A    between atoms: C_1  and  C_2
REMARK    2  A    between atoms: C_3  and  C_8
REMARK    3  A    between atoms: C_4  and  C_7
REMARK    4  A    between atoms: C_8  and  O_9
REMARK    5  A    between atoms: O_9  and  C_10
REMARK    6  A    between atoms: C_15  and  C_16
REMARK    7  A    between atoms: N_18  and  C_19
REMARK    8  A    between atoms: C_19  and  C_20
REMARK    9  A    between atoms: C_20  and  C_22
REMARK   10  A    between atoms: C_20  and  N_27
REMARK                            x       y       z     vdW  Elec       q    Type
REMARK                         _______ _______ _______ _____ _____    ______ ____
ROOT
ATOM      1  C   UNL     1      -0.002   4.251   0.024  0.00  0.00    +0.248 C 
ATOM      2  O   UNL     1      -1.079   3.691   0.100  0.00  0.00    -0.270 OA
ATOM      3  N   UNL     1       0.057   5.598   0.010  0.00  0.00    -0.312 N 
ATOM      4  H   UNL     1       1.031   6.104  -0.058  0.00  0.00    +0.149 HD
ENDROOT
BRANCH   1  10
ATOM      5  C   UNL     1       1.181   2.057  -0.038  0.00  0.00    +0.133 A 
ATOM      6  C   UNL     1       2.355   1.321  -0.104  0.00  0.00    +0.046 A 
ATOM      7  C   UNL     1       3.572   1.965  -0.195  0.00  0.00    +0.004 A 
ATOM      8  C   UNL     1       3.633   3.349  -0.209  0.00  0.00    +0.001 A 
ATOM      9  C   UNL     1       2.478   4.097  -0.138  0.00  0.00    +0.017 A 
ATOM     10  C   UNL     1       1.239   3.457  -0.052  0.00  0.00    +0.078 A 
BRANCH   5  11
ATOM     11  O   UNL     1      -0.016   1.425   0.046  0.00  0.00    -0.486 OA
BRANCH  11  12
ATOM     12  C   UNL     1       0.004  -0.004   0.055  0.00  0.00    +0.269 C 
BRANCH  12  15
ATOM     13  C   UNL     1      -2.021  -0.709  -2.380  0.00  0.00    +0.069 C 
ATOM     14  C   UNL     1      -2.295  -0.835  -0.903  0.00  0.00    +0.087 A 
ATOM     15  C   UNL     1      -1.406  -0.526   0.152  0.00  0.00    +0.054 A 
ATOM     16  C   UNL     1      -2.114  -0.812   1.271  0.00  0.00    +0.141 A 
ATOM     17  O   UNL     1      -3.315  -1.243   0.860  0.00  0.00    -0.359 OA
ATOM     18  N   UNL     1      -3.396  -1.251  -0.347  0.00  0.00    -0.083 NA
ATOM     19  C   UNL     1      -1.645  -0.672   2.696  0.00  0.00    +0.089 C 
ENDBRANCH  12  15
ENDBRANCH  11  12
ENDBRANCH   5  11
ENDBRANCH   1  10
BRANCH   3  20
ATOM     20  C   UNL     1      -1.175   6.386   0.086  0.00  0.00    +0.097 C 
BRANCH  20  21
ATOM     21  C   UNL     1      -0.830   7.876   0.052  0.00  0.00    +0.016 C 
BRANCH  21  22
ATOM     22  N   UNL     1       0.127   8.182   1.124  0.00  0.00    +0.387 N 
ATOM     23  C   UNL     1      -0.406   7.787   2.434  0.00  0.00    -0.078 C 
ATOM     24  C   UNL     1       0.670   7.984   3.504  0.00  0.00    -0.019 C 
ATOM     25  C   UNL     1       1.097   9.454   3.528  0.00  0.00    -0.004 C 
ATOM     26  C   UNL     1       1.603   9.853   2.139  0.00  0.00    -0.019 C 
ATOM     27  C   UNL     1       0.499   9.602   1.108  0.00  0.00    -0.078 C 
ATOM     28  H   UNL     1       1.039   7.594   0.942  0.00  0.00    -0.081 HD
ENDBRANCH  21  22
BRANCH  21  29
ATOM     29  C   UNL     1      -2.084   8.687   0.253  0.00  0.00    +0.093 A 
ATOM     30  C   UNL     1      -2.719   9.403  -0.693  0.00  0.00    +0.043 A 
ATOM     31  C   UNL     1      -3.840   9.999  -0.072  0.00  0.00    +0.041 A 
ATOM     32  C   UNL     1      -3.824   9.612   1.216  0.00  0.00    +0.195 A 
ATOM     33  O   UNL     1      -2.762   8.813   1.406  0.00  0.00    -0.469 OA
ENDBRANCH  21  29
ENDBRANCH  20  21
ENDBRANCH   3  20
TORSDOF 8
