REMARK  Name = ZINC40591381
REMARK  8 active torsions:
REMARK  status: ('A' for Active; 'I' for Inactive)
REMARK    1  A    between atoms: C_1  and  C_2
REMARK    2  A    between atoms: C_2  and  C_29
REMARK    3  A    between atoms: C_4  and  N_10
REMARK    4  A    between atoms: C_6  and  C_8
REMARK    5  A    between atoms: C_6  and  C_9
REMARK    6  A    between atoms: C_12  and  N_26
REMARK    7  A    between atoms: C_13  and  N_17
REMARK    8  A    between atoms: N_17  and  C_18
REMARK                            x       y       z     vdW  Elec       q    Type
REMARK                         _______ _______ _______ _____ _____    ______ ____
ROOT
ATOM      1  N   UNL     1       2.828  -1.055  -2.437  0.00  0.00    -0.324 N 
ATOM      2  C   UNL     1       3.897  -0.423  -3.055  0.00  0.00    +0.155 A 
ATOM      3  C   UNL     1       4.421  -0.923  -4.244  0.00  0.00    +0.205 A 
ATOM      4  C   UNL     1       5.493  -0.253  -4.824  0.00  0.00    +0.159 A 
ATOM      5  N   UNL     1       5.975   0.836  -4.227  0.00  0.00    -0.218 NA
ATOM      6  C   UNL     1       5.451   1.277  -3.102  0.00  0.00    +0.225 A 
ATOM      7  N   UNL     1       4.432   0.674  -2.523  0.00  0.00    -0.218 NA
ATOM      8  H   UNL     1       2.443  -1.853  -2.831  0.00  0.00    +0.148 HD
ENDROOT
BRANCH   1  12
ATOM      9  C   UNL     1      -0.034   1.075   0.145  0.00  0.00    -0.010 C 
ATOM     10  C   UNL     1       0.234  -0.429   0.260  0.00  0.00    -0.072 C 
ATOM     11  C   UNL     1       0.821  -0.951  -1.047  0.00  0.00    +0.009 C 
ATOM     12  C   UNL     1       2.280  -0.515  -1.187  0.00  0.00    +0.069 C 
ATOM     13  C   UNL     1       3.063  -1.086  -0.005  0.00  0.00    +0.009 C 
ATOM     14  C   UNL     1       2.493  -0.566   1.311  0.00  0.00    -0.072 C 
ATOM     15  N   UNL     1       1.054  -0.732   1.420  0.00  0.00    +0.386 N 
ATOM     16  C   UNL     1       2.902   0.897   1.511  0.00  0.00    -0.010 C 
ATOM     17  C   UNL     1       3.148  -1.380   2.451  0.00  0.00    -0.010 C 
ATOM     18  C   UNL     1      -1.135  -1.120   0.460  0.00  0.00    -0.010 C 
ATOM     19  H   UNL     1       0.724  -0.162   2.204  0.00  0.00    -0.084 HD
ATOM     20  H   UNL     1       0.864  -1.699   1.703  0.00  0.00    -0.084 HD
ENDBRANCH   1  12
BRANCH   3  21
ATOM     21  N   UNL     1       3.853  -2.137  -4.873  0.00  0.00    +0.063 N 
ATOM     22  O   UNL     1       2.954  -2.038  -5.675  0.00  0.00    -0.126 OA
ATOM     23  O   UNL     1       4.289  -3.227  -4.585  0.00  0.00    -0.126 OA
ENDBRANCH   3  21
BRANCH   4  24
ATOM     24  N   UNL     1       6.051  -0.711  -6.009  0.00  0.00    -0.297 N 
ATOM     25  H   UNL     1       5.648  -1.458  -6.478  0.00  0.00    +0.154 HD
BRANCH  24  26
ATOM     26  C   UNL     1       7.196  -0.096  -6.526  0.00  0.00    +0.034 A 
ATOM     27  C   UNL     1       7.350   0.046  -7.899  0.00  0.00    +0.025 A 
ATOM     28  C   UNL     1       8.481   0.653  -8.407  0.00  0.00    +0.023 A 
ATOM     29  C   UNL     1       9.462   1.120  -7.550  0.00  0.00    +0.059 A 
ATOM     30  C   UNL     1       9.312   0.979  -6.181  0.00  0.00    +0.061 A 
ATOM     31  C   UNL     1       8.179   0.378  -5.667  0.00  0.00    +0.044 A 
ATOM     32 CL   UNL     1      10.545   1.566  -5.109  0.00  0.00    -0.082 Cl
ATOM     33 CL   UNL     1      10.883   1.882  -8.193  0.00  0.00    -0.082 Cl
ENDBRANCH  24  26
ENDBRANCH   4  24
TORSDOF 4
