REMARK  Name = ZINC59170449
REMARK  9 active torsions:
REMARK  status: ('A' for Active; 'I' for Inactive)
REMARK    1  A    between atoms: C_1  and  C_2
REMARK    2  A    between atoms: C_2  and  O_3
REMARK    3  A    between atoms: O_3  and  C_4
REMARK    4  A    between atoms: N_12  and  C_13
REMARK    5  A    between atoms: C_16  and  S_19
REMARK    6  A    between atoms: S_19  and  N_22
REMARK    7  A    between atoms: C_23  and  C_25
REMARK    8  A    between atoms: N_27  and  C_28
REMARK    9  A    between atoms: C_33  and  C_34
REMARK                            x       y       z     vdW  Elec       q    Type
REMARK                         _______ _______ _______ _____ _____    ______ ____
ROOT
ATOM      1  C   UNL     1       0.773  -2.047  -1.434  0.00  0.00    +0.163 A 
ATOM      2  C   UNL     1      -0.161  -2.903  -0.875  0.00  0.00    +0.049 A 
ATOM      3  C   UNL     1      -0.492  -4.094  -1.503  0.00  0.00    +0.004 A 
ATOM      4  C   UNL     1       0.105  -4.445  -2.693  0.00  0.00    +0.012 A 
ATOM      5  C   UNL     1       1.053  -3.592  -3.272  0.00  0.00    +0.022 A 
ATOM      6  C   UNL     1       1.383  -2.380  -2.639  0.00  0.00    +0.179 A 
ATOM      7  O   UNL     1       2.291  -1.547  -3.206  0.00  0.00    -0.435 OA
ATOM      8  C   UNL     1       3.233  -2.114  -4.002  0.00  0.00    +0.212 A 
ATOM      9  N   UNL     1       4.485  -1.711  -3.963  0.00  0.00    -0.325 N 
ATOM     10  C   UNL     1       2.810  -3.195  -4.914  0.00  0.00    +0.098 A 
ATOM     11  C   UNL     1       1.708  -3.946  -4.533  0.00  0.00    +0.030 A 
ATOM     12  H   UNL     1       5.167  -2.201  -4.447  0.00  0.00    +0.169 HD
ENDROOT
BRANCH   9  13
ATOM     13  C   UNL     1       4.824  -0.602  -3.238  0.00  0.00    +0.042 A 
ATOM     14  C   UNL     1       4.042   0.554  -3.317  0.00  0.00    +0.027 A 
ATOM     15  C   UNL     1       4.390   1.669  -2.584  0.00  0.00    +0.030 A 
ATOM     16  C   UNL     1       5.510   1.645  -1.772  0.00  0.00    +0.105 A 
ATOM     17  C   UNL     1       6.289   0.504  -1.689  0.00  0.00    +0.030 A 
ATOM     18  C   UNL     1       5.950  -0.620  -2.412  0.00  0.00    +0.027 A 
BRANCH  16  19
ATOM     19  S   UNL     1       5.947   3.074  -0.839  0.00  0.00    +0.056 S 
ATOM     20  O   UNL     1       7.341   2.979  -0.579  0.00  0.00    -0.153 OA
ATOM     21  O   UNL     1       5.371   4.188  -1.508  0.00  0.00    -0.153 OA
BRANCH  19  22
ATOM     22  N   UNL     1       5.183   2.955   0.626  0.00  0.00    -0.204 NA
ATOM     23  H   UNL     1       5.585   3.350   1.416  0.00  0.00    +0.144 HD
ATOM     24  H   UNL     1       4.335   2.490   0.694  0.00  0.00    +0.144 HD
ENDBRANCH  19  22
ENDBRANCH  16  19
ENDBRANCH   9  13
BRANCH  10  25
ATOM     25  C   UNL     1       3.533  -3.471  -6.167  0.00  0.00    +0.253 C 
ATOM     26  O   UNL     1       3.229  -4.434  -6.845  0.00  0.00    -0.270 OA
ATOM     27  N   UNL     1       4.532  -2.657  -6.561  0.00  0.00    -0.281 N 
ATOM     28  H   UNL     1       4.806  -1.917  -5.997  0.00  0.00    +0.155 HD
BRANCH  27  29
ATOM     29  C   UNL     1       5.173  -2.878  -7.785  0.00  0.00    +0.037 A 
ATOM     30  C   UNL     1       5.112  -4.130  -8.385  0.00  0.00    +0.023 A 
ATOM     31  C   UNL     1       5.746  -4.345  -9.593  0.00  0.00    +0.002 A 
ATOM     32  C   UNL     1       6.440  -3.317 -10.205  0.00  0.00    +0.000 A 
ATOM     33  C   UNL     1       6.502  -2.071  -9.610  0.00  0.00    +0.005 A 
ATOM     34  C   UNL     1       5.866  -1.847  -8.404  0.00  0.00    -0.029 A 
ATOM     35  C   UNL     1       5.929  -0.486  -7.759  0.00  0.00    +0.045 C 
ENDBRANCH  27  29
ENDBRANCH  10  25
BRANCH   1  36
ATOM     36  O   UNL     1       1.089  -0.881  -0.809  0.00  0.00    -0.489 OA
BRANCH  36  38
ATOM     37  C   UNL     1       0.904   0.739   0.975  0.00  0.00    +0.048 C 
ATOM     38  C   UNL     1       0.423  -0.605   0.425  0.00  0.00    +0.226 C 
ENDBRANCH  36  38
ENDBRANCH   1  36
TORSDOF 7
