REMARK  Name = ZINC04279889
REMARK  1 active torsions:
REMARK  status: ('A' for Active; 'I' for Inactive)
REMARK    1  A    between atoms: C_4  and  C_7
REMARK                            x       y       z     vdW  Elec       q    Type
REMARK                         _______ _______ _______ _____ _____    ______ ____
ROOT
ATOM      1  C   UNL     1      -3.640   6.114  -0.263  0.00  0.00    +0.097 C 
ATOM      2  C   UNL     1      -2.366   5.298  -0.373  0.00  0.00    +0.128 C 
ATOM      3  C   UNL     1      -2.526   3.876   0.148  0.00  0.00    +0.077 C 
ATOM      4  C   UNL     1      -1.159   3.229   0.214  0.00  0.00    +0.004 A 
ATOM      5  C   UNL     1      -1.083   1.846   0.218  0.00  0.00    +0.008 A 
ATOM      6  C   UNL     1       0.144   1.216   0.294  0.00  0.00    +0.001 A 
ATOM      7  C   UNL     1       1.302   1.968   0.358  0.00  0.00    +0.004 A 
ATOM      8  C   UNL     1       1.232   3.346   0.345  0.00  0.00    +0.046 A 
ATOM      9  C   UNL     1      -0.003   3.985   0.269  0.00  0.00    +0.135 A 
ATOM     10  O   UNL     1      -0.017   5.345   0.235  0.00  0.00    -0.425 OA
ATOM     11  C   UNL     1      -1.222   5.949   0.367  0.00  0.00    +0.318 C 
ATOM     12  O   UNL     1      -1.375   6.959   1.011  0.00  0.00    -0.250 OA
ATOM     13  C   UNL     1      -3.133   3.846   1.511  0.00  0.00    +0.033 A 
ATOM     14  C   UNL     1      -3.758   4.818   2.205  0.00  0.00    +0.088 A 
ATOM     15  N   UNL     1      -4.212   4.478   3.457  0.00  0.00    -0.311 N 
ATOM     16  H   UNL     1      -4.665   5.139   4.003  0.00  0.00    +0.170 HD
ATOM     17  C   UNL     1      -4.028   3.229   3.930  0.00  0.00    +0.289 A 
ATOM     18  O   UNL     1      -4.364   2.761   5.003  0.00  0.00    -0.260 OA
ATOM     19  S   UNL     1      -3.192   2.458   2.620  0.00  0.00    -0.030 S 
ATOM     20  S   UNL     1      -3.963   6.440   1.497  0.00  0.00    -0.098 S 
ENDROOT
BRANCH   1  24
ATOM     21  C   UNL     1      -3.168   9.818  -2.338  0.00  0.00    +0.000 A 
ATOM     22  C   UNL     1      -3.666   8.713  -3.002  0.00  0.00    +0.000 A 
ATOM     23  C   UNL     1      -3.819   7.514  -2.330  0.00  0.00    +0.005 A 
ATOM     24  C   UNL     1      -3.474   7.420  -0.995  0.00  0.00    -0.033 A 
ATOM     25  C   UNL     1      -2.981   8.527  -0.330  0.00  0.00    +0.005 A 
ATOM     26  C   UNL     1      -2.823   9.725  -1.002  0.00  0.00    +0.000 A 
ENDBRANCH   1  24
TORSDOF 1
