REMARK  Name = ZINC39895728
REMARK  4 active torsions:
REMARK  status: ('A' for Active; 'I' for Inactive)
REMARK    1  A    between atoms: C_6  and  C_7
REMARK    2  A    between atoms: C_10  and  C_16
REMARK    3  A    between atoms: C_18  and  C_29
REMARK    4  A    between atoms: C_19  and  N_28
REMARK                            x       y       z     vdW  Elec       q    Type
REMARK                         _______ _______ _______ _____ _____    ______ ____
ROOT
ATOM      1  C   UNL     1      -1.262  -0.761   0.011  0.00  0.00    +0.175 A 
ATOM      2  C   UNL     1      -1.391  -2.145  -0.088  0.00  0.00    +0.049 A 
ATOM      3  C   UNL     1      -0.487  -3.216  -0.218  0.00  0.00    +0.018 A 
ATOM      4  C   UNL     1      -0.960  -4.487  -0.291  0.00  0.00    -0.034 A 
ATOM      5  C   UNL     1      -2.327  -4.766  -0.240  0.00  0.00    +0.007 A 
ATOM      6  C   UNL     1      -3.253  -3.783  -0.116  0.00  0.00    +0.032 A 
ATOM      7  C   UNL     1      -2.833  -2.436  -0.034  0.00  0.00    +0.114 A 
ATOM      8  N   UNL     1      -3.454  -1.281   0.086  0.00  0.00    -0.078 NA
ATOM      9  O   UNL     1      -2.494  -0.243   0.120  0.00  0.00    -0.353 OA
ENDROOT
BRANCH   4  10
ATOM     10  C   UNL     1       0.017  -5.626  -0.430  0.00  0.00    +0.101 C 
ATOM     11  C   UNL     1      -0.129  -6.553   0.744  0.00  0.00    +0.098 C 
ATOM     12  C   UNL     1      -0.801  -7.724   0.617  0.00  0.00    +0.198 C 
ATOM     13  O   UNL     1      -1.354  -8.083  -0.554  0.00  0.00    -0.445 OA
ATOM     14  C   UNL     1      -0.923  -7.535  -1.706  0.00  0.00    +0.115 C 
ATOM     15  C   UNL     1      -0.260  -6.368  -1.715  0.00  0.00    +0.046 C 
ATOM     16  C   UNL     1       0.198  -5.801  -2.920  0.00  0.00    +0.163 C 
ATOM     17  O   UNL     1       0.782  -4.737  -2.894  0.00  0.00    -0.292 OA
ATOM     18  C   UNL     1      -0.024  -6.491  -4.239  0.00  0.00    +0.080 C 
ATOM     19  C   UNL     1      -0.103  -8.003  -4.000  0.00  0.00    +0.016 C 
ATOM     20  C   UNL     1      -1.212  -8.271  -2.994  0.00  0.00    +0.075 C 
BRANCH  12  21
ATOM     21  N   UNL     1      -0.918  -8.556   1.702  0.00  0.00    -0.328 N 
ATOM     22  H   UNL     1      -0.522  -8.305   2.551  0.00  0.00    +0.145 HD
ATOM     23  H   UNL     1      -1.397  -9.395   1.620  0.00  0.00    +0.145 HD
ENDBRANCH  12  21
BRANCH  11  24
ATOM     24  C   UNL     1       0.446  -6.198   2.006  0.00  0.00    +0.101 C 
ATOM     25  N   UNL     1       0.903  -5.915   3.008  0.00  0.00    -0.191 NA
ENDBRANCH  11  24
ENDBRANCH   4  10
BRANCH   1  31
ATOM     26  C   UNL     1       0.984  -0.286  -0.953  0.00  0.00    +0.013 A 
ATOM     27  C   UNL     1       2.164   0.426  -0.955  0.00  0.00    +0.021 A 
ATOM     28  C   UNL     1       2.378   1.421  -0.015  0.00  0.00    +0.041 A 
ATOM     29  C   UNL     1       1.410   1.706   0.934  0.00  0.00    +0.021 A 
ATOM     30  C   UNL     1       0.225   1.000   0.949  0.00  0.00    +0.013 A 
ATOM     31  C   UNL     1       0.002  -0.004   0.002  0.00  0.00    +0.021 A 
ATOM     32 CL   UNL     1       3.867   2.313  -0.025  0.00  0.00    -0.084 Cl
ENDBRANCH   1  31
TORSDOF 4
