REMARK  Name = ZINC08797090
REMARK  7 active torsions:
REMARK  status: ('A' for Active; 'I' for Inactive)
REMARK    1  A    between atoms: C_1  and  C_2
REMARK    2  A    between atoms: N_4  and  C_5
REMARK    3  A    between atoms: N_13  and  C_14
REMARK    4  A    between atoms: C_14  and  C_16
REMARK    5  A    between atoms: C_19  and  S_22
REMARK    6  A    between atoms: S_22  and  N_25
REMARK    7  A    between atoms: N_32  and  C_33
REMARK                            x       y       z     vdW  Elec       q    Type
REMARK                         _______ _______ _______ _____ _____    ______ ____
ROOT
ATOM      1  C   UNL     1      -1.941  -8.025  -0.580  0.00  0.00    +0.269 C 
ATOM      2  O   UNL     1      -0.760  -7.734  -0.661  0.00  0.00    -0.268 OA
ENDROOT
BRANCH   1  11
ATOM      3  C   UNL     1      -4.798  -6.691   5.647  0.00  0.00    +0.035 A 
ATOM      4  C   UNL     1      -3.765  -7.620   5.703  0.00  0.00    +0.025 A 
ATOM      5  C   UNL     1      -3.070  -7.979   4.572  0.00  0.00    +0.029 A 
ATOM      6  C   UNL     1      -3.388  -7.416   3.328  0.00  0.00    +0.057 A 
ATOM      7  C   UNL     1      -4.433  -6.482   3.297  0.00  0.00    +0.041 A 
ATOM      8  C   UNL     1      -5.134  -6.124   4.423  0.00  0.00    +0.040 A 
ATOM      9  S   UNL     1      -4.514  -6.023   1.585  0.00  0.00    -0.052 S 
ATOM     10  C   UNL     1      -3.272  -6.991   0.998  0.00  0.00    +0.166 A 
ATOM     11  N   UNL     1      -2.839  -7.090  -0.255  0.00  0.00    -0.152 NA
ATOM     12  N   UNL     1      -2.810  -7.648   2.093  0.00  0.00    -0.324 N 
ATOM     13  C   UNL     1      -1.703  -8.599   1.966  0.00  0.00    +0.151 C 
BRANCH   3  17
ATOM     14  C   UNL     1      -5.574  -5.782   9.218  0.00  0.00    +0.109 C 
ATOM     15  C   UNL     1      -4.848  -6.263   7.988  0.00  0.00    +0.214 C 
ATOM     16  O   UNL     1      -3.681  -6.584   8.059  0.00  0.00    -0.276 OA
ATOM     17  N   UNL     1      -5.496  -6.336   6.808  0.00  0.00    -0.286 N 
ATOM     18  H   UNL     1      -6.446  -6.142   6.764  0.00  0.00    +0.155 HD
ENDBRANCH   3  17
ENDBRANCH   1  11
BRANCH   1  19
ATOM     19  C   UNL     1      -2.381  -9.415  -0.840  0.00  0.00    +0.039 A 
ATOM     20  C   UNL     1      -3.732  -9.750  -0.752  0.00  0.00    +0.015 A 
ATOM     21  C   UNL     1      -4.136 -11.047  -0.996  0.00  0.00    +0.029 A 
ATOM     22  C   UNL     1      -3.203 -12.014  -1.326  0.00  0.00    +0.106 A 
ATOM     23  C   UNL     1      -1.861 -11.688  -1.414  0.00  0.00    +0.029 A 
ATOM     24  C   UNL     1      -1.446 -10.393  -1.179  0.00  0.00    +0.015 A 
BRANCH  22  25
ATOM     25  S   UNL     1      -3.727 -13.668  -1.635  0.00  0.00    +0.061 S 
ATOM     26  O   UNL     1      -2.603 -14.502  -1.390  0.00  0.00    -0.153 OA
ATOM     27  O   UNL     1      -4.963 -13.836  -0.956  0.00  0.00    -0.153 OA
BRANCH  25  28
ATOM     28  N   UNL     1      -4.057 -13.783  -3.254  0.00  0.00    -0.177 NA
ATOM     29  C   UNL     1      -5.396 -13.486  -3.711  0.00  0.00    +0.109 C 
ATOM     30  C   UNL     1      -6.252 -14.776  -3.683  0.00  0.00    +0.017 C 
ATOM     31  C   UNL     1      -5.826 -15.695  -4.750  0.00  0.00    +0.001 C 
ATOM     32  C   UNL     1      -4.390 -16.192  -4.615  0.00  0.00    +0.001 C 
ATOM     33  C   UNL     1      -3.452 -15.186  -5.236  0.00  0.00    +0.017 C 
ATOM     34  C   UNL     1      -2.970 -14.178  -4.171  0.00  0.00    +0.109 C 
ENDBRANCH  25  28
ENDBRANCH  22  25
ENDBRANCH   1  19
TORSDOF 5
