REMARK  Name = ZINC38552803
REMARK  4 active torsions:
REMARK  status: ('A' for Active; 'I' for Inactive)
REMARK    1  A    between atoms: C_1  and  C_2
REMARK    2  A    between atoms: C_4  and  C_29
REMARK    3  A    between atoms: C_6  and  C_8
REMARK    4  A    between atoms: C_19  and  C_22
REMARK                            x       y       z     vdW  Elec       q    Type
REMARK                         _______ _______ _______ _____ _____    ______ ____
ROOT
ATOM      1  C   UNL     1       0.045  -3.039   2.567  0.00  0.00    +0.247 C 
ATOM      2  O   UNL     1      -0.233  -4.222   2.559  0.00  0.00    -0.270 OA
ATOM      3  N   UNL     1       0.143  -2.378   3.738  0.00  0.00    -0.295 N 
ATOM      4  C   UNL     1       0.354  -0.924   3.761  0.00  0.00    +0.127 C 
ATOM      5  C   UNL     1      -0.757  -0.281   4.599  0.00  0.00    +0.126 C 
ATOM      6  N   UNL     1      -0.860  -1.002   5.876  0.00  0.00    -0.307 N 
ATOM      7  C   UNL     1      -1.071  -2.456   5.853  0.00  0.00    +0.126 C 
ATOM      8  C   UNL     1       0.035  -3.098   5.015  0.00  0.00    +0.127 C 
ATOM      9  C   UNL     1      -0.760  -0.329   7.068  0.00  0.00    +0.151 C 
ATOM     10  N   UNL     1      -0.883   0.982   7.119  0.00  0.00    -0.258 N 
ATOM     11  N   UNL     1      -0.798   1.682   8.172  0.00  0.00    -0.176 NA
ATOM     12  C   UNL     1      -0.267   1.388   9.308  0.00  0.00    +0.079 C 
ATOM     13  C   UNL     1       0.418   0.064   9.561  0.00  0.00    +0.134 C 
ATOM     14  S   UNL     1      -0.468  -1.199   8.583  0.00  0.00    -0.085 S 
ATOM     15  H   UNL     1      -1.052   1.447   6.285  0.00  0.00    +0.191 HD
ENDROOT
BRANCH   1  21
ATOM     16  C   UNL     1       2.414   0.504  -0.028  0.00  0.00    +0.044 C 
ATOM     17  C   UNL     1       1.413  -0.620   0.041  0.00  0.00    -0.049 A 
ATOM     18  C   UNL     1       0.706  -0.985  -1.091  0.00  0.00    +0.006 A 
ATOM     19  C   UNL     1      -0.214  -2.016  -1.037  0.00  0.00    -0.049 A 
ATOM     20  C   UNL     1      -0.434  -2.687   0.148  0.00  0.00    +0.016 A 
ATOM     21  C   UNL     1       0.276  -2.324   1.294  0.00  0.00    +0.037 A 
ATOM     22  C   UNL     1       1.207  -1.286   1.231  0.00  0.00    +0.016 A 
ATOM     23  C   UNL     1      -0.980  -2.406  -2.275  0.00  0.00    +0.044 C 
ENDBRANCH   1  21
BRANCH  12  24
ATOM     24  C   UNL     1      -0.328   2.375  10.398  0.00  0.00    -0.001 A 
ATOM     25  C   UNL     1       0.244   2.086  11.641  0.00  0.00    +0.011 A 
ATOM     26  C   UNL     1       0.183   3.016  12.657  0.00  0.00    +0.020 A 
ATOM     27  C   UNL     1      -0.443   4.233  12.450  0.00  0.00    +0.041 A 
ATOM     28  C   UNL     1      -1.013   4.526  11.221  0.00  0.00    +0.020 A 
ATOM     29  C   UNL     1      -0.955   3.608  10.194  0.00  0.00    +0.011 A 
ATOM     30 CL   UNL     1      -0.516   5.398  13.735  0.00  0.00    -0.084 Cl
ENDBRANCH  12  24
TORSDOF 2
