REMARK  Name = ZINC33744313
REMARK  8 active torsions:
REMARK  status: ('A' for Active; 'I' for Inactive)
REMARK    1  A    between atoms: C_1  and  C_2
REMARK    2  A    between atoms: C_2  and  N_3
REMARK    3  A    between atoms: N_6  and  C_9
REMARK    4  A    between atoms: C_12  and  N_15
REMARK    5  A    between atoms: C_16  and  C_18
REMARK    6  A    between atoms: C_18  and  S_19
REMARK    7  A    between atoms: S_19  and  C_20
REMARK    8  A    between atoms: C_22  and  C_25
REMARK                            x       y       z     vdW  Elec       q    Type
REMARK                         _______ _______ _______ _____ _____    ______ ____
ROOT
ATOM      1  N   UNL     1      -0.163  -5.310  -7.841  0.00  0.00    -0.285 N 
ATOM      2  C   UNL     1      -0.147  -4.839  -9.104  0.00  0.00    +0.227 C 
ATOM      3  O   UNL     1       0.208  -3.700  -9.322  0.00  0.00    -0.275 OA
ATOM      4  H   UNL     1      -0.371  -6.242  -7.674  0.00  0.00    +0.155 HD
ENDROOT
BRANCH   1   8
ATOM      5  C   UNL     1       0.685  -2.759  -4.652  0.00  0.00    +0.030 A 
ATOM      6  C   UNL     1       0.008  -2.278  -5.765  0.00  0.00    +0.025 A 
ATOM      7  C   UNL     1      -0.272  -3.122  -6.821  0.00  0.00    +0.025 A 
ATOM      8  C   UNL     1       0.122  -4.453  -6.769  0.00  0.00    +0.034 A 
ATOM      9  C   UNL     1       0.799  -4.934  -5.657  0.00  0.00    +0.025 A 
ATOM     10  C   UNL     1       1.085  -4.088  -4.604  0.00  0.00    +0.025 A 
BRANCH   5  14
ATOM     11  N   UNL     1       0.636  -0.464  -1.210  0.00  0.00    +0.382 N 
ATOM     12  C   UNL     1      -0.123  -0.071  -2.404  0.00  0.00    -0.060 C 
ATOM     13  C   UNL     1       0.660  -0.467  -3.660  0.00  0.00    +0.086 C 
ATOM     14  N   UNL     1       0.970  -1.903  -3.583  0.00  0.00    -0.333 N 
ATOM     15  C   UNL     1       1.586  -2.414  -2.348  0.00  0.00    +0.086 C 
ATOM     16  C   UNL     1       0.759  -1.926  -1.154  0.00  0.00    -0.060 C 
ATOM     17  H   UNL     1       1.556  -0.052  -1.249  0.00  0.00    -0.082 HD
BRANCH  11  19
ATOM     18  C   UNL     1      -0.080   1.543  -0.004  0.00  0.00    -0.017 C 
ATOM     19  C   UNL     1      -0.061   0.013  -0.009  0.00  0.00    -0.082 C 
ENDBRANCH  11  19
ENDBRANCH   5  14
ENDBRANCH   1   8
BRANCH   2  20
ATOM     20  C   UNL     1      -0.572  -5.727 -10.245  0.00  0.00    +0.172 C 
BRANCH  20  21
ATOM     21  S   UNL     1      -0.442  -4.811 -11.805  0.00  0.00    -0.089 S 
BRANCH  21  22
ATOM     22  C   UNL     1      -0.966  -5.970 -13.024  0.00  0.00    +0.136 A 
ATOM     23  N   UNL     1      -1.057  -5.820 -14.334  0.00  0.00    -0.233 NA
ATOM     24  C   UNL     1      -1.478  -6.815 -15.112  0.00  0.00    +0.079 A 
ATOM     25  C   UNL     1      -1.819  -8.009 -14.544  0.00  0.00    +0.076 A 
ATOM     26  S   UNL     1      -1.506  -7.660 -12.819  0.00  0.00    -0.069 S 
BRANCH  24  27
ATOM     27  C   UNL     1      -1.574  -6.629 -16.580  0.00  0.00    +0.001 A 
ATOM     28  C   UNL     1      -2.021  -7.672 -17.389  0.00  0.00    +0.011 A 
ATOM     29  C   UNL     1      -2.110  -7.493 -18.755  0.00  0.00    +0.016 A 
ATOM     30  C   UNL     1      -1.756  -6.280 -19.321  0.00  0.00    +0.018 A 
ATOM     31  C   UNL     1      -1.312  -5.241 -18.521  0.00  0.00    +0.016 A 
ATOM     32  C   UNL     1      -1.225  -5.408 -17.154  0.00  0.00    +0.011 A 
ATOM     33 BR   UNL     1      -1.879  -6.043 -21.193  0.00  0.00    -0.050 Br
ENDBRANCH  24  27
ENDBRANCH  21  22
ENDBRANCH  20  21
ENDBRANCH   2  20
TORSDOF 7
