REMARK  Name = ZINC36557586
REMARK  16 active torsions:
REMARK  status: ('A' for Active; 'I' for Inactive)
REMARK    1  A    between atoms: C_1  and  C_2
REMARK    2  A    between atoms: C_2  and  C_3
REMARK    3  A    between atoms: C_3  and  C_4
REMARK    4  A    between atoms: C_4  and  C_5
REMARK    5  A    between atoms: C_5  and  C_6
REMARK    6  A    between atoms: C_7  and  C_8
REMARK    7  A    between atoms: N_10  and  C_11
REMARK    8  A    between atoms: N_10  and  C_18
REMARK    9  A    between atoms: C_11  and  C_12
REMARK   10  A    between atoms: C_15  and  C_17
REMARK   11  A    between atoms: C_18  and  C_20
REMARK   12  A    between atoms: C_18  and  C_28
REMARK   13  A    between atoms: N_30  and  C_31
REMARK   14  A    between atoms: C_31  and  C_32
REMARK   15  A    between atoms: C_32  and  C_33
REMARK   16  A    between atoms: C_33  and  C_34
REMARK                            x       y       z     vdW  Elec       q    Type
REMARK                         _______ _______ _______ _____ _____    ______ ____
ROOT
ATOM      1  C   UNL     1       2.445  -5.694   1.534  0.00  0.00    +0.240 C 
ATOM      2  O   UNL     1       1.456  -6.398   1.620  0.00  0.00    -0.271 OA
ATOM      3  N   UNL     1       3.661  -6.204   1.814  0.00  0.00    -0.275 N 
ENDROOT
BRANCH   1   5
ATOM      4  C   UNL     1       1.114  -3.786   0.846  0.00  0.00    -0.022 C 
ATOM      5  C   UNL     1       2.313  -4.288   1.123  0.00  0.00    +0.063 C 
BRANCH   4   6
ATOM      6  C   UNL     1       0.979  -2.345   0.425  0.00  0.00    +0.027 C 
BRANCH   6   7
ATOM      7  C   UNL     1       0.241  -2.272  -0.914  0.00  0.00    +0.004 C 
BRANCH   7   8
ATOM      8  C   UNL     1       0.104  -0.809  -1.341  0.00  0.00    +0.000 C 
BRANCH   8  10
ATOM      9  C   UNL     1      -0.770   0.727  -3.107  0.00  0.00    +0.004 C 
ATOM     10  C   UNL     1      -0.633  -0.736  -2.680  0.00  0.00    -0.003 C 
ENDBRANCH   8  10
ENDBRANCH   7   8
ENDBRANCH   6   7
ENDBRANCH   4   6
ENDBRANCH   1   5
BRANCH   3  11
ATOM     11  C   UNL     1       4.852  -5.357   1.710  0.00  0.00    +0.183 C 
BRANCH  11  12
ATOM     12  C   UNL     1       4.966  -4.497   2.942  0.00  0.00    +0.122 A 
ATOM     13  C   UNL     1       5.809  -4.704   3.970  0.00  0.00    +0.046 A 
ATOM     14  C   UNL     1       5.581  -3.665   4.901  0.00  0.00    +0.045 A 
ATOM     15  C   UNL     1       4.613  -2.885   4.387  0.00  0.00    +0.102 A 
ATOM     16  O   UNL     1       4.248  -3.391   3.197  0.00  0.00    -0.463 OA
ATOM     17  C   UNL     1       4.038  -1.651   5.033  0.00  0.00    +0.086 C 
ENDBRANCH  11  12
ENDBRANCH   3  11
BRANCH   3  18
ATOM     18  C   UNL     1       3.792  -7.604   2.223  0.00  0.00    +0.196 C 
BRANCH  18  19
ATOM     19  C   UNL     1       3.288  -8.499   1.121  0.00  0.00    +0.018 A 
ATOM     20  C   UNL     1       3.751  -8.332  -0.172  0.00  0.00    +0.048 A 
ATOM     21  C   UNL     1       3.288  -9.154  -1.184  0.00  0.00    +0.020 A 
ATOM     22  C   UNL     1       2.362 -10.141  -0.904  0.00  0.00    +0.003 A 
ATOM     23  C   UNL     1       1.898 -10.309   0.388  0.00  0.00    +0.020 A 
ATOM     24  C   UNL     1       2.366  -9.491   1.402  0.00  0.00    +0.048 A 
ATOM     25 CL   UNL     1       1.790  -9.706   3.025  0.00  0.00    -0.083 Cl
ATOM     26 CL   UNL     1       4.913  -7.092  -0.525  0.00  0.00    -0.083 Cl
ENDBRANCH  18  19
BRANCH  18  27
ATOM     27  C   UNL     1       5.241  -7.914   2.498  0.00  0.00    +0.238 C 
ATOM     28  O   UNL     1       5.954  -7.075   3.008  0.00  0.00    -0.273 OA
ATOM     29  N   UNL     1       5.745  -9.122   2.178  0.00  0.00    -0.313 N 
ATOM     30  H   UNL     1       5.174  -9.793   1.770  0.00  0.00    +0.149 HD
BRANCH  29  31
ATOM     31  C   UNL     1       7.153  -9.423   2.445  0.00  0.00    +0.104 C 
BRANCH  31  32
ATOM     32  C   UNL     1       7.465 -10.850   1.990  0.00  0.00    +0.018 C 
BRANCH  32  33
ATOM     33  C   UNL     1       8.936 -11.164   2.270  0.00  0.00    -0.002 C 
ATOM     34  C   UNL     1       9.248 -12.592   1.815  0.00  0.00    +0.004 C 
ENDBRANCH  32  33
ENDBRANCH  31  32
ENDBRANCH  29  31
ENDBRANCH  18  27
ENDBRANCH   3  18
TORSDOF 13
