REMARK  Name = ZINC43619806
REMARK  11 active torsions:
REMARK  status: ('A' for Active; 'I' for Inactive)
REMARK    1  A    between atoms: C_1  and  C_2
REMARK    2  A    between atoms: C_2  and  C_38
REMARK    3  A    between atoms: C_7  and  C_11
REMARK    4  A    between atoms: C_11  and  N_12
REMARK    5  A    between atoms: C_16  and  C_26
REMARK    6  A    between atoms: C_17  and  O_24
REMARK    7  A    between atoms: O_24  and  C_25
REMARK    8  A    between atoms: N_28  and  C_29
REMARK    9  A    between atoms: C_29  and  C_30
REMARK   10  A    between atoms: C_35  and  O_36
REMARK   11  A    between atoms: O_36  and  C_37
REMARK                            x       y       z     vdW  Elec       q    Type
REMARK                         _______ _______ _______ _____ _____    ______ ____
ROOT
ATOM      1  N   UNL     1       1.413  -3.094   3.314  0.00  0.00    +0.384 N 
ATOM      2  C   UNL     1       1.050  -3.535   4.651  0.00  0.00    -0.072 C 
ATOM      3  C   UNL     1       2.294  -3.691   5.529  0.00  0.00    +0.036 C 
ATOM      4  C   UNL     1       2.881  -5.067   5.288  0.00  0.00    +0.036 A 
ATOM      5  C   UNL     1       2.796  -6.017   6.286  0.00  0.00    +0.098 A 
ATOM      6  C   UNL     1       3.368  -7.345   6.041  0.00  0.00    +0.139 A 
ATOM      7  C   UNL     1       3.965  -7.580   4.819  0.00  0.00    +0.116 A 
ATOM      8  C   UNL     1       4.005  -6.555   3.867  0.00  0.00    +0.255 A 
ATOM      9  O   UNL     1       4.533  -6.762   2.787  0.00  0.00    -0.268 OA
ATOM     10  N   UNL     1       3.469  -5.346   4.120  0.00  0.00    -0.313 N 
ATOM     11  C   UNL     1       3.539  -4.309   3.073  0.00  0.00    +0.106 C 
ATOM     12  C   UNL     1       2.132  -4.078   2.521  0.00  0.00    -0.056 C 
ATOM     13  H   UNL     1       1.988  -2.270   3.398  0.00  0.00    -0.081 HD
ENDROOT
BRANCH   5  14
ATOM     14  C   UNL     1       2.145  -5.702   7.570  0.00  0.00    +0.250 C 
ATOM     15  O   UNL     1       2.822  -5.492   8.559  0.00  0.00    -0.270 OA
ATOM     16  N   UNL     1       0.801  -5.648   7.649  0.00  0.00    -0.307 N 
ATOM     17  H   UNL     1       0.260  -5.890   6.881  0.00  0.00    +0.149 HD
BRANCH  16  18
ATOM     18  C   UNL     1       0.157  -5.224   8.894  0.00  0.00    +0.143 C 
BRANCH  18  19
ATOM     19  C   UNL     1      -1.340  -5.250   8.720  0.00  0.00    +0.011 A 
ATOM     20  C   UNL     1      -2.026  -4.079   8.461  0.00  0.00    +0.009 A 
ATOM     21  C   UNL     1      -3.399  -4.102   8.302  0.00  0.00    +0.001 A 
ATOM     22  C   UNL     1      -4.089  -5.297   8.400  0.00  0.00    +0.004 A 
ATOM     23  C   UNL     1      -3.407  -6.470   8.658  0.00  0.00    +0.046 A 
ATOM     24  C   UNL     1      -2.029  -6.450   8.813  0.00  0.00    +0.125 A 
BRANCH  24  25
ATOM     25  O   UNL     1      -1.355  -7.604   9.062  0.00  0.00    -0.495 OA
ATOM     26  C   UNL     1      -2.129  -8.802   9.145  0.00  0.00    +0.277 C 
ENDBRANCH  24  25
ENDBRANCH  18  19
ENDBRANCH  16  18
ENDBRANCH   5  14
BRANCH   6  27
ATOM     27  O   UNL     1       3.311  -8.313   6.986  0.00  0.00    -0.494 OA
ATOM     28  C   UNL     1       3.894  -9.575   6.658  0.00  0.00    +0.277 C 
ENDBRANCH   6  27
BRANCH   1  29
ATOM     29  C   UNL     1       0.184  -2.728   2.597  0.00  0.00    -0.047 C 
BRANCH  29  35
ATOM     30  C   UNL     1       0.131   1.653   0.092  0.00  0.00    +0.012 C 
ATOM     31  C   UNL     1       0.127   0.123   0.065  0.00  0.00    -0.025 C 
ATOM     32  C   UNL     1       1.265  -0.489  -0.777  0.00  0.00    -0.000 C 
ATOM     33  C   UNL     1       0.977  -1.963  -1.094  0.00  0.00    +0.031 C 
ATOM     34  C   UNL     1       0.623  -2.697   0.176  0.00  0.00    -0.029 C 
ATOM     35  C   UNL     1       0.542  -2.035   1.308  0.00  0.00    -0.086 C 
ATOM     36  C   UNL     1       0.836  -0.524   1.269  0.00  0.00    +0.019 C 
ATOM     37  C   UNL     1       2.141  -0.287   0.471  0.00  0.00    +0.012 C 
ATOM     38  C   UNL     1      -1.253  -0.467  -0.232  0.00  0.00    +0.012 C 
ENDBRANCH  29  35
ENDBRANCH   1  29
TORSDOF 7
