REMARK  Name = ZINC12981798
REMARK  8 active torsions:
REMARK  status: ('A' for Active; 'I' for Inactive)
REMARK    1  A    between atoms: N_9  and  C_28
REMARK    2  A    between atoms: C_10  and  S_12
REMARK    3  A    between atoms: S_12  and  C_13
REMARK    4  A    between atoms: C_13  and  C_14
REMARK    5  A    between atoms: N_16  and  C_17
REMARK    6  A    between atoms: C_22  and  S_23
REMARK    7  A    between atoms: S_23  and  C_24
REMARK    8  A    between atoms: C_24  and  C_25
REMARK                            x       y       z     vdW  Elec       q    Type
REMARK                         _______ _______ _______ _____ _____    ______ ____
ROOT
ATOM      1  S   UNL     1      -2.399  -3.020  -0.248  0.00  0.00    -0.078 S 
ENDROOT
BRANCH   1  11
ATOM      2  C   UNL     1       2.439   1.423   0.689  0.00  0.00    +0.001 A 
ATOM      3  C   UNL     1       1.276   2.044   0.251  0.00  0.00    +0.002 A 
ATOM      4  C   UNL     1       0.147   1.321  -0.007  0.00  0.00    +0.028 A 
ATOM      5  C   UNL     1       0.157  -0.066   0.170  0.00  0.00    +0.079 A 
ATOM      6  C   UNL     1       1.343  -0.695   0.616  0.00  0.00    +0.065 A 
ATOM      7  C   UNL     1       2.481   0.068   0.872  0.00  0.00    +0.015 A 
ATOM      8  C   UNL     1       1.330  -2.153   0.795  0.00  0.00    +0.267 A 
ATOM      9  O   UNL     1       2.319  -2.751   1.176  0.00  0.00    -0.267 OA
ATOM     10  N   UNL     1       0.177  -2.806   0.521  0.00  0.00    -0.255 N 
ATOM     11  C   UNL     1      -0.925  -2.118   0.094  0.00  0.00    +0.177 A 
ATOM     12  N   UNL     1      -0.935  -0.818  -0.073  0.00  0.00    -0.223 NA
BRANCH  10  13
ATOM     13  C   UNL     1       0.111  -4.198   0.676  0.00  0.00    +0.052 A 
ATOM     14  C   UNL     1      -0.635  -4.747   1.710  0.00  0.00    +0.029 A 
ATOM     15  C   UNL     1      -0.702  -6.119   1.858  0.00  0.00    +0.040 A 
ATOM     16  C   UNL     1      -0.017  -6.945   0.983  0.00  0.00    +0.124 A 
ATOM     17  C   UNL     1       0.732  -6.399  -0.045  0.00  0.00    +0.040 A 
ATOM     18  C   UNL     1       0.797  -5.028  -0.200  0.00  0.00    +0.029 A 
ATOM     19  F   UNL     1      -0.080  -8.286   1.133  0.00  0.00    -0.205 F 
ENDBRANCH  10  13
ENDBRANCH   1  11
BRANCH   1  20
ATOM     20  C   UNL     1      -3.487  -1.665  -0.755  0.00  0.00    +0.173 C 
BRANCH  20  21
ATOM     21  C   UNL     1      -4.845  -2.215  -1.105  0.00  0.00    +0.228 C 
ATOM     22  O   UNL     1      -5.057  -3.406  -1.021  0.00  0.00    -0.275 OA
ATOM     23  N   UNL     1      -5.824  -1.383  -1.513  0.00  0.00    -0.284 N 
ATOM     24  H   UNL     1      -5.676  -0.424  -1.517  0.00  0.00    +0.155 HD
BRANCH  23  25
ATOM     25  C   UNL     1      -7.057  -1.903  -1.931  0.00  0.00    +0.047 A 
ATOM     26  C   UNL     1      -7.511  -3.110  -1.421  0.00  0.00    +0.024 A 
ATOM     27  C   UNL     1      -8.730  -3.619  -1.830  0.00  0.00    +0.002 A 
ATOM     28  C   UNL     1      -9.494  -2.933  -2.757  0.00  0.00    +0.001 A 
ATOM     29  C   UNL     1      -9.047  -1.733  -3.276  0.00  0.00    +0.016 A 
ATOM     30  C   UNL     1      -7.827  -1.212  -2.866  0.00  0.00    +0.030 A 
BRANCH  30  31
ATOM     31  S   UNL     1      -7.253   0.318  -3.526  0.00  0.00    -0.114 S 
BRANCH  31  32
ATOM     32  C   UNL     1      -8.566   0.822  -4.672  0.00  0.00    +0.169 C 
BRANCH  32  33
ATOM     33  C   UNL     1      -8.197   2.134  -5.314  0.00  0.00    +0.221 C 
ATOM     34  O   UNL     1      -7.151   2.676  -5.026  0.00  0.00    -0.275 OA
ATOM     35  N   UNL     1      -9.029   2.705  -6.207  0.00  0.00    -0.329 N 
ATOM     36  H   UNL     1      -9.865   2.271  -6.437  0.00  0.00    +0.145 HD
ATOM     37  H   UNL     1      -8.791   3.550  -6.620  0.00  0.00    +0.145 HD
ENDBRANCH  32  33
ENDBRANCH  31  32
ENDBRANCH  30  31
ENDBRANCH  23  25
ENDBRANCH  20  21
ENDBRANCH   1  20
TORSDOF 8
