REMARK  Name = ZINC35929424
REMARK  6 active torsions:
REMARK  status: ('A' for Active; 'I' for Inactive)
REMARK    1  A    between atoms: C_4  and  C_7
REMARK    2  A    between atoms: C_7  and  N_8
REMARK    3  A    between atoms: C_9  and  N_31
REMARK    4  A    between atoms: C_11  and  C_25
REMARK    5  A    between atoms: N_17  and  C_18
REMARK    6  A    between atoms: C_18  and  C_19
REMARK                            x       y       z     vdW  Elec       q    Type
REMARK                         _______ _______ _______ _____ _____    ______ ____
ROOT
ATOM      1  N   UNL     1       3.794  -0.782   1.654  0.00  0.00    -0.267 N 
ATOM      2  C   UNL     1       3.753  -2.014   2.189  0.00  0.00    +0.124 A 
ATOM      3  C   UNL     1       4.737  -2.078   3.169  0.00  0.00    +0.084 A 
ATOM      4  C   UNL     1       5.201  -3.058   4.075  0.00  0.00    +0.089 A 
ATOM      5  N   UNL     1       6.199  -2.738   4.889  0.00  0.00    -0.214 NA
ATOM      6  C   UNL     1       6.765  -1.535   4.876  0.00  0.00    +0.218 A 
ATOM      7  N   UNL     1       6.395  -0.565   4.066  0.00  0.00    -0.195 NA
ATOM      8  C   UNL     1       5.393  -0.758   3.187  0.00  0.00    +0.162 A 
ATOM      9  N   UNL     1       4.802  -0.028   2.267  0.00  0.00    -0.279 N 
ATOM     10  N   UNL     1       7.799  -1.290   5.761  0.00  0.00    -0.309 N 
ATOM     11  H   UNL     1       8.092  -1.986   6.370  0.00  0.00    +0.149 HD
ATOM     12  H   UNL     1       5.027   0.889   2.049  0.00  0.00    +0.189 HD
ENDROOT
BRANCH   4  13
ATOM     13  C   UNL     1       4.591  -4.406   4.114  0.00  0.00    +0.001 A 
ATOM     14  C   UNL     1       4.338  -5.095   2.928  0.00  0.00    +0.010 A 
ATOM     15  C   UNL     1       3.768  -6.351   2.972  0.00  0.00    +0.001 A 
ATOM     16  C   UNL     1       3.448  -6.927   4.188  0.00  0.00    +0.000 A 
ATOM     17  C   UNL     1       3.696  -6.249   5.368  0.00  0.00    +0.001 A 
ATOM     18  C   UNL     1       4.271  -4.995   5.338  0.00  0.00    +0.010 A 
ENDBRANCH   4  13
BRANCH   2  19
ATOM     19  N   UNL     1       2.890  -3.033   1.830  0.00  0.00    -0.343 N 
ATOM     20  H   UNL     1       2.432  -3.001   0.976  0.00  0.00    +0.144 HD
ATOM     21  H   UNL     1       2.743  -3.779   2.432  0.00  0.00    +0.144 HD
ENDBRANCH   2  19
BRANCH   1  22
ATOM     22  C   UNL     1       2.918  -0.301   0.583  0.00  0.00    +0.178 C 
BRANCH  22  26
ATOM     23  C   UNL     1      -0.730   1.149   2.268  0.00  0.00    +0.000 A 
ATOM     24  C   UNL     1       0.341   2.007   2.094  0.00  0.00    +0.000 A 
ATOM     25  C   UNL     1       1.521   1.538   1.549  0.00  0.00    +0.005 A 
ATOM     26  C   UNL     1       1.632   0.211   1.178  0.00  0.00    -0.026 A 
ATOM     27  C   UNL     1       0.562  -0.647   1.352  0.00  0.00    +0.005 A 
ATOM     28  C   UNL     1      -0.619  -0.178   1.896  0.00  0.00    +0.000 A 
ENDBRANCH  22  26
ENDBRANCH   1  22
BRANCH  10  29
ATOM     29  C   UNL     1       8.452   0.022   5.780  0.00  0.00    +0.141 C 
BRANCH  29  30
ATOM     30  C   UNL     1       9.537   0.028   6.826  0.00  0.00    -0.012 A 
ATOM     31  C   UNL     1       9.252   0.406   8.130  0.00  0.00    +0.008 A 
ATOM     32  C   UNL     1      10.282   0.397   9.059  0.00  0.00    +0.020 A 
ATOM     33  C   UNL     1      11.548   0.015   8.657  0.00  0.00    +0.111 A 
ATOM     34  N   UNL     1      11.781  -0.339   7.408  0.00  0.00    -0.263 NA
ATOM     35  C   UNL     1      10.825  -0.348   6.500  0.00  0.00    +0.115 A 
ENDBRANCH  29  30
ENDBRANCH  10  29
TORSDOF 6
