REMARK  Name = ZINC02199692
REMARK  3 active torsions:
REMARK  status: ('A' for Active; 'I' for Inactive)
REMARK    1  A    between atoms: C_1  and  C_2
REMARK    2  A    between atoms: N_23  and  C_26
REMARK    3  A    between atoms: C_30  and  N_32
REMARK                            x       y       z     vdW  Elec       q    Type
REMARK                         _______ _______ _______ _____ _____    ______ ____
ROOT
ATOM      1  C   UNL     1      -1.330   2.157  -0.168  0.00  0.00    +0.046 C 
ATOM      2  C   UNL     1      -0.019   1.415  -0.125  0.00  0.00    -0.028 A 
ATOM      3  C   UNL     1       1.168   2.119  -0.104  0.00  0.00    +0.025 A 
ATOM      4  C   UNL     1       2.377   1.447  -0.070  0.00  0.00    +0.042 A 
ATOM      5  C   UNL     1       2.395   0.062  -0.057  0.00  0.00    +0.024 A 
ATOM      6  C   UNL     1       1.213  -0.643  -0.079  0.00  0.00    -0.026 A 
ATOM      7  C   UNL     1      -0.009   0.023  -0.113  0.00  0.00    +0.039 A 
ATOM      8  N   UNL     1      -1.060  -0.897  -0.129  0.00  0.00    -0.286 N 
ATOM      9  C   UNL     1      -0.621  -2.170  -0.109  0.00  0.00    +0.212 C 
ATOM     10  O   UNL     1      -1.305  -3.172  -0.117  0.00  0.00    -0.277 OA
ATOM     11  C   UNL     1       0.883  -2.109  -0.074  0.00  0.00    +0.053 C 
ATOM     12  C   UNL     1       1.497  -2.827  -1.281  0.00  0.00    +0.089 C 
ATOM     13  C   UNL     1       2.788  -3.491  -0.729  0.00  0.00    +0.074 C 
ATOM     14  C   UNL     1       2.830  -3.112   0.763  0.00  0.00    -0.054 C 
ATOM     15  C   UNL     1       0.758  -4.096   1.298  0.00  0.00    -0.076 C 
ATOM     16  C   UNL     1       1.819  -4.997   1.962  0.00  0.00    -0.020 C 
ATOM     17  C   UNL     1       3.174  -4.361   1.595  0.00  0.00    -0.016 C 
ATOM     18  C   UNL     1       2.504  -4.970  -0.863  0.00  0.00    +0.228 C 
ATOM     19  O   UNL     1       3.261  -5.861  -0.541  0.00  0.00    -0.275 OA
ATOM     20  N   UNL     1       1.287  -5.143  -1.391  0.00  0.00    -0.210 N 
ATOM     21  C   UNL     1       0.634  -4.008  -1.665  0.00  0.00    +0.229 C 
ATOM     22  O   UNL     1      -0.476  -3.937  -2.147  0.00  0.00    -0.275 OA
ATOM     23 CL   UNL     1       3.867   2.337  -0.044  0.00  0.00    -0.084 Cl
ATOM     24  H   UNL     1      -1.997  -0.648  -0.153  0.00  0.00    +0.155 HD
ATOM     25  N   UNL     1       1.453  -2.811   1.080  0.00  0.00    +0.395 N 
ATOM     26  H   UNL     1       1.390  -2.225   1.921  0.00  0.00    -0.079 HD
ENDROOT
BRANCH  20  27
ATOM     27  C   UNL     1       0.740  -6.411  -1.636  0.00  0.00    +0.046 A 
ATOM     28  C   UNL     1      -0.356  -6.848  -0.905  0.00  0.00    +0.024 A 
ATOM     29  C   UNL     1      -0.896  -8.095  -1.153  0.00  0.00    +0.004 A 
ATOM     30  C   UNL     1      -0.339  -8.912  -2.120  0.00  0.00    +0.033 A 
ATOM     31  C   UNL     1       0.756  -8.481  -2.846  0.00  0.00    +0.128 A 
ATOM     32  C   UNL     1       1.297  -7.233  -2.606  0.00  0.00    +0.056 A 
BRANCH  31  33
ATOM     33  N   UNL     1       1.349  -9.358  -3.880  0.00  0.00    +0.056 N 
ATOM     34  O   UNL     1       2.314  -8.978  -4.520  0.00  0.00    -0.126 OA
ATOM     35  O   UNL     1       0.873 -10.458  -4.092  0.00  0.00    -0.126 OA
ENDBRANCH  31  33
ENDBRANCH  20  27
TORSDOF 2
