REMARK  Name = ZINC29282161
REMARK  6 active torsions:
REMARK  status: ('A' for Active; 'I' for Inactive)
REMARK    1  A    between atoms: C_1  and  C_2
REMARK    2  A    between atoms: C_3  and  C_14
REMARK    3  A    between atoms: N_6  and  C_7
REMARK    4  A    between atoms: C_14  and  C_16
REMARK    5  A    between atoms: C_14  and  N_17
REMARK    6  A    between atoms: C_18  and  C_20
REMARK                            x       y       z     vdW  Elec       q    Type
REMARK                         _______ _______ _______ _____ _____    ______ ____
ROOT
ATOM      1  C   UNL     1       4.830   1.050   0.122  0.00  0.00    +0.104 C 
ATOM      2  C   UNL     1       5.185   0.524  -1.270  0.00  0.00    +0.033 C 
ENDROOT
BRANCH   1   5
ATOM      3  C   UNL     1       7.513   0.077   1.405  0.00  0.00    +0.066 C 
ATOM      4  C   UNL     1       7.104   1.510   1.180  0.00  0.00    +0.047 A 
ATOM      5  C   UNL     1       5.944   1.931   0.625  0.00  0.00    +0.013 A 
ATOM      6  C   UNL     1       5.959   3.330   0.606  0.00  0.00    +0.140 A 
ATOM      7  N   UNL     1       7.090   3.735   1.126  0.00  0.00    -0.174 NA
ATOM      8  N   UNL     1       7.833   2.605   1.492  0.00  0.00    -0.237 N 
BRANCH   8   9
ATOM      9  C   UNL     1       9.104   2.610   2.085  0.00  0.00    +0.066 A 
ATOM     10  C   UNL     1       9.402   3.525   3.085  0.00  0.00    +0.030 A 
ATOM     11  C   UNL     1      10.652   3.524   3.671  0.00  0.00    +0.040 A 
ATOM     12  C   UNL     1      11.613   2.618   3.254  0.00  0.00    +0.124 A 
ATOM     13  C   UNL     1      11.320   1.708   2.252  0.00  0.00    +0.040 A 
ATOM     14  C   UNL     1      10.069   1.702   1.667  0.00  0.00    +0.030 A 
ATOM     15  F   UNL     1      12.837   2.622   3.824  0.00  0.00    -0.205 F 
ENDBRANCH   8   9
ENDBRANCH   1   5
BRANCH   1  16
ATOM     16  N   UNL     1       3.589   1.825   0.050  0.00  0.00    -0.305 N 
ATOM     17  C   UNL     1       2.398   1.198   0.125  0.00  0.00    +0.245 C 
ATOM     18  O   UNL     1       2.354  -0.010   0.252  0.00  0.00    -0.270 OA
ATOM     19  H   UNL     1       3.629   2.918  -0.065  0.00  0.00    +0.150 HD
BRANCH  17  20
ATOM     20  C   UNL     1       1.147   1.979   0.052  0.00  0.00    +0.039 A 
ATOM     21  C   UNL     1       1.200   3.372  -0.095  0.00  0.00    +0.015 A 
ATOM     22  C   UNL     1       0.051   4.104  -0.163  0.00  0.00    +0.028 A 
ATOM     23  C   UNL     1      -1.185   3.473  -0.088  0.00  0.00    +0.066 A 
ATOM     24  C   UNL     1      -1.257   2.075   0.054  0.00  0.00    +0.089 A 
ATOM     25  C   UNL     1      -0.081   1.330   0.130  0.00  0.00    +0.043 A 
ATOM     26  N   UNL     1      -2.576   1.749   0.103  0.00  0.00    -0.236 NA
ATOM     27  C   UNL     1      -3.295   2.828  -0.005  0.00  0.00    +0.197 A 
ATOM     28  N   UNL     1      -2.489   3.918  -0.125  0.00  0.00    -0.344 N 
ATOM     29  H   UNL     1      -2.700   4.991  -0.236  0.00  0.00    +0.167 HD
ENDBRANCH  17  20
ENDBRANCH   1  16
TORSDOF 4
