REMARK  Name = ZINC43783165
REMARK  6 active torsions:
REMARK  status: ('A' for Active; 'I' for Inactive)
REMARK    1  A    between atoms: C_6  and  C_7
REMARK    2  A    between atoms: C_10  and  C_12
REMARK    3  A    between atoms: C_16  and  N_18
REMARK    4  A    between atoms: N_18  and  S_19
REMARK    5  A    between atoms: S_19  and  C_22
REMARK    6  A    between atoms: C_25  and  N_28
REMARK                            x       y       z     vdW  Elec       q    Type
REMARK                         _______ _______ _______ _____ _____    ______ ____
ROOT
ATOM      1  C   UNL     1      -4.284  -3.601   0.030  0.00  0.00    +0.084 A 
ATOM      2  C   UNL     1      -3.843  -4.931   0.031  0.00  0.00    +0.049 A 
ATOM      3  C   UNL     1      -4.788  -5.938   0.037  0.00  0.00    +0.116 A 
ATOM      4  N   UNL     1      -6.074  -5.620   0.042  0.00  0.00    -0.220 NA
ATOM      5  C   UNL     1      -6.466  -4.354   0.040  0.00  0.00    +0.258 A 
ATOM      6  N   UNL     1      -5.596  -3.357   0.040  0.00  0.00    -0.211 NA
ENDROOT
BRANCH   1  10
ATOM      7  C   UNL     1      -1.266  -0.763   0.011  0.00  0.00    +0.109 A 
ATOM      8  N   UNL     1      -2.515  -0.314   0.019  0.00  0.00    -0.247 NA
ATOM      9  C   UNL     1      -3.535  -1.132   0.026  0.00  0.00    +0.129 A 
ATOM     10  C   UNL     1      -3.315  -2.489   0.023  0.00  0.00    +0.058 A 
ATOM     11  S   UNL     1      -1.527  -2.532   0.004  0.00  0.00    -0.066 S 
BRANCH   7  17
ATOM     12  C   UNL     1      -0.017   1.392   0.010  0.00  0.00    +0.012 A 
ATOM     13  C   UNL     1       1.170   2.095   0.002  0.00  0.00    +0.020 A 
ATOM     14  C   UNL     1       2.378   1.419  -0.013  0.00  0.00    +0.041 A 
ATOM     15  C   UNL     1       2.404   0.034  -0.021  0.00  0.00    +0.020 A 
ATOM     16  C   UNL     1       1.224  -0.680  -0.014  0.00  0.00    +0.012 A 
ATOM     17  C   UNL     1       0.002  -0.004   0.002  0.00  0.00    +0.007 A 
ATOM     18 CL   UNL     1       3.868   2.311  -0.024  0.00  0.00    -0.084 Cl
ENDBRANCH   7  17
ENDBRANCH   1  10
BRANCH   5  19
ATOM     19  N   UNL     1      -7.820  -4.066   0.044  0.00  0.00    -0.058 NA
BRANCH  19  20
ATOM     20  S   UNL     1      -8.927  -5.298   0.052  0.00  0.00    +0.094 S 
ATOM     21  O   UNL     1      -8.794  -5.971  -1.193  0.00  0.00    -0.148 OA
ATOM     22  O   UNL     1      -8.784  -5.965   1.298  0.00  0.00    -0.148 OA
BRANCH  20  23
ATOM     23  C   UNL     1     -10.527  -4.559   0.056  0.00  0.00    +0.111 A 
ATOM     24  C   UNL     1     -11.146  -4.262   1.256  0.00  0.00    +0.030 A 
ATOM     25  C   UNL     1     -12.400  -3.683   1.263  0.00  0.00    +0.024 A 
ATOM     26  C   UNL     1     -13.039  -3.400   0.063  0.00  0.00    +0.025 A 
ATOM     27  C   UNL     1     -12.414  -3.700  -1.141  0.00  0.00    +0.024 A 
ATOM     28  C   UNL     1     -11.158  -4.273  -1.141  0.00  0.00    +0.030 A 
BRANCH  26  29
ATOM     29  N   UNL     1     -14.308  -2.815   0.066  0.00  0.00    -0.358 N 
ATOM     30  H   UNL     1     -14.743  -2.607   0.907  0.00  0.00    +0.142 HD
ATOM     31  H   UNL     1     -14.753  -2.618  -0.773  0.00  0.00    +0.142 HD
ENDBRANCH  26  29
ENDBRANCH  20  23
ENDBRANCH  19  20
ENDBRANCH   5  19
TORSDOF 6
