REMARK  Name = ZINC64182162
REMARK  4 active torsions:
REMARK  status: ('A' for Active; 'I' for Inactive)
REMARK    1  A    between atoms: C_7  and  C_10
REMARK    2  A    between atoms: C_16  and  C_18
REMARK    3  A    between atoms: N_23  and  S_24
REMARK    4  A    between atoms: S_24  and  C_27
REMARK                            x       y       z     vdW  Elec       q    Type
REMARK                         _______ _______ _______ _____ _____    ______ ____
ROOT
ATOM      1  C   UNL     1       0.673  -3.130  -0.021  0.00  0.00    -0.043 C 
ATOM      2  C   UNL     1      -0.624  -2.873   0.090  0.00  0.00    -0.004 C 
ATOM      3  C   UNL     1      -1.677  -3.945   0.123  0.00  0.00    +0.135 C 
ATOM      4  N   UNL     1      -1.068  -5.230  -0.249  0.00  0.00    -0.296 N 
ATOM      5  C   UNL     1       0.242  -5.555   0.340  0.00  0.00    +0.113 C 
ATOM      6  C   UNL     1       1.250  -4.509  -0.149  0.00  0.00    +0.054 C 
ATOM      7  C   UNL     1      -1.685  -6.078  -1.096  0.00  0.00    +0.235 C 
ATOM      8  O   UNL     1      -1.161  -7.133  -1.387  0.00  0.00    -0.274 OA
ENDROOT
BRANCH   1  15
ATOM      9  C   UNL     1       5.151  -2.873  -0.693  0.00  0.00    +0.001 A 
ATOM     10  C   UNL     1       5.657  -1.572  -0.610  0.00  0.00    +0.002 A 
ATOM     11  C   UNL     1       4.859  -0.508  -0.351  0.00  0.00    +0.026 A 
ATOM     12  C   UNL     1       3.465  -0.702  -0.156  0.00  0.00    +0.043 A 
ATOM     13  N   UNL     1       2.496   0.148   0.103  0.00  0.00    -0.380 N 
ATOM     14  C   UNL     1       1.229  -0.583   0.211  0.00  0.00    +0.149 C 
ATOM     15  C   UNL     1       1.565  -2.039  -0.024  0.00  0.00    -0.016 C 
ATOM     16  C   UNL     1       2.936  -2.076  -0.245  0.00  0.00    +0.003 A 
ATOM     17  C   UNL     1       3.832  -3.135  -0.518  0.00  0.00    +0.010 A 
ATOM     18  H   UNL     1       2.602   1.107   0.207  0.00  0.00    +0.160 HD
ENDBRANCH   1  15
BRANCH   7  19
ATOM     19  C   UNL     1      -3.025  -5.716  -1.681  0.00  0.00    +0.166 C 
ATOM     20  C   UNL     1      -2.898  -4.433  -2.529  0.00  0.00    +0.031 C 
ATOM     21  C   UNL     1      -2.750  -4.982  -3.972  0.00  0.00    +0.019 C 
ATOM     22  C   UNL     1      -3.673  -6.226  -3.928  0.00  0.00    +0.110 C 
ATOM     23  N   UNL     1      -3.487  -6.789  -2.575  0.00  0.00    -0.165 NA
BRANCH  23  24
ATOM     24  S   UNL     1      -3.750  -8.364  -2.136  0.00  0.00    +0.062 S 
ATOM     25  O   UNL     1      -3.631  -9.141  -3.320  0.00  0.00    -0.153 OA
ATOM     26  O   UNL     1      -2.953  -8.603  -0.984  0.00  0.00    -0.153 OA
BRANCH  24  27
ATOM     27  C   UNL     1      -5.431  -8.487  -1.620  0.00  0.00    +0.106 A 
ATOM     28  C   UNL     1      -5.765  -8.271  -0.296  0.00  0.00    +0.030 A 
ATOM     29  C   UNL     1      -7.082  -8.367   0.109  0.00  0.00    +0.022 A 
ATOM     30  C   UNL     1      -8.068  -8.679  -0.811  0.00  0.00    +0.041 A 
ATOM     31  C   UNL     1      -7.733  -8.895  -2.136  0.00  0.00    +0.022 A 
ATOM     32  C   UNL     1      -6.415  -8.793  -2.541  0.00  0.00    +0.030 A 
ATOM     33 CL   UNL     1      -9.723  -8.801  -0.303  0.00  0.00    -0.084 Cl
ENDBRANCH  24  27
ENDBRANCH  23  24
ENDBRANCH   7  19
TORSDOF 4
