REMARK  Name = ZINC24544134
REMARK  5 active torsions:
REMARK  status: ('A' for Active; 'I' for Inactive)
REMARK    1  A    between atoms: C_1  and  N_2
REMARK    2  A    between atoms: C_6  and  C_26
REMARK    3  A    between atoms: N_14  and  C_17
REMARK    4  A    between atoms: N_18  and  C_25
REMARK    5  A    between atoms: N_21  and  C_24
REMARK                            x       y       z     vdW  Elec       q    Type
REMARK                         _______ _______ _______ _____ _____    ______ ____
ROOT
ATOM      1  C   UNL     1      -0.018   1.461   0.010  0.00  0.00    +0.154 C 
ATOM      2  N   UNL     1       0.002  -0.004   0.002  0.00  0.00    -0.295 N 
ATOM      3  C   UNL     1      -1.193  -0.717   0.004  0.00  0.00    +0.077 A 
ATOM      4  C   UNL     1      -2.529  -0.345   0.012  0.00  0.00    +0.055 A 
ATOM      5  C   UNL     1      -3.290  -1.510   0.009  0.00  0.00    +0.057 A 
ATOM      6  C   UNL     1      -4.694  -1.712   0.015  0.00  0.00    +0.020 A 
ATOM      7  C   UNL     1      -5.178  -3.018   0.010  0.00  0.00    +0.074 A 
ATOM      8  C   UNL     1      -4.262  -4.105  -0.001  0.00  0.00    +0.075 A 
ATOM      9  C   UNL     1      -2.931  -3.868  -0.006  0.00  0.00    +0.118 A 
ATOM     10  N   UNL     1      -2.441  -2.587  -0.000  0.00  0.00    -0.308 N 
ATOM     11  C   UNL     1      -1.148  -2.117  -0.004  0.00  0.00    +0.136 A 
ATOM     12  C   UNL     1       0.112  -2.754  -0.014  0.00  0.00    +0.281 A 
ATOM     13  O   UNL     1       0.186  -3.970  -0.021  0.00  0.00    -0.265 OA
ATOM     14  N   UNL     1       1.232  -2.005  -0.015  0.00  0.00    -0.262 N 
ATOM     15  C   UNL     1       1.177  -0.662  -0.013  0.00  0.00    +0.332 A 
ATOM     16  O   UNL     1       2.213  -0.026  -0.020  0.00  0.00    -0.246 OA
ATOM     17  C   UNL     1       2.538  -2.668  -0.026  0.00  0.00    +0.157 C 
ATOM     18  N   UNL     1      -4.776  -5.404  -0.005  0.00  0.00    -0.295 N 
ATOM     19  C   UNL     1      -6.104  -5.611  -0.000  0.00  0.00    +0.332 A 
ATOM     20  O   UNL     1      -6.512  -6.756  -0.004  0.00  0.00    -0.246 OA
ATOM     21  N   UNL     1      -7.001  -4.613   0.009  0.00  0.00    -0.263 N 
ATOM     22  C   UNL     1      -6.618  -3.318   0.015  0.00  0.00    +0.265 A 
ATOM     23  O   UNL     1      -7.441  -2.424   0.024  0.00  0.00    -0.267 OA
ATOM     24  C   UNL     1      -8.430  -4.936   0.014  0.00  0.00    +0.157 C 
ATOM     25  C   UNL     1      -3.862  -6.548  -0.015  0.00  0.00    +0.154 C 
ENDROOT
BRANCH   6  26
ATOM     26  C   UNL     1      -5.623  -0.562   0.026  0.00  0.00    -0.015 A 
ATOM     27  C   UNL     1      -5.676   0.307  -1.066  0.00  0.00    +0.009 A 
ATOM     28  C   UNL     1      -6.544   1.379  -1.049  0.00  0.00    +0.016 A 
ATOM     29  C   UNL     1      -7.363   1.593   0.047  0.00  0.00    +0.018 A 
ATOM     30  C   UNL     1      -7.315   0.735   1.132  0.00  0.00    +0.016 A 
ATOM     31  C   UNL     1      -6.456  -0.344   1.125  0.00  0.00    +0.009 A 
ATOM     32 BR   UNL     1      -8.550   3.065   0.061  0.00  0.00    -0.050 Br
ENDBRANCH   6  26
TORSDOF 1
