REMARK  Name = ZINC59490630
REMARK  6 active torsions:
REMARK  status: ('A' for Active; 'I' for Inactive)
REMARK    1  A    between atoms: C_4  and  C_7
REMARK    2  A    between atoms: C_7  and  C_8
REMARK    3  A    between atoms: C_8  and  N_9
REMARK    4  A    between atoms: N_9  and  C_10
REMARK    5  A    between atoms: N_15  and  C_18
REMARK    6  A    between atoms: N_27  and  C_28
REMARK                            x       y       z     vdW  Elec       q    Type
REMARK                         _______ _______ _______ _____ _____    ______ ____
ROOT
ATOM      1  N   UNL     1       5.580  -1.363   1.626  0.00  0.00    -0.273 N 
ATOM      2  C   UNL     1       5.550  -2.710   1.605  0.00  0.00    +0.307 C 
ATOM      3  O   UNL     1       6.583  -3.340   1.484  0.00  0.00    -0.252 OA
ATOM      4  N   UNL     1       4.374  -3.359   1.718  0.00  0.00    -0.269 N 
ATOM      5  H   UNL     1       3.543  -2.859   1.732  0.00  0.00    +0.156 HD
ENDROOT
BRANCH   4   6
ATOM      6  C   UNL     1       4.352  -4.756   1.814  0.00  0.00    +0.036 A 
ATOM      7  C   UNL     1       3.318  -5.477   1.232  0.00  0.00    +0.025 A 
ATOM      8  C   UNL     1       3.298  -6.854   1.327  0.00  0.00    +0.023 A 
ATOM      9  C   UNL     1       4.307  -7.517   2.003  0.00  0.00    +0.059 A 
ATOM     10  C   UNL     1       5.340  -6.801   2.584  0.00  0.00    +0.061 A 
ATOM     11  C   UNL     1       5.367  -5.423   2.486  0.00  0.00    +0.044 A 
ATOM     12 CL   UNL     1       6.605  -7.636   3.431  0.00  0.00    -0.082 Cl
ATOM     13 CL   UNL     1       4.278  -9.249   2.123  0.00  0.00    -0.082 Cl
ENDBRANCH   4   6
BRANCH   1  14
ATOM     14  C   UNL     1       6.858  -0.657   1.503  0.00  0.00    +0.173 C 
ATOM     15  C   UNL     1       7.827  -1.090   2.622  0.00  0.00    +0.128 C 
ATOM     16  C   UNL     1       8.989  -1.701   1.869  0.00  0.00    +0.228 C 
ATOM     17  O   UNL     1       9.983  -2.174   2.375  0.00  0.00    -0.275 OA
ATOM     18  N   UNL     1       8.743  -1.636   0.554  0.00  0.00    -0.209 N 
ATOM     19  C   UNL     1       7.572  -1.065   0.233  0.00  0.00    +0.247 C 
ATOM     20  O   UNL     1       7.151  -0.902  -0.892  0.00  0.00    -0.273 OA
BRANCH  18  21
ATOM     21  C   UNL     1       9.639  -2.123  -0.410  0.00  0.00    +0.044 A 
ATOM     22  C   UNL     1      10.100  -1.285  -1.416  0.00  0.00    +0.027 A 
ATOM     23  C   UNL     1      10.982  -1.766  -2.364  0.00  0.00    +0.040 A 
ATOM     24  C   UNL     1      11.405  -3.084  -2.312  0.00  0.00    +0.124 A 
ATOM     25  C   UNL     1      10.945  -3.921  -1.309  0.00  0.00    +0.040 A 
ATOM     26  C   UNL     1      10.068  -3.442  -0.356  0.00  0.00    +0.027 A 
ATOM     27  F   UNL     1      12.267  -3.553  -3.241  0.00  0.00    -0.205 F 
ENDBRANCH  18  21
ENDBRANCH   1  14
BRANCH   1  28
ATOM     28  C   UNL     1       4.335  -0.604   1.772  0.00  0.00    +0.115 C 
BRANCH  28  29
ATOM     29  C   UNL     1       3.750  -0.314   0.388  0.00  0.00    +0.054 C 
BRANCH  29  33
ATOM     30  C   UNL     1       0.120   1.898   0.810  0.00  0.00    +0.000 A 
ATOM     31  C   UNL     1       1.326   2.564   0.696  0.00  0.00    +0.000 A 
ATOM     32  C   UNL     1       2.501   1.848   0.559  0.00  0.00    +0.004 A 
ATOM     33  C   UNL     1       2.470   0.466   0.538  0.00  0.00    -0.046 A 
ATOM     34  C   UNL     1       1.264  -0.200   0.653  0.00  0.00    +0.004 A 
ATOM     35  C   UNL     1       0.089   0.516   0.788  0.00  0.00    +0.000 A 
ENDBRANCH  29  33
ENDBRANCH  28  29
ENDBRANCH   1  28
TORSDOF 6
