REMARK  Name = ZINC13360211
REMARK  11 active torsions:
REMARK  status: ('A' for Active; 'I' for Inactive)
REMARK    1  A    between atoms: C_1  and  C_2
REMARK    2  A    between atoms: C_4  and  C_27
REMARK    3  A    between atoms: C_5  and  C_26
REMARK    4  A    between atoms: C_6  and  S_9
REMARK    5  A    between atoms: C_7  and  C_8
REMARK    6  A    between atoms: S_9  and  N_12
REMARK    7  A    between atoms: N_12  and  C_13
REMARK    8  A    between atoms: C_16  and  C_19
REMARK    9  A    between atoms: N_21  and  C_22
REMARK   10  A    between atoms: C_22  and  C_23
REMARK   11  A    between atoms: C_23  and  C_24
REMARK                            x       y       z     vdW  Elec       q    Type
REMARK                         _______ _______ _______ _____ _____    ______ ____
ROOT
ATOM      1  N   UNL     1      -0.904  -0.820   2.071  0.00  0.00    -0.216 N 
ATOM      2  H   UNL     1      -0.064  -0.923   2.545  0.00  0.00    +0.174 HD
ENDROOT
BRANCH   1   3
ATOM      3  C   UNL     1      -2.031  -0.364   2.746  0.00  0.00    +0.048 A 
ATOM      4  C   UNL     1      -2.461   0.949   2.572  0.00  0.00    +0.025 A 
ATOM      5  C   UNL     1      -3.579   1.402   3.234  0.00  0.00    +0.015 A 
ATOM      6  C   UNL     1      -4.277   0.546   4.091  0.00  0.00    +0.037 A 
ATOM      7  C   UNL     1      -3.839  -0.770   4.269  0.00  0.00    +0.015 A 
ATOM      8  C   UNL     1      -2.723  -1.219   3.599  0.00  0.00    +0.025 A 
BRANCH   6   9
ATOM      9  C   UNL     1      -5.473   1.030   4.806  0.00  0.00    +0.244 C 
ATOM     10  O   UNL     1      -6.079   0.284   5.551  0.00  0.00    -0.270 OA
ATOM     11  N   UNL     1      -5.893   2.298   4.634  0.00  0.00    -0.311 N 
ATOM     12  H   UNL     1      -5.410   2.893   4.040  0.00  0.00    +0.149 HD
BRANCH  11  13
ATOM     13  C   UNL     1      -7.081   2.779   5.344  0.00  0.00    +0.116 C 
BRANCH  13  14
ATOM     14  C   UNL     1      -7.339   4.241   4.975  0.00  0.00    +0.144 C 
BRANCH  14  15
ATOM     15  C   UNL     1      -8.561   4.735   5.706  0.00  0.00    +0.357 C 
ATOM     16  O   UNL     1      -9.163   3.994   6.446  0.00  0.00    -0.246 OA
ATOM     17  O   UNL     1      -8.980   5.999   5.534  0.00  0.00    -0.246 OA
ENDBRANCH  14  15
ENDBRANCH  13  14
ENDBRANCH  11  13
ENDBRANCH   6   9
ENDBRANCH   1   3
BRANCH   1  18
ATOM     18  S   UNL     1      -0.997  -1.188   0.459  0.00  0.00    +0.073 S 
ATOM     19  O   UNL     1      -2.065  -2.114   0.315  0.00  0.00    -0.150 OA
ATOM     20  O   UNL     1       0.327  -1.480   0.032  0.00  0.00    -0.150 OA
BRANCH  18  26
ATOM     21  C   UNL     1       0.106   3.421  -1.745  0.00  0.00    +0.044 C 
ATOM     22  C   UNL     1      -0.924   2.384  -1.379  0.00  0.00    -0.045 A 
ATOM     23  C   UNL     1      -2.253   2.584  -1.704  0.00  0.00    +0.007 A 
ATOM     24  C   UNL     1      -3.198   1.632  -1.369  0.00  0.00    -0.045 A 
ATOM     25  C   UNL     1      -2.814   0.480  -0.708  0.00  0.00    -0.021 A 
ATOM     26  C   UNL     1      -1.486   0.280  -0.383  0.00  0.00    +0.115 A 
ATOM     27  C   UNL     1      -0.542   1.234  -0.714  0.00  0.00    -0.021 A 
ATOM     28  C   UNL     1       0.906   1.018  -0.353  0.00  0.00    +0.046 C 
ATOM     29  C   UNL     1      -3.844  -0.557  -0.343  0.00  0.00    +0.046 C 
ATOM     30  C   UNL     1      -4.646   1.851  -1.723  0.00  0.00    +0.044 C 
ENDBRANCH  18  26
ENDBRANCH   1  18
TORSDOF 7
