REMARK  Name = ZINC02644509
REMARK  7 active torsions:
REMARK  status: ('A' for Active; 'I' for Inactive)
REMARK    1  A    between atoms: C_1  and  C_2
REMARK    2  A    between atoms: C_9  and  C_11
REMARK    3  A    between atoms: C_14  and  N_17
REMARK    4  A    between atoms: C_18  and  C_20
REMARK    5  A    between atoms: C_20  and  N_59
REMARK    6  A    between atoms: N_23  and  C_26
REMARK    7  A    between atoms: C_29  and  O_32
REMARK                            x       y       z     vdW  Elec       q    Type
REMARK                         _______ _______ _______ _____ _____    ______ ____
ROOT
ATOM      1  N   UNL     1      -1.191   1.867   0.018  0.00  0.00    -0.287 N 
ATOM      2  C   UNL     1      -0.027   1.206   0.178  0.00  0.00    +0.201 C 
ATOM      3  O   UNL     1      -0.029   0.002   0.329  0.00  0.00    -0.278 OA
ATOM      4  H   UNL     1      -1.196   2.836  -0.026  0.00  0.00    +0.155 HD
ENDROOT
BRANCH   1   8
ATOM      5  C   UNL     1      -4.766  -0.252  -0.292  0.00  0.00    +0.007 A 
ATOM      6  C   UNL     1      -4.747   1.001   0.324  0.00  0.00    +0.012 A 
ATOM      7  C   UNL     1      -3.563   1.698   0.425  0.00  0.00    +0.024 A 
ATOM      8  C   UNL     1      -2.389   1.156  -0.086  0.00  0.00    +0.033 A 
ATOM      9  C   UNL     1      -2.406  -0.088  -0.705  0.00  0.00    +0.024 A 
ATOM     10  C   UNL     1      -3.586  -0.794  -0.804  0.00  0.00    +0.012 A 
BRANCH   5  19
ATOM     11  C   UNL     1     -11.471  -4.302  -0.916  0.00  0.00    +0.044 C 
ATOM     12  C   UNL     1     -10.362  -3.314  -0.657  0.00  0.00    -0.049 A 
ATOM     13  C   UNL     1     -10.628  -2.116  -0.009  0.00  0.00    +0.005 A 
ATOM     14  C   UNL     1      -9.649  -1.206   0.240  0.00  0.00    +0.029 A 
ATOM     15  C   UNL     1      -8.312  -1.452  -0.157  0.00  0.00    +0.079 A 
ATOM     16  C   UNL     1      -8.073  -2.681  -0.816  0.00  0.00    +0.040 A 
ATOM     17  C   UNL     1      -9.070  -3.594  -1.062  0.00  0.00    +0.020 A 
ATOM     18  S   UNL     1      -6.328  -2.606  -1.137  0.00  0.00    -0.067 S 
ATOM     19  C   UNL     1      -6.035  -1.003  -0.403  0.00  0.00    +0.109 A 
ATOM     20  N   UNL     1      -7.234  -0.664   0.018  0.00  0.00    -0.239 NA
ENDBRANCH   5  19
ENDBRANCH   1   8
BRANCH   2  21
ATOM     21  C   UNL     1       1.277   1.961   0.165  0.00  0.00    +0.019 C 
BRANCH  21  27
ATOM     22  C   UNL     1       2.352   0.419   1.692  0.00  0.00    -0.059 C 
ATOM     23  C   UNL     1       3.477  -0.611   1.818  0.00  0.00    +0.086 C 
ATOM     24  N   UNL     1       4.768   0.046   1.576  0.00  0.00    -0.333 N 
ATOM     25  C   UNL     1       4.806   0.648   0.235  0.00  0.00    +0.086 C 
ATOM     26  C   UNL     1       3.681   1.677   0.109  0.00  0.00    -0.059 C 
ATOM     27  N   UNL     1       2.387   0.999   0.333  0.00  0.00    +0.387 N 
ATOM     28  H   UNL     1       2.282   0.244  -0.355  0.00  0.00    -0.081 HD
BRANCH  24  29
ATOM     29  C   UNL     1       5.828  -0.850   1.754  0.00  0.00    +0.030 A 
ATOM     30  C   UNL     1       6.734  -1.067   0.724  0.00  0.00    +0.026 A 
ATOM     31  C   UNL     1       7.784  -1.948   0.902  0.00  0.00    +0.047 A 
ATOM     32  C   UNL     1       7.926  -2.623   2.106  0.00  0.00    +0.117 A 
ATOM     33  C   UNL     1       7.018  -2.410   3.133  0.00  0.00    +0.047 A 
ATOM     34  C   UNL     1       5.972  -1.526   2.958  0.00  0.00    +0.026 A 
BRANCH  32  35
ATOM     35  O   UNL     1       8.956  -3.494   2.278  0.00  0.00    -0.507 OA
ATOM     36  H   UNL     1       8.750  -4.403   2.019  0.00  0.00    +0.292 HD
ENDBRANCH  32  35
ENDBRANCH  24  29
ENDBRANCH  21  27
ENDBRANCH   2  21
TORSDOF 6
