REMARK  Name = ZINC09165018
REMARK  9 active torsions:
REMARK  status: ('A' for Active; 'I' for Inactive)
REMARK    1  A    between atoms: C_1  and  C_2
REMARK    2  A    between atoms: C_5  and  N_8
REMARK    3  A    between atoms: N_11  and  C_12
REMARK    4  A    between atoms: C_12  and  N_21
REMARK    5  A    between atoms: C_12  and  N_57
REMARK    6  A    between atoms: C_13  and  C_14
REMARK    7  A    between atoms: C_13  and  N_57
REMARK    8  A    between atoms: N_24  and  C_25
REMARK    9  A    between atoms: C_28  and  C_31
REMARK                            x       y       z     vdW  Elec       q    Type
REMARK                         _______ _______ _______ _____ _____    ______ ____
ROOT
ATOM      1  C   UNL     1       3.930  -5.229  -0.170  0.00  0.00    +0.105 C 
ENDROOT
BRANCH   1   5
ATOM      2  N   UNL     1       1.611  -2.551   0.814  0.00  0.00    -0.269 N 
ATOM      3  C   UNL     1       2.741  -3.202   0.473  0.00  0.00    +0.304 C 
ATOM      4  O   UNL     1       3.795  -2.599   0.409  0.00  0.00    -0.253 OA
ATOM      5  N   UNL     1       2.703  -4.522   0.201  0.00  0.00    -0.296 N 
ATOM      6  H   UNL     1       0.786  -3.045   0.937  0.00  0.00    +0.156 HD
ATOM      7  H   UNL     1       1.862  -5.003   0.252  0.00  0.00    +0.150 HD
BRANCH   2  12
ATOM      8  C   UNL     1       1.686   3.077   1.528  0.00  0.00    +0.044 C 
ATOM      9  C   UNL     1       1.666   1.582   1.339  0.00  0.00    -0.050 A 
ATOM     10  C   UNL     1       2.501   0.994   0.407  0.00  0.00    +0.005 A 
ATOM     11  C   UNL     1       2.486  -0.376   0.231  0.00  0.00    +0.023 A 
ATOM     12  C   UNL     1       1.630  -1.163   0.990  0.00  0.00    +0.035 A 
ATOM     13  C   UNL     1       0.792  -0.569   1.925  0.00  0.00    +0.023 A 
ATOM     14  C   UNL     1       0.813   0.801   2.097  0.00  0.00    +0.005 A 
ENDBRANCH   2  12
ENDBRANCH   1   5
BRANCH   1  15
ATOM     15  N   UNL     1       3.588  -6.529  -0.753  0.00  0.00    -0.296 N 
ATOM     16  C   UNL     1       4.507  -7.212  -1.463  0.00  0.00    +0.304 C 
ATOM     17  O   UNL     1       5.646  -6.793  -1.547  0.00  0.00    -0.253 OA
ATOM     18  N   UNL     1       4.165  -8.361  -2.080  0.00  0.00    -0.269 N 
ATOM     19  H   UNL     1       2.699  -6.897  -0.628  0.00  0.00    +0.150 HD
ATOM     20  H   UNL     1       3.243  -8.661  -2.068  0.00  0.00    +0.156 HD
BRANCH  18  21
ATOM     21  C   UNL     1       5.141  -9.120  -2.736  0.00  0.00    +0.035 A 
ATOM     22  C   UNL     1       6.174  -8.488  -3.415  0.00  0.00    +0.023 A 
ATOM     23  C   UNL     1       7.138  -9.239  -4.058  0.00  0.00    +0.005 A 
ATOM     24  C   UNL     1       7.068 -10.620  -4.036  0.00  0.00    -0.050 A 
ATOM     25  C   UNL     1       6.037 -11.253  -3.366  0.00  0.00    +0.005 A 
ATOM     26  C   UNL     1       5.073 -10.507  -2.716  0.00  0.00    +0.023 A 
ATOM     27  C   UNL     1       8.118 -11.438  -4.744  0.00  0.00    +0.044 C 
ENDBRANCH  18  21
ENDBRANCH   1  15
BRANCH   1  28
ATOM     28  N   UNL     1       4.755  -5.436   1.036  0.00  0.00    +0.404 N 
ATOM     29  H   UNL     1       4.712  -6.425   1.310  0.00  0.00    -0.080 HD
ATOM     30  H   UNL     1       4.392  -4.853   1.799  0.00  0.00    -0.080 HD
BRANCH  28  31
ATOM     31  C   UNL     1       6.158  -5.067   0.766  0.00  0.00    -0.042 C 
BRANCH  31  32
ATOM     32  C   UNL     1       6.994  -5.383   1.979  0.00  0.00    -0.064 A 
ATOM     33  C   UNL     1       7.175  -4.429   2.962  0.00  0.00    +0.003 A 
ATOM     34  C   UNL     1       7.937  -4.721   4.078  0.00  0.00    +0.020 A 
ATOM     35  C   UNL     1       8.528  -5.965   4.205  0.00  0.00    +0.041 A 
ATOM     36  C   UNL     1       8.351  -6.918   3.218  0.00  0.00    +0.020 A 
ATOM     37  C   UNL     1       7.585  -6.627   2.105  0.00  0.00    +0.003 A 
ATOM     38 CL   UNL     1       9.491  -6.330   5.602  0.00  0.00    -0.084 Cl
ENDBRANCH  31  32
ENDBRANCH  28  31
ENDBRANCH   1  28
TORSDOF 7
