REMARK  Name = ZINC15673553
REMARK  3 active torsions:
REMARK  status: ('A' for Active; 'I' for Inactive)
REMARK    1  A    between atoms: C_1  and  N_2
REMARK    2  A    between atoms: C_3  and  C_19
REMARK    3  A    between atoms: C_5  and  C_10
REMARK                            x       y       z     vdW  Elec       q    Type
REMARK                         _______ _______ _______ _____ _____    ______ ____
ROOT
ATOM      1  C   UNL     1       1.810   1.599   1.671  0.00  0.00    +0.159 C 
ATOM      2  N   UNL     1       1.031   2.173   0.571  0.00  0.00    -0.185 N 
ATOM      3  C   UNL     1      -0.014   1.470  -0.022  0.00  0.00    +0.117 C 
ATOM      4  C   UNL     1      -1.048   2.140  -0.571  0.00  0.00    +0.060 C 
ATOM      5  C   UNL     1      -1.151   3.597  -0.555  0.00  0.00    +0.096 C 
ATOM      6  N   UNL     1      -0.128   4.374  -0.319  0.00  0.00    -0.115 NA
ATOM      7  S   UNL     1       1.358   3.692  -0.024  0.00  0.00    +0.154 S 
ATOM      8  O   UNL     1       1.950   4.433   1.034  0.00  0.00    -0.131 OA
ATOM      9  O   UNL     1       1.990   3.516  -1.285  0.00  0.00    -0.131 OA
ENDROOT
BRANCH   3  10
ATOM     10  C   UNL     1       0.012  -0.008  -0.056  0.00  0.00    +0.266 C 
ATOM     11  O   UNL     1       1.072  -0.595  -0.160  0.00  0.00    -0.268 OA
ATOM     12  N   UNL     1      -1.138  -0.704   0.030  0.00  0.00    -0.266 N 
ATOM     13  C   UNL     1      -2.432  -0.009   0.055  0.00  0.00    +0.114 C 
ATOM     14  C   UNL     1      -3.292  -0.648   1.147  0.00  0.00    +0.024 C 
ATOM     15  C   UNL     1      -3.551  -2.110   0.784  0.00  0.00    +0.038 C 
ATOM     16  C   UNL     1      -2.257  -2.810   0.464  0.00  0.00    -0.026 A 
ATOM     17  C   UNL     1      -1.120  -2.103   0.102  0.00  0.00    +0.040 A 
ATOM     18  C   UNL     1       0.057  -2.781  -0.193  0.00  0.00    +0.024 A 
ATOM     19  C   UNL     1       0.096  -4.159  -0.123  0.00  0.00    +0.002 A 
ATOM     20  C   UNL     1      -1.037  -4.864   0.239  0.00  0.00    +0.000 A 
ATOM     21  C   UNL     1      -2.208  -4.192   0.531  0.00  0.00    +0.005 A 
ENDBRANCH   3  10
BRANCH   5  22
ATOM     22  C   UNL     1      -2.468   4.220  -0.824  0.00  0.00    +0.006 A 
ATOM     23  C   UNL     1      -3.605   3.422  -0.953  0.00  0.00    +0.014 A 
ATOM     24  C   UNL     1      -4.831   4.002  -1.202  0.00  0.00    +0.050 A 
ATOM     25  C   UNL     1      -4.938   5.380  -1.327  0.00  0.00    +0.166 A 
ATOM     26  C   UNL     1      -3.804   6.183  -1.200  0.00  0.00    +0.167 A 
ATOM     27  C   UNL     1      -2.575   5.606  -0.944  0.00  0.00    +0.059 A 
ATOM     28  O   UNL     1      -4.173   7.487  -1.363  0.00  0.00    -0.453 OA
ATOM     29  C   UNL     1      -5.601   7.507  -1.183  0.00  0.00    +0.466 C 
ATOM     30  O   UNL     1      -6.014   6.183  -1.569  0.00  0.00    -0.453 OA
ENDBRANCH   5  22
TORSDOF 2
