REMARK  Name = ZINC09525472
REMARK  6 active torsions:
REMARK  status: ('A' for Active; 'I' for Inactive)
REMARK    1  A    between atoms: C_1  and  C_2
REMARK    2  A    between atoms: C_2  and  S_3
REMARK    3  A    between atoms: S_3  and  C_6
REMARK    4  A    between atoms: C_9  and  C_12
REMARK    5  A    between atoms: N_14  and  C_15
REMARK    6  A    between atoms: C_15  and  C_16
REMARK                            x       y       z     vdW  Elec       q    Type
REMARK                         _______ _______ _______ _____ _____    ______ ____
ROOT
ATOM      1  C   UNL     1       4.878  -0.231  -2.124  0.00  0.00    +0.253 C 
ATOM      2  O   UNL     1       4.424  -0.129  -3.248  0.00  0.00    -0.270 OA
ATOM      3  N   UNL     1       4.812  -1.410  -1.475  0.00  0.00    -0.242 N 
ATOM      4  C   UNL     1       4.374  -2.543  -2.140  0.00  0.00    +0.169 A 
ATOM      5  N   UNL     1       3.983  -2.666  -3.387  0.00  0.00    -0.224 NA
ATOM      6  C   UNL     1       3.577  -3.845  -3.908  0.00  0.00    +0.080 A 
ATOM      7  C   UNL     1       3.135  -4.111  -5.224  0.00  0.00    +0.030 A 
ATOM      8  C   UNL     1       2.756  -5.375  -5.593  0.00  0.00    +0.017 A 
ATOM      9  C   UNL     1       2.790  -6.434  -4.695  0.00  0.00    +0.019 A 
ATOM     10  C   UNL     1       3.217  -6.208  -3.398  0.00  0.00    +0.032 A 
ATOM     11  C   UNL     1       3.599  -4.945  -3.021  0.00  0.00    +0.042 A 
ATOM     12  S   UNL     1       4.203  -4.210  -1.520  0.00  0.00    -0.052 S 
ATOM     13 BR   UNL     1       2.260  -8.166  -5.239  0.00  0.00    -0.050 Br
ENDROOT
BRANCH   1  17
ATOM     14  C   UNL     1       6.667   3.131  -0.245  0.00  0.00    +0.088 A 
ATOM     15  C   UNL     1       7.000   2.813  -1.550  0.00  0.00    +0.027 A 
ATOM     16  C   UNL     1       6.423   1.723  -2.166  0.00  0.00    +0.015 A 
ATOM     17  C   UNL     1       5.500   0.939  -1.470  0.00  0.00    +0.037 A 
ATOM     18  C   UNL     1       5.164   1.269  -0.156  0.00  0.00    +0.015 A 
ATOM     19  C   UNL     1       5.754   2.359   0.450  0.00  0.00    +0.027 A 
BRANCH  14  20
ATOM     20  S   UNL     1       7.410   4.526   0.535  0.00  0.00    -0.003 S 
ATOM     21  O   UNL     1       7.369   4.229   1.924  0.00  0.00    -0.169 OA
ATOM     22  O   UNL     1       8.652   4.696  -0.133  0.00  0.00    -0.169 OA
BRANCH  20  24
ATOM     23  C   UNL     1       6.856   7.192   0.795  0.00  0.00    +0.028 C 
ATOM     24  C   UNL     1       6.304   5.914   0.161  0.00  0.00    +0.168 C 
ENDBRANCH  20  24
ENDBRANCH  14  20
ENDBRANCH   1  17
BRANCH   3  25
ATOM     25  C   UNL     1       5.206  -1.494  -0.067  0.00  0.00    +0.151 C 
BRANCH  25  26
ATOM     26  C   UNL     1       4.169  -2.274   0.699  0.00  0.00    -0.030 A 
ATOM     27  C   UNL     1       4.407  -3.593   1.038  0.00  0.00    +0.005 A 
ATOM     28  C   UNL     1       3.456  -4.309   1.740  0.00  0.00    +0.000 A 
ATOM     29  C   UNL     1       2.266  -3.706   2.104  0.00  0.00    +0.000 A 
ATOM     30  C   UNL     1       2.028  -2.387   1.766  0.00  0.00    +0.000 A 
ATOM     31  C   UNL     1       2.979  -1.671   1.063  0.00  0.00    +0.005 A 
ENDBRANCH  25  26
ENDBRANCH   3  25
TORSDOF 5
