REMARK  Name = ZINC64541171
REMARK  5 active torsions:
REMARK  status: ('A' for Active; 'I' for Inactive)
REMARK    1  A    between atoms: C_1  and  C_2
REMARK    2  A    between atoms: C_2  and  C_4
REMARK    3  A    between atoms: C_2  and  C_23
REMARK    4  A    between atoms: C_10  and  C_12
REMARK    5  A    between atoms: N_28  and  C_31
REMARK                            x       y       z     vdW  Elec       q    Type
REMARK                         _______ _______ _______ _____ _____    ______ ____
ROOT
ATOM      1  C   UNL     1      -1.503  -0.284   0.008  0.00  0.00    +0.004 C 
ATOM      2  C   UNL     1      -2.108   0.209   1.324  0.00  0.00    +0.023 C 
ATOM      3  C   UNL     1      -3.620  -0.038   1.312  0.00  0.00    +0.108 C 
ATOM      4  N   UNL     1      -3.864  -1.460   1.030  0.00  0.00    -0.300 N 
ATOM      5  C   UNL     1      -3.253  -2.059  -0.164  0.00  0.00    +0.108 C 
ATOM      6  C   UNL     1      -1.745  -1.789  -0.135  0.00  0.00    +0.023 C 
ATOM      7  C   UNL     1      -4.633  -2.200   1.853  0.00  0.00    +0.242 C 
ATOM      8  O   UNL     1      -5.132  -1.694   2.836  0.00  0.00    -0.273 OA
ENDROOT
BRANCH   7   9
ATOM      9  C   UNL     1      -4.874  -3.657   1.551  0.00  0.00    +0.190 C 
ATOM     10  C   UNL     1      -3.568  -4.418   1.582  0.00  0.00    +0.016 C 
ATOM     11  C   UNL     1      -3.699  -5.347   2.557  0.00  0.00    -0.002 A 
ATOM     12  C   UNL     1      -2.793  -6.381   3.072  0.00  0.00    +0.029 A 
ATOM     13  C   UNL     1      -3.216  -7.180   4.079  0.00  0.00    +0.042 A 
ATOM     14  C   UNL     1      -4.493  -7.044   4.642  0.00  0.00    +0.022 A 
ATOM     15  C   UNL     1      -5.380  -6.117   4.222  0.00  0.00    +0.027 A 
ATOM     16  C   UNL     1      -5.041  -5.224   3.168  0.00  0.00    +0.043 A 
ATOM     17  N   UNL     1      -5.716  -4.256   2.592  0.00  0.00    -0.370 N 
ATOM     18 CL   UNL     1      -2.148  -8.405   4.691  0.00  0.00    -0.084 Cl
ATOM     19  H   UNL     1      -6.619  -3.983   2.817  0.00  0.00    +0.161 HD
ENDBRANCH   7   9
BRANCH   1  21
ATOM     20  C   UNL     1       0.243   1.497   0.145  0.00  0.00    +0.017 C 
ATOM     21  C   UNL     1       0.001  -0.007   0.003  0.00  0.00    +0.075 C 
BRANCH  21  22
ATOM     22  C   UNL     1       0.597  -0.491  -1.294  0.00  0.00    +0.219 C 
ATOM     23  O   UNL     1      -0.104  -0.609  -2.277  0.00  0.00    -0.275 OA
ATOM     24  N   UNL     1       1.909  -0.794  -1.362  0.00  0.00    -0.298 N 
ATOM     25  C   UNL     1       2.746  -0.764  -0.155  0.00  0.00    +0.126 C 
ATOM     26  C   UNL     1       3.429  -2.129   0.002  0.00  0.00    +0.124 C 
ATOM     27  N   UNL     1       4.047  -2.494  -1.281  0.00  0.00    -0.325 N 
ATOM     28  C   UNL     1       3.209  -2.524  -2.488  0.00  0.00    +0.124 C 
ATOM     29  C   UNL     1       2.525  -1.165  -2.643  0.00  0.00    +0.126 C 
BRANCH  27  30
ATOM     30  C   UNL     1       5.408  -2.808  -1.351  0.00  0.00    +0.065 A 
ATOM     31  C   UNL     1       5.829  -4.121  -1.186  0.00  0.00    +0.026 A 
ATOM     32  C   UNL     1       7.174  -4.428  -1.256  0.00  0.00    +0.002 A 
ATOM     33  C   UNL     1       8.102  -3.430  -1.491  0.00  0.00    +0.003 A 
ATOM     34  C   UNL     1       7.688  -2.121  -1.656  0.00  0.00    +0.040 A 
ATOM     35  C   UNL     1       6.342  -1.807  -1.593  0.00  0.00    +0.144 A 
ATOM     36  F   UNL     1       5.937  -0.529  -1.760  0.00  0.00    -0.204 F 
ENDBRANCH  27  30
ENDBRANCH  21  22
ENDBRANCH   1  21
TORSDOF 4
