REMARK  Name = ZINC02364709
REMARK  6 active torsions:
REMARK  status: ('A' for Active; 'I' for Inactive)
REMARK    1  A    between atoms: C_1  and  C_2
REMARK    2  A    between atoms: C_2  and  N_3
REMARK    3  A    between atoms: C_4  and  C_28
REMARK    4  A    between atoms: C_10  and  C_18
REMARK    5  A    between atoms: C_12  and  C_16
REMARK    6  A    between atoms: C_13  and  N_15
REMARK                            x       y       z     vdW  Elec       q    Type
REMARK                         _______ _______ _______ _____ _____    ______ ____
ROOT
ATOM      1  N   UNL     1      -2.804   4.826   3.616  0.00  0.00    -0.312 N 
ATOM      2  C   UNL     1      -2.744   6.183   3.602  0.00  0.00    +0.022 A 
ATOM      3  C   UNL     1      -2.657   6.862   2.439  0.00  0.00    +0.068 A 
ATOM      4  C   UNL     1      -2.627   6.158   1.217  0.00  0.00    +0.141 A 
ATOM      5  C   UNL     1      -2.688   4.781   1.239  0.00  0.00    +0.072 A 
ATOM      6  C   UNL     1      -2.778   4.119   2.470  0.00  0.00    +0.259 A 
ATOM      7  O   UNL     1      -2.832   2.899   2.505  0.00  0.00    -0.267 OA
ATOM      8  C   UNL     1      -2.659   3.990  -0.040  0.00  0.00    +0.104 C 
ATOM      9  C   UNL     1      -2.962   4.885  -1.209  0.00  0.00    +0.098 C 
ATOM     10  C   UNL     1      -2.888   6.232  -1.099  0.00  0.00    +0.199 C 
ATOM     11  O   UNL     1      -2.542   6.834   0.052  0.00  0.00    -0.441 OA
ATOM     12  C   UNL     1      -2.777   6.941   4.904  0.00  0.00    +0.064 C 
ENDROOT
BRANCH   8  13
ATOM     13  C   UNL     1      -1.293   3.379  -0.219  0.00  0.00    -0.017 A 
ATOM     14  C   UNL     1      -0.179   4.194  -0.301  0.00  0.00    +0.055 A 
ATOM     15  C   UNL     1       1.078   3.635  -0.465  0.00  0.00    +0.167 A 
ATOM     16  C   UNL     1       1.216   2.251  -0.547  0.00  0.00    +0.167 A 
ATOM     17  C   UNL     1       0.096   1.441  -0.464  0.00  0.00    +0.065 A 
ATOM     18  C   UNL     1      -1.157   2.006  -0.305  0.00  0.00    +0.026 A 
ATOM     19 BR   UNL     1      -2.685   0.897  -0.199  0.00  0.00    -0.050 Br
ATOM     20  O   UNL     1       2.539   1.954  -0.706  0.00  0.00    -0.453 OA
ATOM     21  C   UNL     1       3.250   3.142  -0.312  0.00  0.00    +0.466 C 
ATOM     22  O   UNL     1       2.314   4.204  -0.573  0.00  0.00    -0.453 OA
ENDBRANCH   8  13
BRANCH  10  23
ATOM     23  N   UNL     1      -3.174   7.007  -2.196  0.00  0.00    -0.328 N 
ATOM     24  H   UNL     1      -3.118   8.103  -2.124  0.00  0.00    +0.145 HD
ATOM     25  H   UNL     1      -3.458   6.531  -3.146  0.00  0.00    +0.145 HD
ENDBRANCH  10  23
BRANCH   1  27
ATOM     26  C   UNL     1      -1.494   3.766   5.388  0.00  0.00    +0.027 C 
ATOM     27  C   UNL     1      -2.898   4.121   4.896  0.00  0.00    +0.122 C 
ENDBRANCH   1  27
BRANCH   9  28
ATOM     28  C   UNL     1      -3.336   4.302  -2.462  0.00  0.00    +0.101 C 
ATOM     29  N   UNL     1      -3.633   3.839  -3.456  0.00  0.00    -0.191 NA
ENDBRANCH   9  28
TORSDOF 4
