REMARK  Name = ZINC09541698
REMARK  7 active torsions:
REMARK  status: ('A' for Active; 'I' for Inactive)
REMARK    1  A    between atoms: C_1  and  C_2
REMARK    2  A    between atoms: C_2  and  O_3
REMARK    3  A    between atoms: O_3  and  C_4
REMARK    4  A    between atoms: C_8  and  C_11
REMARK    5  A    between atoms: C_9  and  O_10
REMARK    6  A    between atoms: C_14  and  C_26
REMARK    7  A    between atoms: C_16  and  C_19
REMARK                            x       y       z     vdW  Elec       q    Type
REMARK                         _______ _______ _______ _____ _____    ______ ____
ROOT
ATOM      1  C   UNL     1      -4.316  -4.377   0.007  0.00  0.00    -0.028 C 
ATOM      2  C   UNL     1      -4.841  -4.473  -1.429  0.00  0.00    +0.044 C 
ATOM      3  C   UNL     1      -6.072  -5.338  -1.453  0.00  0.00    +0.040 C 
ATOM      4  N   UNL     1      -6.400  -6.104  -0.480  0.00  0.00    -0.299 NA
ATOM      5  C   UNL     1      -5.637  -6.225   0.755  0.00  0.00    +0.081 C 
ATOM      6  N   UNL     1      -4.266  -5.735   0.574  0.00  0.00    +0.401 N 
ATOM      7  H   UNL     1      -3.770  -6.346  -0.057  0.00  0.00    -0.081 HD
ATOM      8  H   UNL     1      -3.794  -5.712   1.465  0.00  0.00    -0.081 HD
ENDROOT
BRANCH   3   9
ATOM      9  C   UNL     1      -6.937  -5.300  -2.646  0.00  0.00    -0.001 A 
ATOM     10  C   UNL     1      -6.605  -4.479  -3.727  0.00  0.00    +0.013 A 
ATOM     11  C   UNL     1      -7.415  -4.447  -4.841  0.00  0.00    +0.050 A 
ATOM     12  C   UNL     1      -8.562  -5.227  -4.895  0.00  0.00    +0.166 A 
ATOM     13  C   UNL     1      -8.899  -6.049  -3.819  0.00  0.00    +0.167 A 
ATOM     14  C   UNL     1      -8.088  -6.090  -2.701  0.00  0.00    +0.059 A 
ATOM     15  O   UNL     1     -10.059  -6.705  -4.119  0.00  0.00    -0.453 OA
ATOM     16  C   UNL     1     -10.643  -5.971  -5.211  0.00  0.00    +0.466 C 
ATOM     17  O   UNL     1      -9.510  -5.370  -5.865  0.00  0.00    -0.453 OA
ENDBRANCH   3   9
BRANCH   5  18
ATOM     18  C   UNL     1      -6.311  -5.419   1.835  0.00  0.00    -0.040 A 
ATOM     19  C   UNL     1      -5.558  -4.850   2.845  0.00  0.00    +0.005 A 
ATOM     20  C   UNL     1      -6.175  -4.111   3.836  0.00  0.00    +0.020 A 
ATOM     21  C   UNL     1      -7.548  -3.939   3.817  0.00  0.00    +0.041 A 
ATOM     22  C   UNL     1      -8.301  -4.508   2.805  0.00  0.00    +0.020 A 
ATOM     23  C   UNL     1      -7.682  -5.243   1.812  0.00  0.00    +0.005 A 
ATOM     24 CL   UNL     1      -8.324  -3.010   5.061  0.00  0.00    -0.084 Cl
ENDBRANCH   5  18
BRANCH   1  29
ATOM     25  C   UNL     1      -1.498  -1.849   0.006  0.00  0.00    +0.162 A 
ATOM     26  C   UNL     1      -0.389  -2.680  -0.003  0.00  0.00    +0.049 A 
ATOM     27  C   UNL     1      -0.553  -4.052  -0.008  0.00  0.00    +0.004 A 
ATOM     28  C   UNL     1      -1.823  -4.600  -0.005  0.00  0.00    +0.006 A 
ATOM     29  C   UNL     1      -2.934  -3.777   0.004  0.00  0.00    -0.016 A 
ATOM     30  C   UNL     1      -2.776  -2.400   0.016  0.00  0.00    +0.160 A 
BRANCH  30  31
ATOM     31  O   UNL     1      -3.868  -1.589   0.030  0.00  0.00    -0.503 OA
ATOM     32  H   UNL     1      -4.192  -1.350  -0.849  0.00  0.00    +0.292 HD
ENDBRANCH  30  31
BRANCH  25  33
ATOM     33  O   UNL     1      -1.339  -0.499   0.012  0.00  0.00    -0.489 OA
BRANCH  33  35
ATOM     34  C   UNL     1      -0.019   1.526   0.010  0.00  0.00    +0.048 C 
ATOM     35  C   UNL     1       0.002  -0.004   0.002  0.00  0.00    +0.226 C 
ENDBRANCH  33  35
ENDBRANCH  25  33
ENDBRANCH   1  29
TORSDOF 6
