REMARK  Name = ZINC52838562
REMARK  12 active torsions:
REMARK  status: ('A' for Active; 'I' for Inactive)
REMARK    1  A    between atoms: C_1  and  C_2
REMARK    2  A    between atoms: C_2  and  C_3
REMARK    3  A    between atoms: C_2  and  C_4
REMARK    4  A    between atoms: C_2  and  C_5
REMARK    5  A    between atoms: C_5  and  C_7
REMARK    6  A    between atoms: C_5  and  N_12
REMARK    7  A    between atoms: N_12  and  C_13
REMARK    8  A    between atoms: C_13  and  C_14
REMARK    9  A    between atoms: N_16  and  C_17
REMARK   10  A    between atoms: C_22  and  S_23
REMARK   11  A    between atoms: S_23  and  C_24
REMARK   12  A    between atoms: C_24  and  C_25
REMARK                            x       y       z     vdW  Elec       q    Type
REMARK                         _______ _______ _______ _____ _____    ______ ____
ROOT
ATOM      1  C   UNL     1      -0.479  -3.996  -0.931  0.00  0.00    +0.200 C 
ATOM      2  O   UNL     1       0.581  -4.540  -0.705  0.00  0.00    -0.278 OA
ATOM      3  N   UNL     1      -1.598  -4.733  -1.080  0.00  0.00    -0.286 N 
ATOM      4  H   UNL     1      -2.431  -4.305  -1.333  0.00  0.00    +0.155 HD
ENDROOT
BRANCH   3   5
ATOM      5  C   UNL     1      -1.557  -6.118  -0.869  0.00  0.00    +0.047 A 
ATOM      6  C   UNL     1      -0.698  -6.652   0.079  0.00  0.00    +0.024 A 
ATOM      7  C   UNL     1      -0.659  -8.018   0.285  0.00  0.00    +0.002 A 
ATOM      8  C   UNL     1      -1.475  -8.857  -0.452  0.00  0.00    +0.001 A 
ATOM      9  C   UNL     1      -2.335  -8.334  -1.400  0.00  0.00    +0.016 A 
ATOM     10  C   UNL     1      -2.384  -6.963  -1.609  0.00  0.00    +0.030 A 
BRANCH  10  11
ATOM     11  S   UNL     1      -3.484  -6.292  -2.812  0.00  0.00    -0.114 S 
BRANCH  11  12
ATOM     12  C   UNL     1      -4.328  -7.745  -3.494  0.00  0.00    +0.169 C 
BRANCH  12  13
ATOM     13  C   UNL     1      -5.310  -7.307  -4.549  0.00  0.00    +0.221 C 
ATOM     14  O   UNL     1      -5.429  -6.129  -4.815  0.00  0.00    -0.275 OA
ATOM     15  N   UNL     1      -6.056  -8.223  -5.198  0.00  0.00    -0.329 N 
ATOM     16  H   UNL     1      -5.961  -9.164  -4.985  0.00  0.00    +0.145 HD
ATOM     17  H   UNL     1      -6.689  -7.940  -5.877  0.00  0.00    +0.145 HD
ENDBRANCH  12  13
ENDBRANCH  11  12
ENDBRANCH  10  11
ENDBRANCH   3   5
BRANCH   1  18
ATOM     18  C   UNL     1      -0.546  -2.494  -1.046  0.00  0.00    +0.016 C 
BRANCH  18  19
ATOM     19  N   UNL     1       0.795  -1.928  -0.846  0.00  0.00    +0.390 N 
ATOM     20  H   UNL     1       1.439  -2.350  -1.499  0.00  0.00    -0.084 HD
ATOM     21  H   UNL     1       1.102  -2.115   0.097  0.00  0.00    -0.084 HD
BRANCH  19  22
ATOM     22  C   UNL     1       0.752  -0.477  -1.069  0.00  0.00    -0.028 C 
BRANCH  22  23
ATOM     23  C   UNL     1       0.435  -0.200  -2.517  0.00  0.00    -0.024 A 
ATOM     24  C   UNL     1      -0.366   0.755  -3.048  0.00  0.00    +0.009 A 
ATOM     25  C   UNL     1      -0.509   0.823  -4.421  0.00  0.00    +0.008 A 
ATOM     26  C   UNL     1       0.157  -0.068  -5.196  0.00  0.00    +0.045 A 
ATOM     27  S   UNL     1       1.025  -1.041  -3.977  0.00  0.00    -0.103 S 
ENDBRANCH  22  23
BRANCH  22  29
ATOM     28  C   UNL     1       2.035   1.656  -0.855  0.00  0.00    +0.009 C 
ATOM     29  C   UNL     1       2.110   0.134  -0.718  0.00  0.00    -0.046 C 
ATOM     30  C   UNL     1       3.176  -0.412  -1.671  0.00  0.00    +0.009 C 
ATOM     31  C   UNL     1       2.477  -0.232   0.721  0.00  0.00    +0.009 C 
ENDBRANCH  22  29
ENDBRANCH  19  22
ENDBRANCH  18  19
ENDBRANCH   1  18
TORSDOF 9
