REMARK  Name = ZINC24778817
REMARK  6 active torsions:
REMARK  status: ('A' for Active; 'I' for Inactive)
REMARK    1  A    between atoms: C_1  and  C_2
REMARK    2  A    between atoms: C_2  and  C_4
REMARK    3  A    between atoms: C_7  and  N_11
REMARK    4  A    between atoms: C_17  and  C_19
REMARK    5  A    between atoms: C_19  and  N_20
REMARK    6  A    between atoms: C_29  and  C_31
REMARK                            x       y       z     vdW  Elec       q    Type
REMARK                         _______ _______ _______ _____ _____    ______ ____
ROOT
ATOM      1  N   UNL     1      -0.361  10.979  -3.859  0.00  0.00    -0.325 N 
ATOM      2  C   UNL     1      -0.190   9.672  -4.508  0.00  0.00    +0.124 C 
ATOM      3  C   UNL     1      -1.292   8.720  -4.029  0.00  0.00    +0.126 C 
ATOM      4  N   UNL     1      -1.278   8.691  -2.559  0.00  0.00    -0.300 N 
ATOM      5  C   UNL     1      -1.314   9.972  -1.837  0.00  0.00    +0.126 C 
ATOM      6  C   UNL     1      -0.205  10.874  -2.402  0.00  0.00    +0.124 C 
ATOM      7  C   UNL     1      -1.239   7.521  -1.890  0.00  0.00    +0.199 C 
ATOM      8  O   UNL     1      -1.215   6.474  -2.502  0.00  0.00    -0.278 OA
ENDROOT
BRANCH   1  12
ATOM      9  C   UNL     1       2.268  13.782  -5.449  0.00  0.00    +0.020 A 
ATOM     10  C   UNL     1       1.328  13.148  -6.271  0.00  0.00    +0.013 A 
ATOM     11  C   UNL     1       0.467  12.229  -5.744  0.00  0.00    +0.027 A 
ATOM     12  C   UNL     1       0.519  11.916  -4.388  0.00  0.00    +0.065 A 
ATOM     13  C   UNL     1       1.447  12.545  -3.559  0.00  0.00    +0.145 A 
ATOM     14  C   UNL     1       2.322  13.470  -4.084  0.00  0.00    +0.051 A 
ATOM     15  F   UNL     1       1.491  12.243  -2.242  0.00  0.00    -0.204 F 
BRANCH   9  17
ATOM     16  C   UNL     1       4.204  15.451  -5.128  0.00  0.00    +0.091 C 
ATOM     17  C   UNL     1       3.193  14.770  -6.015  0.00  0.00    +0.160 C 
ATOM     18  O   UNL     1       3.145  15.040  -7.197  0.00  0.00    -0.292 OA
ENDBRANCH   9  17
ENDBRANCH   1  12
BRANCH   7  19
ATOM     19  C   UNL     1      -1.225   7.515  -0.384  0.00  0.00    +0.020 C 
BRANCH  19  20
ATOM     20  N   UNL     1      -1.182   6.128   0.100  0.00  0.00    +0.396 N 
ATOM     21  C   UNL     1       0.069   5.473  -0.295  0.00  0.00    -0.041 C 
ATOM     22  C   UNL     1       0.060   4.025   0.120  0.00  0.00    -0.061 A 
ATOM     23  C   UNL     1       1.268   3.344   0.167  0.00  0.00    +0.002 A 
ATOM     24  C   UNL     1       1.305   2.015   0.538  0.00  0.00    +0.000 A 
ATOM     25  C   UNL     1       0.134   1.357   0.863  0.00  0.00    +0.000 A 
ATOM     26  C   UNL     1      -1.070   2.032   0.811  0.00  0.00    +0.004 A 
ATOM     27  C   UNL     1      -1.108   3.369   0.446  0.00  0.00    -0.047 A 
ATOM     28  C   UNL     1      -2.443   4.068   0.415  0.00  0.00    +0.029 C 
ATOM     29  C   UNL     1      -2.336   5.361  -0.394  0.00  0.00    +0.024 C 
ATOM     30  H   UNL     1      -1.224   6.157   1.198  0.00  0.00    -0.080 HD
BRANCH  29  31
ATOM     31  C   UNL     1      -3.594   6.174  -0.225  0.00  0.00    +0.197 C 
ATOM     32  O   UNL     1      -3.712   6.919   0.725  0.00  0.00    -0.278 OA
ATOM     33  N   UNL     1      -4.588   6.073  -1.129  0.00  0.00    -0.331 N 
ATOM     34  H   UNL     1      -5.506   6.667  -1.006  0.00  0.00    +0.145 HD
ATOM     35  H   UNL     1      -4.482   5.398  -1.991  0.00  0.00    +0.145 HD
ENDBRANCH  29  31
ENDBRANCH  19  20
ENDBRANCH   7  19
TORSDOF 5
