REMARK  Name = ZINC66200704
REMARK  15 active torsions:
REMARK  status: ('A' for Active; 'I' for Inactive)
REMARK    1  A    between atoms: C_1  and  C_2
REMARK    2  A    between atoms: C_2  and  C_4
REMARK    3  A    between atoms: C_2  and  C_14
REMARK    4  A    between atoms: C_7  and  C_10
REMARK    5  A    between atoms: C_10  and  C_11
REMARK    6  A    between atoms: C_11  and  C_12
REMARK    7  A    between atoms: C_11  and  C_13
REMARK    8  A    between atoms: N_16  and  C_17
REMARK    9  A    between atoms: C_17  and  N_19
REMARK   10  A    between atoms: N_19  and  C_20
REMARK   11  A    between atoms: C_23  and  S_26
REMARK   12  A    between atoms: S_26  and  N_29
REMARK   13  A    between atoms: N_29  and  C_30
REMARK   14  A    between atoms: C_32  and  O_36
REMARK   15  A    between atoms: O_36  and  C_37
REMARK                            x       y       z     vdW  Elec       q    Type
REMARK                         _______ _______ _______ _____ _____    ______ ____
ROOT
ATOM      1  N   UNL     1      -4.364  -0.353  -1.980  0.00  0.00    -0.297 N 
ATOM      2  H   UNL     1      -3.974   0.030  -2.781  0.00  0.00    +0.154 HD
ENDROOT
BRANCH   1   3
ATOM      3  C   UNL     1      -5.642  -0.920  -2.026  0.00  0.00    +0.033 A 
ATOM      4  C   UNL     1      -6.569  -0.628  -1.033  0.00  0.00    +0.025 A 
ATOM      5  C   UNL     1      -7.829  -1.190  -1.081  0.00  0.00    +0.031 A 
ATOM      6  C   UNL     1      -8.169  -2.042  -2.116  0.00  0.00    +0.111 A 
ATOM      7  C   UNL     1      -7.249  -2.335  -3.105  0.00  0.00    +0.031 A 
ATOM      8  C   UNL     1      -5.988  -1.772  -3.066  0.00  0.00    +0.025 A 
BRANCH   6   9
ATOM      9  S   UNL     1      -9.779  -2.757  -2.173  0.00  0.00    +0.093 S 
ATOM     10  O   UNL     1      -9.668  -3.946  -2.943  0.00  0.00    -0.148 OA
ATOM     11  O   UNL     1     -10.271  -2.756  -0.840  0.00  0.00    -0.148 OA
BRANCH   9  12
ATOM     12  N   UNL     1     -10.743  -1.723  -3.034  0.00  0.00    -0.078 NA
BRANCH  12  13
ATOM     13  C   UNL     1     -12.079  -2.032  -3.242  0.00  0.00    +0.169 A 
ATOM     14  C   UNL     1     -12.898  -1.173  -3.970  0.00  0.00    +0.114 A 
ATOM     15  C   UNL     1     -14.228  -1.527  -4.151  0.00  0.00    +0.219 A 
ATOM     16  N   UNL     1     -14.670  -2.667  -3.626  0.00  0.00    -0.201 NA
ATOM     17  C   UNL     1     -13.865  -3.455  -2.943  0.00  0.00    +0.227 A 
ATOM     18  N   UNL     1     -12.595  -3.157  -2.754  0.00  0.00    -0.217 NA
BRANCH  15  19
ATOM     19  O   UNL     1     -15.065  -0.724  -4.851  0.00  0.00    -0.480 OA
ATOM     20  C   UNL     1     -16.419  -1.160  -4.992  0.00  0.00    +0.279 C 
ENDBRANCH  15  19
ENDBRANCH  12  13
ENDBRANCH   9  12
ENDBRANCH   6   9
ENDBRANCH   1   3
BRANCH   1  21
ATOM     21  C   UNL     1      -3.674  -0.339  -0.822  0.00  0.00    +0.141 C 
ATOM     22  S   UNL     1      -4.402  -0.916   0.616  0.00  0.00    -0.018 S 
BRANCH  21  25
ATOM     23  C   UNL     1      -1.720   0.144   0.361  0.00  0.00    +0.226 C 
ATOM     24  O   UNL     1      -2.236  -0.265   1.379  0.00  0.00    -0.275 OA
ATOM     25  N   UNL     1      -2.410   0.130  -0.797  0.00  0.00    -0.267 N 
ATOM     26  H   UNL     1      -1.998   0.457  -1.611  0.00  0.00    +0.157 HD
BRANCH  23  28
ATOM     27  C   UNL     1      -0.296   2.129  -0.065  0.00  0.00    +0.022 C 
ATOM     28  C   UNL     1      -0.308   0.668   0.390  0.00  0.00    +0.102 C 
BRANCH  28  29
ATOM     29  C   UNL     1       0.234   0.575   1.793  0.00  0.00    -0.036 A 
ATOM     30  C   UNL     1      -0.397   1.246   2.824  0.00  0.00    +0.004 A 
ATOM     31  C   UNL     1       0.100   1.160   4.111  0.00  0.00    +0.004 A 
ATOM     32  C   UNL     1       1.228   0.403   4.367  0.00  0.00    -0.047 A 
ATOM     33  C   UNL     1       1.859  -0.269   3.337  0.00  0.00    +0.004 A 
ATOM     34  C   UNL     1       1.359  -0.186   2.050  0.00  0.00    +0.004 A 
BRANCH  32  35
ATOM     35  C   UNL     1       1.771   0.311   5.770  0.00  0.00    +0.038 C 
BRANCH  35  36
ATOM     36  C   UNL     1       1.124  -0.874   6.490  0.00  0.00    -0.013 C 
ATOM     37  C   UNL     1       1.544  -2.177   5.807  0.00  0.00    +0.007 C 
ATOM     38  C   UNL     1       1.579  -0.894   7.950  0.00  0.00    +0.007 C 
ENDBRANCH  35  36
ENDBRANCH  32  35
ENDBRANCH  28  29
ENDBRANCH  23  28
ENDBRANCH  21  25
ENDBRANCH   1  21
TORSDOF 11
