REMARK  Name = ZINC07719087
REMARK  14 active torsions:
REMARK  status: ('A' for Active; 'I' for Inactive)
REMARK    1  A    between atoms: C_1  and  C_2
REMARK    2  A    between atoms: C_2  and  C_3
REMARK    3  A    between atoms: C_3  and  C_5
REMARK    4  A    between atoms: C_3  and  C_6
REMARK    5  A    between atoms: C_9  and  C_12
REMARK    6  A    between atoms: C_12  and  C_14
REMARK    7  A    between atoms: C_12  and  N_61
REMARK    8  A    between atoms: C_14  and  C_15
REMARK    9  A    between atoms: C_14  and  C_16
REMARK   10  A    between atoms: C_17  and  C_19
REMARK   11  A    between atoms: C_17  and  C_20
REMARK   12  A    between atoms: C_17  and  N_61
REMARK   13  A    between atoms: N_22  and  C_23
REMARK   14  A    between atoms: C_26  and  C_29
REMARK                            x       y       z     vdW  Elec       q    Type
REMARK                         _______ _______ _______ _____ _____    ______ ____
ROOT
ATOM      1  C   UNL     1       2.979  -4.846   1.177  0.00  0.00    +0.014 C 
ATOM      2  C   UNL     1       4.040  -5.291   2.186  0.00  0.00    -0.004 C 
ENDROOT
BRANCH   1   3
ATOM      3  C   UNL     1       2.503  -3.460   1.527  0.00  0.00    +0.203 C 
ATOM      4  O   UNL     1       2.634  -2.555   0.731  0.00  0.00    -0.277 OA
ATOM      5  N   UNL     1       1.931  -3.226   2.725  0.00  0.00    -0.287 N 
ATOM      6  H   UNL     1       1.878  -3.936   3.384  0.00  0.00    +0.155 HD
BRANCH   5   7
ATOM      7  C   UNL     1       1.418  -1.963   3.018  0.00  0.00    +0.033 A 
ATOM      8  C   UNL     1       2.054  -0.825   2.532  0.00  0.00    +0.024 A 
ATOM      9  C   UNL     1       1.549   0.423   2.819  0.00  0.00    +0.015 A 
ATOM     10  C   UNL     1       0.396   0.546   3.599  0.00  0.00    +0.037 A 
ATOM     11  C   UNL     1      -0.241  -0.599   4.086  0.00  0.00    +0.015 A 
ATOM     12  C   UNL     1       0.270  -1.844   3.795  0.00  0.00    +0.024 A 
BRANCH  10  13
ATOM     13  C   UNL     1      -0.148   1.883   3.909  0.00  0.00    +0.242 C 
ATOM     14  O   UNL     1       0.407   2.878   3.485  0.00  0.00    -0.270 OA
ATOM     15  N   UNL     1      -1.260   2.000   4.662  0.00  0.00    -0.325 N 
ATOM     16  H   UNL     1      -1.702   1.206   5.000  0.00  0.00    +0.145 HD
ATOM     17  H   UNL     1      -1.617   2.878   4.866  0.00  0.00    +0.145 HD
ENDBRANCH  10  13
ENDBRANCH   5   7
ENDBRANCH   1   3
BRANCH   1  18
ATOM     18  N   UNL     1       3.564  -4.830  -0.177  0.00  0.00    +0.391 N 
ATOM     19  H   UNL     1       3.093  -4.113  -0.741  0.00  0.00    -0.084 HD
ATOM     20  H   UNL     1       4.565  -4.611  -0.111  0.00  0.00    -0.084 HD
BRANCH  18  21
ATOM     21  C   UNL     1       3.396  -6.146  -0.823  0.00  0.00    -0.037 C 
BRANCH  21  25
ATOM     22  C   UNL     1       6.767  -8.612   0.069  0.00  0.00    -0.045 A 
ATOM     23  C   UNL     1       5.497  -9.158   0.052  0.00  0.00    +0.004 A 
ATOM     24  C   UNL     1       4.406  -8.359  -0.237  0.00  0.00    +0.002 A 
ATOM     25  C   UNL     1       4.585  -7.016  -0.508  0.00  0.00    -0.061 A 
ATOM     26  C   UNL     1       5.856  -6.471  -0.496  0.00  0.00    +0.002 A 
ATOM     27  C   UNL     1       6.946  -7.269  -0.202  0.00  0.00    +0.004 A 
BRANCH  22  28
ATOM     28  C   UNL     1       7.957  -9.483   0.383  0.00  0.00    +0.016 C 
ATOM     29  C   UNL     1       8.925  -9.471  -0.802  0.00  0.00    +0.012 C 
BRANCH  28  31
ATOM     30  C   UNL     1       9.798  -9.898   2.020  0.00  0.00    +0.004 C 
ATOM     31  C   UNL     1       8.667  -8.946   1.627  0.00  0.00    +0.004 C 
ENDBRANCH  28  31
ENDBRANCH  22  28
ENDBRANCH  21  25
BRANCH  21  32
ATOM     32  C   UNL     1       3.292  -5.952  -2.337  0.00  0.00    -0.027 C 
ATOM     33  C   UNL     1       3.037  -7.303  -3.008  0.00  0.00    +0.006 C 
ATOM     34  C   UNL     1       2.136  -5.000  -2.651  0.00  0.00    +0.006 C 
ENDBRANCH  21  32
ENDBRANCH  18  21
ENDBRANCH   1  18
TORSDOF 9
