REMARK  Name = ZINC48048033
REMARK  11 active torsions:
REMARK  status: ('A' for Active; 'I' for Inactive)
REMARK    1  A    between atoms: C_1  and  C_2
REMARK    2  A    between atoms: C_2  and  C_3
REMARK    3  A    between atoms: C_3  and  C_4
REMARK    4  A    between atoms: C_4  and  N_5
REMARK    5  A    between atoms: N_5  and  C_6
REMARK    6  A    between atoms: N_5  and  C_10
REMARK    7  A    between atoms: C_6  and  C_7
REMARK    8  A    between atoms: C_10  and  C_11
REMARK    9  A    between atoms: N_13  and  C_14
REMARK   10  A    between atoms: C_14  and  C_15
REMARK   11  A    between atoms: C_14  and  C_16
REMARK                            x       y       z     vdW  Elec       q    Type
REMARK                         _______ _______ _______ _____ _____    ______ ____
ROOT
ATOM      1  C   UNL     1       2.233  -4.428  -3.888  0.00  0.00    +0.197 C 
ATOM      2  O   UNL     1       2.823  -3.574  -4.516  0.00  0.00    -0.278 OA
ATOM      3  N   UNL     1       2.351  -5.724  -4.239  0.00  0.00    -0.310 N 
ATOM      4  H   UNL     1       1.879  -6.407  -3.736  0.00  0.00    +0.149 HD
ENDROOT
BRANCH   3   5
ATOM      5  C   UNL     1       3.190  -6.101  -5.379  0.00  0.00    +0.100 C 
ATOM      6  C   UNL     1       2.381  -5.976  -6.671  0.00  0.00    +0.033 C 
BRANCH   5   7
ATOM      7  C   UNL     1       3.653  -7.526  -5.212  0.00  0.00    -0.026 A 
ATOM      8  C   UNL     1       2.782  -8.483  -4.724  0.00  0.00    +0.007 A 
ATOM      9  C   UNL     1       3.206  -9.789  -4.570  0.00  0.00    +0.022 A 
ATOM     10  C   UNL     1       4.502 -10.140  -4.904  0.00  0.00    +0.059 A 
ATOM     11  C   UNL     1       5.374  -9.182  -5.392  0.00  0.00    +0.060 A 
ATOM     12  C   UNL     1       4.947  -7.875  -5.550  0.00  0.00    +0.027 A 
ATOM     13 CL   UNL     1       7.001  -9.620  -5.810  0.00  0.00    -0.082 Cl
ATOM     14 CL   UNL     1       5.035 -11.781  -4.710  0.00  0.00    -0.082 Cl
ENDBRANCH   5   7
ENDBRANCH   3   5
BRANCH   1  15
ATOM     15  C   UNL     1       1.370  -4.040  -2.716  0.00  0.00    +0.019 C 
BRANCH  15  16
ATOM     16  N   UNL     1       1.396  -2.580  -2.551  0.00  0.00    +0.391 N 
ATOM     17  H   UNL     1       1.146  -2.139  -3.423  0.00  0.00    -0.080 HD
BRANCH  16  18
ATOM     18  C   UNL     1       0.435  -2.188  -1.511  0.00  0.00    -0.078 C 
BRANCH  18  19
ATOM     19  C   UNL     1       0.348  -0.662  -1.446  0.00  0.00    -0.019 C 
BRANCH  19  21
ATOM     20  C   UNL     1      -0.739   1.273  -0.298  0.00  0.00    +0.004 C 
ATOM     21  C   UNL     1      -0.652  -0.253  -0.363  0.00  0.00    -0.005 C 
ENDBRANCH  19  21
ENDBRANCH  18  19
ENDBRANCH  16  18
BRANCH  16  22
ATOM     22  C   UNL     1       2.745  -2.155  -2.156  0.00  0.00    +0.019 C 
BRANCH  22  23
ATOM     23  C   UNL     1       3.141  -2.859  -0.883  0.00  0.00    +0.194 C 
ATOM     24  O   UNL     1       2.340  -3.561  -0.304  0.00  0.00    -0.278 OA
ATOM     25  N   UNL     1       4.386  -2.708  -0.389  0.00  0.00    -0.331 N 
ATOM     26  H   UNL     1       5.027  -2.147  -0.852  0.00  0.00    +0.145 HD
ATOM     27  H   UNL     1       4.641  -3.161   0.430  0.00  0.00    +0.145 HD
ENDBRANCH  22  23
ENDBRANCH  16  22
ENDBRANCH  15  16
ENDBRANCH   1  15
TORSDOF 9
