REMARK  Name = ZINC16218234
REMARK  8 active torsions:
REMARK  status: ('A' for Active; 'I' for Inactive)
REMARK    1  A    between atoms: C_6  and  N_7
REMARK    2  A    between atoms: N_7  and  C_8
REMARK    3  A    between atoms: C_8  and  N_10
REMARK    4  A    between atoms: N_10  and  N_11
REMARK    5  A    between atoms: N_11  and  C_12
REMARK    6  A    between atoms: C_15  and  S_21
REMARK    7  A    between atoms: C_17  and  N_18
REMARK    8  A    between atoms: S_21  and  N_24
REMARK                            x       y       z     vdW  Elec       q    Type
REMARK                         _______ _______ _______ _____ _____    ______ ____
ROOT
ATOM      1  N   UNL     1      -3.556  -2.059  -0.307  0.00  0.00    -0.263 N 
ATOM      2  H   UNL     1      -3.564  -1.091  -0.248  0.00  0.00    +0.170 HD
ENDROOT
BRANCH   1   3
ATOM      3  C   UNL     1      -4.760  -2.767  -0.339  0.00  0.00    +0.075 A 
ATOM      4  C   UNL     1      -4.751  -4.157  -0.341  0.00  0.00    +0.028 A 
ATOM      5  C   UNL     1      -5.943  -4.853  -0.372  0.00  0.00    +0.030 A 
ATOM      6  C   UNL     1      -7.145  -4.169  -0.402  0.00  0.00    +0.107 A 
ATOM      7  C   UNL     1      -7.157  -2.787  -0.400  0.00  0.00    +0.063 A 
ATOM      8  C   UNL     1      -5.969  -2.084  -0.363  0.00  0.00    +0.150 A 
BRANCH   8   9
ATOM      9  N   UNL     1      -5.983  -0.604  -0.354  0.00  0.00    +0.058 N 
ATOM     10  O   UNL     1      -5.184   0.005   0.318  0.00  0.00    -0.126 OA
ATOM     11  O   UNL     1      -6.795  -0.003  -1.019  0.00  0.00    -0.126 OA
ENDBRANCH   8   9
BRANCH   6  12
ATOM     12  S   UNL     1      -8.663  -5.062  -0.444  0.00  0.00    +0.056 S 
ATOM     13  O   UNL     1      -9.630  -4.193  -1.018  0.00  0.00    -0.153 OA
ATOM     14  O   UNL     1      -8.368  -6.340  -0.989  0.00  0.00    -0.153 OA
BRANCH  12  15
ATOM     15  N   UNL     1      -9.126  -5.313   1.126  0.00  0.00    -0.204 NA
ATOM     16  H   UNL     1      -8.577  -4.981   1.853  0.00  0.00    +0.144 HD
ATOM     17  H   UNL     1      -9.947  -5.793   1.319  0.00  0.00    +0.144 HD
ENDBRANCH  12  15
ENDBRANCH   6  12
ENDBRANCH   1   3
BRANCH   1  18
ATOM     18  N   UNL     1      -2.337  -2.748  -0.360  0.00  0.00    -0.248 N 
ATOM     19  H   UNL     1      -2.329  -3.716  -0.419  0.00  0.00    +0.172 HD
BRANCH  18  20
ATOM     20  C   UNL     1      -1.176  -2.065  -0.329  0.00  0.00    +0.151 C 
ATOM     21  S   UNL     1       0.314  -2.906  -0.395  0.00  0.00    -0.017 S 
BRANCH  20  22
ATOM     22  N   UNL     1      -1.187  -0.720  -0.247  0.00  0.00    -0.296 N 
ATOM     23  H   UNL     1      -2.026  -0.248  -0.127  0.00  0.00    +0.154 HD
BRANCH  22  29
ATOM     24  C   UNL     1       0.980  -0.379  -1.257  0.00  0.00    +0.025 A 
ATOM     25  C   UNL     1       2.163   0.329  -1.343  0.00  0.00    +0.023 A 
ATOM     26  C   UNL     1       2.384   1.413  -0.512  0.00  0.00    +0.059 A 
ATOM     27  C   UNL     1       1.420   1.791   0.408  0.00  0.00    +0.061 A 
ATOM     28  C   UNL     1       0.235   1.085   0.498  0.00  0.00    +0.044 A 
ATOM     29  C   UNL     1       0.012  -0.003  -0.336  0.00  0.00    +0.034 A 
ATOM     30 CL   UNL     1       1.700   3.151   1.449  0.00  0.00    -0.082 Cl
ATOM     31 CL   UNL     1       3.871   2.301  -0.623  0.00  0.00    -0.082 Cl
ENDBRANCH  22  29
ENDBRANCH  20  22
ENDBRANCH  18  20
ENDBRANCH   1  18
TORSDOF 8
