REMARK  Name = ZINC17095867
REMARK  9 active torsions:
REMARK  status: ('A' for Active; 'I' for Inactive)
REMARK    1  A    between atoms: C_1  and  C_2
REMARK    2  A    between atoms: C_3  and  C_31
REMARK    3  A    between atoms: C_5  and  N_18
REMARK    4  A    between atoms: C_6  and  C_7
REMARK    5  A    between atoms: N_9  and  C_10
REMARK    6  A    between atoms: C_15  and  O_16
REMARK    7  A    between atoms: O_16  and  C_17
REMARK    8  A    between atoms: C_19  and  C_21
REMARK    9  A    between atoms: C_27  and  C_29
REMARK                            x       y       z     vdW  Elec       q    Type
REMARK                         _______ _______ _______ _____ _____    ______ ____
ROOT
ATOM      1  C   UNL     1       2.377   5.919  -2.336  0.00  0.00    +0.045 C 
ATOM      2  C   UNL     1       2.329   6.491  -0.942  0.00  0.00    -0.027 A 
ATOM      3  C   UNL     1       2.313   7.819  -0.730  0.00  0.00    -0.008 A 
ATOM      4  S   UNL     1       2.254   7.949   1.046  0.00  0.00    -0.078 S 
ATOM      5  C   UNL     1       2.246   6.267   1.459  0.00  0.00    +0.084 A 
ATOM      6  C   UNL     1       2.296   5.636   0.221  0.00  0.00    +0.069 A 
ATOM      7  C   UNL     1       2.338   8.929  -1.748  0.00  0.00    +0.052 C 
ENDROOT
BRANCH   6   8
ATOM      8  C   UNL     1       2.309   4.175   0.103  0.00  0.00    +0.251 C 
ATOM      9  O   UNL     1       3.368   3.575   0.088  0.00  0.00    -0.270 OA
ATOM     10  N   UNL     1       1.149   3.496   0.011  0.00  0.00    -0.278 N 
ATOM     11  H   UNL     1       0.309   3.978  -0.059  0.00  0.00    +0.155 HD
BRANCH  10  12
ATOM     12  C   UNL     1       1.154   2.096   0.016  0.00  0.00    +0.076 A 
ATOM     13  C   UNL     1       2.202   1.406   0.609  0.00  0.00    +0.027 A 
ATOM     14  C   UNL     1       2.206   0.024   0.612  0.00  0.00    +0.002 A 
ATOM     15  C   UNL     1       1.166  -0.674   0.026  0.00  0.00    +0.004 A 
ATOM     16  C   UNL     1       0.118   0.005  -0.567  0.00  0.00    +0.047 A 
ATOM     17  C   UNL     1       0.107   1.391  -0.574  0.00  0.00    +0.141 A 
BRANCH  17  18
ATOM     18  O   UNL     1      -0.920   2.061  -1.162  0.00  0.00    -0.493 OA
ATOM     19  C   UNL     1      -1.955   1.273  -1.752  0.00  0.00    +0.277 C 
ENDBRANCH  17  18
ENDBRANCH  10  12
ENDBRANCH   6   8
BRANCH   5  20
ATOM     20  N   UNL     1       2.203   5.690   2.719  0.00  0.00    -0.279 N 
ATOM     21  C   UNL     1       2.157   6.471   3.816  0.00  0.00    +0.222 C 
ATOM     22  O   UNL     1       2.155   7.678   3.702  0.00  0.00    -0.275 OA
ATOM     23  H   UNL     1       2.205   4.724   2.810  0.00  0.00    +0.155 HD
BRANCH  21  24
ATOM     24  C   UNL     1       2.110   5.843   5.186  0.00  0.00    +0.093 C 
ATOM     25  C   UNL     1       1.237   6.694   6.111  0.00  0.00    +0.040 C 
ATOM     26  C   UNL     1       1.927   7.989   6.426  0.00  0.00    -0.030 C 
ATOM     27  C   UNL     1       3.192   8.199   6.249  0.00  0.00    -0.030 C 
ATOM     28  C   UNL     1       4.144   7.179   5.693  0.00  0.00    +0.042 C 
ATOM     29  C   UNL     1       3.525   5.782   5.774  0.00  0.00    +0.118 C 
BRANCH  29  30
ATOM     30  C   UNL     1       4.362   4.811   4.981  0.00  0.00    +0.360 C 
ATOM     31  O   UNL     1       3.879   4.226   4.041  0.00  0.00    -0.246 OA
ATOM     32  O   UNL     1       5.643   4.597   5.320  0.00  0.00    -0.246 OA
ENDBRANCH  29  30
ENDBRANCH  21  24
ENDBRANCH   5  20
TORSDOF 6
