REMARK  Name = ZINC59578204
REMARK  10 active torsions:
REMARK  status: ('A' for Active; 'I' for Inactive)
REMARK    1  A    between atoms: C_1  and  C_2
REMARK    2  A    between atoms: C_2  and  C_4
REMARK    3  A    between atoms: C_2  and  N_14
REMARK    4  A    between atoms: C_8  and  C_10
REMARK    5  A    between atoms: N_14  and  C_15
REMARK    6  A    between atoms: N_14  and  C_31
REMARK    7  A    between atoms: C_15  and  C_16
REMARK    8  A    between atoms: N_18  and  C_19
REMARK    9  A    between atoms: C_19  and  C_20
REMARK   10  A    between atoms: N_22  and  C_23
REMARK                            x       y       z     vdW  Elec       q    Type
REMARK                         _______ _______ _______ _____ _____    ______ ____
ROOT
ATOM      1  C   UNL     1      -0.032  -0.275  -2.435  0.00  0.00    +0.020 C 
ENDROOT
BRANCH   1   2
ATOM      2  C   UNL     1      -1.398  -0.897  -2.296  0.00  0.00    +0.197 C 
ATOM      3  O   UNL     1      -1.671  -1.546  -1.308  0.00  0.00    -0.278 OA
ATOM      4  N   UNL     1      -2.316  -0.732  -3.268  0.00  0.00    -0.308 N 
ATOM      5  H   UNL     1      -2.098  -0.213  -4.058  0.00  0.00    +0.149 HD
BRANCH   4   6
ATOM      6  C   UNL     1      -3.644  -1.336  -3.133  0.00  0.00    +0.200 C 
BRANCH   6   7
ATOM      7  C   UNL     1      -4.473  -1.004  -4.347  0.00  0.00    +0.234 C 
ATOM      8  O   UNL     1      -4.001  -0.329  -5.237  0.00  0.00    -0.274 OA
ATOM      9  N   UNL     1      -5.739  -1.457  -4.443  0.00  0.00    -0.284 N 
ATOM     10  H   UNL     1      -6.137  -1.942  -3.704  0.00  0.00    +0.155 HD
BRANCH   9  11
ATOM     11  C   UNL     1      -6.478  -1.227  -5.610  0.00  0.00    +0.036 A 
ATOM     12  C   UNL     1      -7.847  -1.007  -5.533  0.00  0.00    +0.026 A 
ATOM     13  C   UNL     1      -8.576  -0.781  -6.684  0.00  0.00    +0.043 A 
ATOM     14  C   UNL     1      -7.943  -0.772  -7.915  0.00  0.00    +0.159 A 
ATOM     15  C   UNL     1      -6.576  -0.991  -7.995  0.00  0.00    +0.160 A 
ATOM     16  C   UNL     1      -5.842  -1.213  -6.843  0.00  0.00    +0.064 A 
ATOM     17  F   UNL     1      -5.959  -0.982  -9.197  0.00  0.00    -0.202 F 
ATOM     18  F   UNL     1      -8.657  -0.550  -9.040  0.00  0.00    -0.202 F 
ENDBRANCH   9  11
ENDBRANCH   6   7
ENDBRANCH   4   6
ENDBRANCH   1   2
BRANCH   1  19
ATOM     19  N   UNL     1       0.727  -0.479  -1.194  0.00  0.00    +0.392 N 
ATOM     20  H   UNL     1       1.651  -0.086  -1.297  0.00  0.00    -0.080 HD
BRANCH  19  21
ATOM     21  C   UNL     1       0.835  -1.918  -0.916  0.00  0.00    -0.067 C 
ATOM     22  C   UNL     1       2.220  -2.469  -0.571  0.00  0.00    -0.017 C 
ATOM     23  C   UNL     1       1.591  -2.778  -1.931  0.00  0.00    -0.017 C 
ENDBRANCH  19  21
BRANCH  19  25
ATOM     24  C   UNL     1      -0.016   1.691  -0.337  0.00  0.00    -0.008 C 
ATOM     25  C   UNL     1       0.034   0.184  -0.081  0.00  0.00    -0.040 C 
BRANCH  25  26
ATOM     26  C   UNL     1       0.776  -0.084   1.203  0.00  0.00    -0.061 A 
ATOM     27  C   UNL     1       2.158  -0.065   1.220  0.00  0.00    +0.002 A 
ATOM     28  C   UNL     1       2.838  -0.310   2.398  0.00  0.00    +0.001 A 
ATOM     29  C   UNL     1       2.136  -0.574   3.559  0.00  0.00    +0.012 A 
ATOM     30  C   UNL     1       0.754  -0.593   3.543  0.00  0.00    +0.055 A 
ATOM     31  C   UNL     1       0.074  -0.343   2.365  0.00  0.00    +0.014 A 
BRANCH  30  32
ATOM     32  C   UNL     1      -0.011  -0.881   4.809  0.00  0.00    +0.417 C 
ATOM     33  F   UNL     1       0.888  -1.096   5.859  0.00  0.00    -0.166 F 
ATOM     34  F   UNL     1      -0.834   0.209   5.115  0.00  0.00    -0.166 F 
ATOM     35  F   UNL     1      -0.798  -2.023   4.628  0.00  0.00    -0.166 F 
ENDBRANCH  30  32
ENDBRANCH  25  26
ENDBRANCH  19  25
ENDBRANCH   1  19
TORSDOF 9
