REMARK  Name = ZINC20726448
REMARK  6 active torsions:
REMARK  status: ('A' for Active; 'I' for Inactive)
REMARK    1  A    between atoms: C_1  and  C_2
REMARK    2  A    between atoms: C_2  and  C_4
REMARK    3  A    between atoms: C_2  and  N_14
REMARK    4  A    between atoms: C_15  and  C_17
REMARK    5  A    between atoms: C_17  and  N_18
REMARK    6  A    between atoms: C_27  and  C_28
REMARK                            x       y       z     vdW  Elec       q    Type
REMARK                         _______ _______ _______ _____ _____    ______ ____
ROOT
ATOM      1  N   UNL     1       6.114  -3.844   2.590  0.00  0.00    -0.257 N 
ATOM      2  C   UNL     1       6.889  -4.598   1.718  0.00  0.00    +0.051 A 
ATOM      3  C   UNL     1       6.528  -4.638   0.372  0.00  0.00    +0.024 A 
ATOM      4  C   UNL     1       7.270  -5.373  -0.529  0.00  0.00    +0.002 A 
ATOM      5  C   UNL     1       8.382  -6.081  -0.111  0.00  0.00    +0.001 A 
ATOM      6  C   UNL     1       8.758  -6.044   1.214  0.00  0.00    +0.017 A 
ATOM      7  C   UNL     1       8.014  -5.313   2.126  0.00  0.00    +0.034 A 
ATOM      8  S   UNL     1       8.487  -5.285   3.829  0.00  0.00    -0.082 S 
ATOM      9  C   UNL     1       7.801  -3.737   4.358  0.00  0.00    +0.076 C 
ATOM     10  C   UNL     1       8.446  -2.928   5.233  0.00  0.00    +0.028 C 
ATOM     11  C   UNL     1       6.483  -3.381   3.787  0.00  0.00    +0.258 C 
ATOM     12  O   UNL     1       5.729  -2.659   4.414  0.00  0.00    -0.269 OA
ENDROOT
BRANCH  10  13
ATOM     13  C   UNL     1       9.675  -3.392   5.894  0.00  0.00    -0.024 A 
ATOM     14  C   UNL     1       9.843  -4.748   6.194  0.00  0.00    +0.009 A 
ATOM     15  C   UNL     1      11.000  -5.176   6.808  0.00  0.00    +0.020 A 
ATOM     16  C   UNL     1      11.991  -4.266   7.139  0.00  0.00    +0.041 A 
ATOM     17  C   UNL     1      11.829  -2.921   6.850  0.00  0.00    +0.020 A 
ATOM     18  C   UNL     1      10.679  -2.478   6.231  0.00  0.00    +0.009 A 
ATOM     19 CL   UNL     1      13.442  -4.813   7.919  0.00  0.00    -0.084 Cl
ENDBRANCH  10  13
BRANCH   1  20
ATOM     20  C   UNL     1       4.751  -3.529   2.155  0.00  0.00    +0.209 C 
BRANCH  20  22
ATOM     21  N   UNL     1       3.603  -1.734   0.898  0.00  0.00    -0.307 N 
ATOM     22  C   UNL     1       4.754  -2.226   1.397  0.00  0.00    +0.231 C 
ATOM     23  O   UNL     1       5.792  -1.620   1.238  0.00  0.00    -0.274 OA
ATOM     24  H   UNL     1       2.661  -2.284   1.043  0.00  0.00    +0.149 HD
BRANCH  21  26
ATOM     25  C   UNL     1       3.958  -0.730  -1.303  0.00  0.00    +0.033 C 
ATOM     26  C   UNL     1       3.605  -0.468   0.162  0.00  0.00    +0.100 C 
BRANCH  26  27
ATOM     27  C   UNL     1       2.240   0.164   0.245  0.00  0.00    -0.024 A 
ATOM     28  C   UNL     1       1.108  -0.624   0.149  0.00  0.00    +0.009 A 
ATOM     29  C   UNL     1      -0.146  -0.048   0.224  0.00  0.00    +0.050 A 
ATOM     30  C   UNL     1      -0.273   1.323   0.396  0.00  0.00    +0.162 A 
ATOM     31  C   UNL     1       0.865   2.115   0.494  0.00  0.00    +0.162 A 
ATOM     32  C   UNL     1       2.121   1.530   0.417  0.00  0.00    +0.055 A 
ATOM     33  O   UNL     1       0.764   3.460   0.671  0.00  0.00    -0.485 OA
ATOM     34  C   UNL     1      -0.502   4.056   0.369  0.00  0.00    +0.270 C 
ATOM     35  C   UNL     1      -1.602   3.197   1.008  0.00  0.00    +0.270 C 
ATOM     36  O   UNL     1      -1.514   1.877   0.459  0.00  0.00    -0.485 OA
ENDBRANCH  26  27
ENDBRANCH  21  26
ENDBRANCH  20  22
ENDBRANCH   1  20
TORSDOF 5
