REMARK  Name = ZINC22990383
REMARK  10 active torsions:
REMARK  status: ('A' for Active; 'I' for Inactive)
REMARK    1  A    between atoms: C_1  and  C_2
REMARK    2  A    between atoms: C_5  and  N_8
REMARK    3  A    between atoms: C_9  and  C_32
REMARK    4  A    between atoms: C_10  and  C_13
REMARK    5  A    between atoms: N_15  and  C_16
REMARK    6  A    between atoms: C_16  and  C_17
REMARK    7  A    between atoms: C_17  and  C_19
REMARK    8  A    between atoms: C_17  and  N_27
REMARK    9  A    between atoms: C_22  and  O_25
REMARK   10  A    between atoms: O_25  and  C_26
REMARK                            x       y       z     vdW  Elec       q    Type
REMARK                         _______ _______ _______ _____ _____    ______ ____
ROOT
ATOM      1  C   UNL     1      -0.652  -3.280   0.684  0.00  0.00    +0.248 C 
ATOM      2  O   UNL     1      -1.291  -3.047   1.692  0.00  0.00    -0.270 OA
ATOM      3  N   UNL     1      -0.521  -4.549   0.248  0.00  0.00    -0.312 N 
ATOM      4  H   UNL     1       0.057  -4.761  -0.663  0.00  0.00    +0.149 HD
ENDROOT
BRANCH   1   7
ATOM      5  N   UNL     1       0.635  -0.170  -0.671  0.00  0.00    -0.227 N 
ATOM      6  C   UNL     1      -0.068  -0.836   0.264  0.00  0.00    +0.159 A 
ATOM      7  C   UNL     1      -0.020  -2.176  -0.061  0.00  0.00    +0.086 A 
ATOM      8  C   UNL     1       0.748  -2.293  -1.242  0.00  0.00    +0.148 A 
ATOM      9  N   UNL     1       1.127  -1.096  -1.597  0.00  0.00    -0.174 NA
BRANCH   5  14
ATOM     10  C   UNL     1       1.446   5.444  -0.840  0.00  0.00    +0.044 C 
ATOM     11  C   UNL     1       1.230   3.954  -0.794  0.00  0.00    -0.050 A 
ATOM     12  C   UNL     1       2.232   3.099  -1.215  0.00  0.00    +0.005 A 
ATOM     13  C   UNL     1       2.038   1.732  -1.176  0.00  0.00    +0.028 A 
ATOM     14  C   UNL     1       0.835   1.216  -0.712  0.00  0.00    +0.066 A 
ATOM     15  C   UNL     1      -0.172   2.077  -0.296  0.00  0.00    +0.028 A 
ATOM     16  C   UNL     1       0.031   3.443  -0.333  0.00  0.00    +0.005 A 
ENDBRANCH   5  14
BRANCH   6  17
ATOM     17  C   UNL     1      -0.777  -0.229   1.448  0.00  0.00    +0.435 C 
ATOM     18  F   UNL     1      -2.090   0.096   1.089  0.00  0.00    -0.164 F 
ATOM     19  F   UNL     1      -0.795  -1.149   2.502  0.00  0.00    -0.164 F 
ATOM     20  F   UNL     1      -0.104   0.929   1.851  0.00  0.00    -0.164 F 
ENDBRANCH   6  17
ENDBRANCH   1   7
BRANCH   3  21
ATOM     21  C   UNL     1      -1.149  -5.646   0.989  0.00  0.00    +0.094 C 
BRANCH  21  22
ATOM     22  C   UNL     1      -0.713  -6.983   0.386  0.00  0.00    -0.020 C 
BRANCH  22  23
ATOM     23  C   UNL     1      -1.422  -8.109   1.095  0.00  0.00    -0.059 A 
ATOM     24  C   UNL     1      -1.037  -8.470   2.373  0.00  0.00    +0.005 A 
ATOM     25  C   UNL     1      -1.688  -9.497   3.027  0.00  0.00    +0.046 A 
ATOM     26  C   UNL     1      -2.722 -10.175   2.397  0.00  0.00    +0.120 A 
ATOM     27  C   UNL     1      -3.102  -9.814   1.112  0.00  0.00    +0.046 A 
ATOM     28  C   UNL     1      -2.451  -8.782   0.465  0.00  0.00    +0.005 A 
BRANCH  26  29
ATOM     29  O   UNL     1      -3.360 -11.190   3.036  0.00  0.00    -0.495 OA
ATOM     30  C   UNL     1      -2.915 -11.507   4.356  0.00  0.00    +0.277 C 
ENDBRANCH  26  29
ENDBRANCH  22  23
BRANCH  22  31
ATOM     31  N   UNL     1       0.739  -7.142   0.544  0.00  0.00    +0.385 N 
ATOM     32  C   UNL     1       1.159  -8.533   0.237  0.00  0.00    -0.078 C 
ATOM     33  C   UNL     1       2.672  -8.389  -0.062  0.00  0.00    -0.020 C 
ATOM     34  C   UNL     1       2.749  -7.040  -0.814  0.00  0.00    -0.020 C 
ATOM     35  C   UNL     1       1.473  -6.280  -0.407  0.00  0.00    -0.078 C 
ATOM     36  H   UNL     1       0.958  -6.870   1.587  0.00  0.00    -0.081 HD
ENDBRANCH  22  31
ENDBRANCH  21  22
ENDBRANCH   3  21
TORSDOF 8
