REMARK  Name = ZINC05740620
REMARK  8 active torsions:
REMARK  status: ('A' for Active; 'I' for Inactive)
REMARK    1  A    between atoms: C_1  and  C_2
REMARK    2  A    between atoms: C_7  and  N_8
REMARK    3  A    between atoms: C_9  and  C_11
REMARK    4  A    between atoms: N_19  and  N_20
REMARK    5  A    between atoms: C_21  and  C_22
REMARK    6  A    between atoms: C_25  and  N_28
REMARK    7  A    between atoms: N_28  and  C_29
REMARK    8  A    between atoms: N_28  and  C_30
REMARK                            x       y       z     vdW  Elec       q    Type
REMARK                         _______ _______ _______ _____ _____    ______ ____
ROOT
ATOM      1  C   UNL     1      -0.168   0.052   4.882  0.00  0.00    +0.149 C 
ATOM      2  C   UNL     1      -0.940  -0.794   5.902  0.00  0.00    +0.122 C 
ATOM      3  C   UNL     1      -0.967  -0.118   7.237  0.00  0.00    +0.240 C 
ATOM      4  O   UNL     1      -1.969  -0.275   7.907  0.00  0.00    -0.274 OA
ATOM      5  N   UNL     1      -0.024   0.624   7.756  0.00  0.00    -0.158 NA
ATOM      6  C   UNL     1       1.125   0.947   7.189  0.00  0.00    +0.166 C 
ATOM      7  S   UNL     1       1.494   0.357   5.564  0.00  0.00    -0.078 S 
ATOM      8  N   UNL     1       2.021   1.733   7.853  0.00  0.00    -0.217 N 
ATOM      9  H   UNL     1       2.864   1.968   7.434  0.00  0.00    +0.176 HD
ENDROOT
BRANCH   1  11
ATOM     10  N   UNL     1       0.025  -0.015   2.417  0.00  0.00    -0.284 N 
ATOM     11  C   UNL     1      -0.056  -0.694   3.578  0.00  0.00    +0.231 C 
ATOM     12  O   UNL     1      -0.040  -1.907   3.573  0.00  0.00    -0.274 OA
ATOM     13  H   UNL     1       0.078   0.954   2.425  0.00  0.00    +0.155 HD
BRANCH  10  20
ATOM     14  C   UNL     1      -1.264   1.184   0.181  0.00  0.00    +0.045 C 
ATOM     15  C   UNL     1      -0.584  -0.158   0.084  0.00  0.00    -0.029 A 
ATOM     16  C   UNL     1      -0.568  -0.840  -1.117  0.00  0.00    +0.005 A 
ATOM     17  C   UNL     1       0.055  -2.071  -1.206  0.00  0.00    +0.000 A 
ATOM     18  C   UNL     1       0.666  -2.622  -0.095  0.00  0.00    +0.002 A 
ATOM     19  C   UNL     1       0.655  -1.945   1.108  0.00  0.00    +0.023 A 
ATOM     20  C   UNL     1       0.034  -0.706   1.201  0.00  0.00    +0.036 A 
ENDBRANCH  10  20
ENDBRANCH   1  11
BRANCH   8  21
ATOM     21  N   UNL     1       1.725   2.200   9.140  0.00  0.00    -0.188 NA
ATOM     22  C   UNL     1       2.578   2.947   9.772  0.00  0.00    +0.138 C 
BRANCH  22  23
ATOM     23  C   UNL     1       2.266   3.438  11.126  0.00  0.00    -0.005 A 
ATOM     24  C   UNL     1       1.055   3.095  11.734  0.00  0.00    +0.011 A 
ATOM     25  C   UNL     1       0.767   3.556  13.000  0.00  0.00    +0.024 A 
ATOM     26  C   UNL     1       1.679   4.362  13.673  0.00  0.00    +0.029 A 
ATOM     27  C   UNL     1       2.885   4.706  13.071  0.00  0.00    +0.024 A 
ATOM     28  C   UNL     1       3.183   4.243  11.808  0.00  0.00    +0.011 A 
BRANCH  26  29
ATOM     29  N   UNL     1       1.384   4.827  14.954  0.00  0.00    -0.336 N 
ATOM     30  C   UNL     1       0.114   4.467  15.589  0.00  0.00    +0.129 C 
ATOM     31  C   UNL     1       2.344   5.676  15.664  0.00  0.00    +0.129 C 
ENDBRANCH  26  29
ENDBRANCH  22  23
ENDBRANCH   8  21
TORSDOF 5
