REMARK  Name = ZINC03595322
REMARK  6 active torsions:
REMARK  status: ('A' for Active; 'I' for Inactive)
REMARK    1  A    between atoms: C_1  and  C_2
REMARK    2  A    between atoms: C_2  and  C_3
REMARK    3  A    between atoms: C_3  and  C_27
REMARK    4  A    between atoms: N_6  and  C_10
REMARK    5  A    between atoms: C_10  and  C_11
REMARK    6  A    between atoms: N_16  and  C_17
REMARK                            x       y       z     vdW  Elec       q    Type
REMARK                         _______ _______ _______ _____ _____    ______ ____
ROOT
ATOM      1  C   UNL     1       3.436   1.479  -2.844  0.00  0.00    +0.214 C 
ENDROOT
BRANCH   1   5
ATOM      2  C   UNL     1       0.717  -0.491  -1.257  0.00  0.00    +0.138 C 
ATOM      3  C   UNL     1       2.141   0.027  -1.297  0.00  0.00    +0.251 C 
ATOM      4  O   UNL     1       3.022  -0.191  -0.493  0.00  0.00    -0.272 OA
ATOM      5  N   UNL     1       2.224   0.779  -2.412  0.00  0.00    -0.215 N 
ATOM      6  C   UNL     1       1.063   0.807  -3.075  0.00  0.00    +0.310 C 
ATOM      7  O   UNL     1       0.891   1.419  -4.111  0.00  0.00    -0.252 OA
ATOM      8  N   UNL     1       0.106   0.083  -2.468  0.00  0.00    -0.281 N 
ATOM      9  H   UNL     1      -0.808  -0.038  -2.768  0.00  0.00    +0.152 HD
BRANCH   2  10
ATOM     10  C   UNL     1       0.695  -1.997  -1.315  0.00  0.00    -0.015 A 
ATOM     11  C   UNL     1       0.669  -2.733  -0.145  0.00  0.00    +0.007 A 
ATOM     12  C   UNL     1       0.649  -4.114  -0.197  0.00  0.00    +0.020 A 
ATOM     13  C   UNL     1       0.655  -4.760  -1.421  0.00  0.00    +0.041 A 
ATOM     14  C   UNL     1       0.681  -4.022  -2.591  0.00  0.00    +0.020 A 
ATOM     15  C   UNL     1       0.696  -2.642  -2.538  0.00  0.00    +0.007 A 
ATOM     16 CL   UNL     1       0.631  -6.494  -1.487  0.00  0.00    -0.084 Cl
ENDBRANCH   2  10
BRANCH   2  18
ATOM     17  C   UNL     1      -0.028   1.538  -0.004  0.00  0.00    +0.007 C 
ATOM     18  C   UNL     1      -0.002   0.008  -0.002  0.00  0.00    +0.037 C 
ENDBRANCH   2  18
ENDBRANCH   1   5
BRANCH   1  19
ATOM     19  C   UNL     1       4.248   0.574  -3.735  0.00  0.00    +0.238 C 
ATOM     20  O   UNL     1       3.854  -0.545  -3.984  0.00  0.00    -0.274 OA
ATOM     21  N   UNL     1       5.413   1.008  -4.255  0.00  0.00    -0.239 N 
ATOM     22  C   UNL     1       6.140   0.199  -5.051  0.00  0.00    +0.310 C 
ATOM     23  O   UNL     1       5.744  -0.922  -5.301  0.00  0.00    -0.252 OA
ATOM     24  N   UNL     1       7.305   0.634  -5.571  0.00  0.00    -0.269 N 
ATOM     25  H   UNL     1       5.729   1.904  -4.056  0.00  0.00    +0.159 HD
ATOM     26  H   UNL     1       7.588   1.550  -5.427  0.00  0.00    +0.156 HD
BRANCH  24  27
ATOM     27  C   UNL     1       8.107  -0.238  -6.319  0.00  0.00    +0.038 A 
ATOM     28  C   UNL     1       9.490  -0.146  -6.244  0.00  0.00    +0.027 A 
ATOM     29  C   UNL     1      10.281  -1.005  -6.981  0.00  0.00    +0.051 A 
ATOM     30  C   UNL     1       9.697  -1.962  -7.799  0.00  0.00    +0.162 A 
ATOM     31  C   UNL     1       8.313  -2.057  -7.875  0.00  0.00    +0.164 A 
ATOM     32  C   UNL     1       7.519  -1.197  -7.131  0.00  0.00    +0.072 A 
ATOM     33  O   UNL     1       7.722  -2.994  -8.665  0.00  0.00    -0.485 OA
ATOM     34  C   UNL     1       8.540  -3.595  -9.675  0.00  0.00    +0.270 C 
ATOM     35  C   UNL     1       9.881  -3.984  -9.037  0.00  0.00    +0.270 C 
ATOM     36  O   UNL     1      10.494  -2.797  -8.522  0.00  0.00    -0.485 OA
ENDBRANCH  24  27
ENDBRANCH   1  19
TORSDOF 5
