REMARK  Name = ZINC56710714
REMARK  13 active torsions:
REMARK  status: ('A' for Active; 'I' for Inactive)
REMARK    1  A    between atoms: C_1  and  C_2
REMARK    2  A    between atoms: C_2  and  N_3
REMARK    3  A    between atoms: N_3  and  C_4
REMARK    4  A    between atoms: N_3  and  C_6
REMARK    5  A    between atoms: C_4  and  C_5
REMARK    6  A    between atoms: C_6  and  C_8
REMARK    7  A    between atoms: C_6  and  C_25
REMARK    8  A    between atoms: C_8  and  N_9
REMARK    9  A    between atoms: N_12  and  C_13
REMARK   10  A    between atoms: C_16  and  O_20
REMARK   11  A    between atoms: C_18  and  C_19
REMARK   12  A    between atoms: O_20  and  C_21
REMARK   13  A    between atoms: C_21  and  C_22
REMARK                            x       y       z     vdW  Elec       q    Type
REMARK                         _______ _______ _______ _____ _____    ______ ____
ROOT
ATOM      1  N   UNL     1      -1.843   0.958  -0.882  0.00  0.00    -0.300 N 
ATOM      2  C   UNL     1      -2.363   1.880  -1.716  0.00  0.00    +0.304 C 
ATOM      3  O   UNL     1      -3.560   1.898  -1.932  0.00  0.00    -0.253 OA
ATOM      4  N   UNL     1      -1.558   2.781  -2.312  0.00  0.00    -0.269 N 
ATOM      5  H   UNL     1      -0.888   0.943  -0.710  0.00  0.00    +0.150 HD
ATOM      6  H   UNL     1      -0.596   2.725  -2.194  0.00  0.00    +0.156 HD
ENDROOT
BRANCH   4   7
ATOM      7  C   UNL     1      -2.108   3.800  -3.102  0.00  0.00    +0.038 A 
ATOM      8  C   UNL     1      -3.331   3.607  -3.730  0.00  0.00    +0.027 A 
ATOM      9  C   UNL     1      -3.874   4.611  -4.508  0.00  0.00    +0.047 A 
ATOM     10  C   UNL     1      -3.197   5.812  -4.662  0.00  0.00    +0.122 A 
ATOM     11  C   UNL     1      -1.975   6.005  -4.034  0.00  0.00    +0.050 A 
ATOM     12  C   UNL     1      -1.434   5.004  -3.251  0.00  0.00    -0.026 A 
ATOM     13  C   UNL     1      -0.110   5.216  -2.564  0.00  0.00    +0.046 C 
BRANCH  10  14
ATOM     14  O   UNL     1      -3.731   6.800  -5.428  0.00  0.00    -0.483 OA
BRANCH  14  15
ATOM     15  C   UNL     1      -4.992   6.532  -6.045  0.00  0.00    +0.324 C 
BRANCH  15  16
ATOM     16  C   UNL     1      -5.423   7.732  -6.848  0.00  0.00    +0.248 C 
ATOM     17  O   UNL     1      -4.719   8.719  -6.889  0.00  0.00    -0.272 OA
ATOM     18  N   UNL     1      -6.590   7.708  -7.522  0.00  0.00    -0.327 N 
ATOM     19  H   UNL     1      -7.152   6.919  -7.490  0.00  0.00    +0.145 HD
ATOM     20  H   UNL     1      -6.867   8.481  -8.039  0.00  0.00    +0.145 HD
ENDBRANCH  15  16
ENDBRANCH  14  15
ENDBRANCH  10  14
ENDBRANCH   4   7
BRANCH   1  21
ATOM     21  C   UNL     1      -2.719  -0.022  -0.235  0.00  0.00    +0.095 C 
BRANCH  21  22
ATOM     22  C   UNL     1      -1.904  -0.863   0.749  0.00  0.00    -0.020 C 
BRANCH  22  23
ATOM     23  C   UNL     1      -2.768  -1.966   1.303  0.00  0.00    -0.059 A 
ATOM     24  C   UNL     1      -3.848  -2.430   0.575  0.00  0.00    +0.002 A 
ATOM     25  C   UNL     1      -4.641  -3.442   1.083  0.00  0.00    +0.000 A 
ATOM     26  C   UNL     1      -4.354  -3.990   2.319  0.00  0.00    +0.000 A 
ATOM     27  C   UNL     1      -3.273  -3.527   3.047  0.00  0.00    +0.000 A 
ATOM     28  C   UNL     1      -2.478  -2.518   2.537  0.00  0.00    +0.002 A 
ENDBRANCH  22  23
BRANCH  22  29
ATOM     29  N   UNL     1      -0.749  -1.448   0.054  0.00  0.00    +0.385 N 
ATOM     30  H   UNL     1      -0.213  -0.714  -0.383  0.00  0.00    -0.081 HD
BRANCH  29  32
ATOM     31  C   UNL     1       0.715  -1.159   1.996  0.00  0.00    -0.017 C 
ATOM     32  C   UNL     1       0.095  -2.162   1.021  0.00  0.00    -0.081 C 
ENDBRANCH  29  32
BRANCH  29  33
ATOM     33  C   UNL     1      -1.220  -2.388  -0.973  0.00  0.00    -0.081 C 
ATOM     34  C   UNL     1      -1.448  -1.637  -2.286  0.00  0.00    -0.017 C 
ENDBRANCH  29  33
ENDBRANCH  22  29
ENDBRANCH  21  22
ENDBRANCH   1  21
TORSDOF 10
