REMARK  Name = ZINC40782397
REMARK  6 active torsions:
REMARK  status: ('A' for Active; 'I' for Inactive)
REMARK    1  A    between atoms: C_1  and  C_2
REMARK    2  A    between atoms: N_4  and  C_5
REMARK    3  A    between atoms: C_8  and  N_11
REMARK    4  A    between atoms: C_13  and  N_26
REMARK    5  A    between atoms: C_14  and  N_18
REMARK    6  A    between atoms: N_18  and  C_19
REMARK                            x       y       z     vdW  Elec       q    Type
REMARK                         _______ _______ _______ _____ _____    ______ ____
ROOT
ATOM      1  N   UNL     1       0.330  -6.216  -1.562  0.00  0.00    -0.298 N 
ATOM      2  C   UNL     1       0.498  -6.816  -2.804  0.00  0.00    +0.149 A 
ATOM      3  C   UNL     1       0.654  -8.200  -2.909  0.00  0.00    +0.106 A 
ATOM      4  C   UNL     1       0.820  -8.750  -4.181  0.00  0.00    +0.149 A 
ATOM      5  N   UNL     1       0.822  -7.941  -5.238  0.00  0.00    -0.219 NA
ATOM      6  C   UNL     1       0.671  -6.640  -5.096  0.00  0.00    +0.225 A 
ATOM      7  N   UNL     1       0.507  -6.080  -3.914  0.00  0.00    -0.219 NA
ATOM      8  H   UNL     1       0.263  -6.764  -0.764  0.00  0.00    +0.154 HD
ENDROOT
BRANCH   1  12
ATOM      9  C   UNL     1       0.117  -2.064  -1.261  0.00  0.00    +0.033 A 
ATOM     10  C   UNL     1      -0.425  -2.709  -2.365  0.00  0.00    +0.025 A 
ATOM     11  C   UNL     1      -0.354  -4.084  -2.465  0.00  0.00    +0.025 A 
ATOM     12  C   UNL     1       0.259  -4.822  -1.461  0.00  0.00    +0.033 A 
ATOM     13  C   UNL     1       0.800  -4.177  -0.356  0.00  0.00    +0.025 A 
ATOM     14  C   UNL     1       0.734  -2.802  -0.260  0.00  0.00    +0.025 A 
BRANCH   9  18
ATOM     15  C   UNL     1       1.026   1.526  -0.578  0.00  0.00    +0.109 C 
ATOM     16  C   UNL     1       1.059   0.020  -0.601  0.00  0.00    +0.214 C 
ATOM     17  O   UNL     1       1.999  -0.573  -0.115  0.00  0.00    -0.276 OA
ATOM     18  N   UNL     1       0.045  -0.668  -1.160  0.00  0.00    -0.286 N 
ATOM     19  H   UNL     1      -0.735  -0.198  -1.493  0.00  0.00    +0.155 HD
ENDBRANCH   9  18
ENDBRANCH   1  12
BRANCH   3  20
ATOM     20  N   UNL     1       0.646  -9.015  -1.766  0.00  0.00    -0.353 N 
ATOM     21  H   UNL     1       0.530  -8.618  -0.889  0.00  0.00    +0.143 HD
ATOM     22  H   UNL     1       0.755  -9.975  -1.854  0.00  0.00    +0.143 HD
ENDBRANCH   3  20
BRANCH   4  23
ATOM     23  N   UNL     1       0.980 -10.122  -4.342  0.00  0.00    -0.298 N 
ATOM     24  H   UNL     1       0.895 -10.713  -3.578  0.00  0.00    +0.154 HD
BRANCH  23  25
ATOM     25  C   UNL     1       1.263 -10.649  -5.605  0.00  0.00    +0.032 A 
ATOM     26  C   UNL     1       0.751 -11.887  -5.973  0.00  0.00    +0.024 A 
ATOM     27  C   UNL     1       1.032 -12.405  -7.222  0.00  0.00    +0.016 A 
ATOM     28  C   UNL     1       1.823 -11.693  -8.106  0.00  0.00    +0.013 A 
ATOM     29  C   UNL     1       2.335 -10.460  -7.742  0.00  0.00    +0.016 A 
ATOM     30  C   UNL     1       2.053  -9.934  -6.497  0.00  0.00    +0.024 A 
ATOM     31  I   UNL     1       2.248 -12.483  -9.999  0.00  0.00    -0.044 I 
ENDBRANCH  23  25
ENDBRANCH   4  23
TORSDOF 5
