REMARK  Name = ZINC66331740
REMARK  13 active torsions:
REMARK  status: ('A' for Active; 'I' for Inactive)
REMARK    1  A    between atoms: C_1  and  C_2
REMARK    2  A    between atoms: C_2  and  C_30
REMARK    3  A    between atoms: C_7  and  C_8
REMARK    4  A    between atoms: C_8  and  O_10
REMARK    5  A    between atoms: O_10  and  C_11
REMARK    6  A    between atoms: C_13  and  C_14
REMARK    7  A    between atoms: C_14  and  O_16
REMARK    8  A    between atoms: O_16  and  C_17
REMARK    9  A    between atoms: C_17  and  C_19
REMARK   10  A    between atoms: C_24  and  C_25
REMARK   11  A    between atoms: C_24  and  C_26
REMARK   12  A    between atoms: N_28  and  N_29
REMARK   13  A    between atoms: N_32  and  N_33
REMARK                            x       y       z     vdW  Elec       q    Type
REMARK                         _______ _______ _______ _____ _____    ______ ____
ROOT
ATOM      1  C   UNL     1       1.700   2.043   4.679  0.00  0.00    +0.345 C 
ATOM      2  O   UNL     1       1.293   3.306   4.799  0.00  0.00    -0.245 OA
ATOM      3  C   UNL     1       2.168   1.357   5.789  0.00  0.00    +0.183 C 
ENDROOT
BRANCH   3   4
ATOM      4  C   UNL     1       2.213   1.986   7.024  0.00  0.00    +0.345 C 
ATOM      5  O   UNL     1       1.805   3.249   7.144  0.00  0.00    -0.245 OA
BRANCH   4   6
ATOM      6  O   UNL     1       2.668   1.318   8.104  0.00  0.00    -0.414 OA
BRANCH   6   7
ATOM      7  C   UNL     1       2.595   1.932   9.307  0.00  0.00    +0.180 C 
ATOM      8  S   UNL     1       1.819   3.452   9.447  0.00  0.00    -0.011 S 
BRANCH   7   9
ATOM      9  C   UNL     1       3.159   1.319  10.450  0.00  0.00    +0.017 C 
ATOM     10  C   UNL     1       2.997   1.881  11.672  0.00  0.00    +0.008 C 
ATOM     11  C   UNL     1       3.588   1.238  12.846  0.00  0.00    -0.004 C 
ATOM     12  C   UNL     1       4.577   0.356  12.692  0.00  0.00    -0.025 C 
ATOM     13  C   UNL     1       5.090   0.020  11.318  0.00  0.00    +0.048 C 
ATOM     14  C   UNL     1       3.936   0.036  10.311  0.00  0.00    +0.078 C 
ATOM     15  C   UNL     1       4.499  -0.066   8.892  0.00  0.00    +0.026 C 
BRANCH  14  16
ATOM     16  C   UNL     1       3.022  -1.134  10.570  0.00  0.00    +0.237 C 
ATOM     17  O   UNL     1       3.264  -1.904  11.476  0.00  0.00    -0.274 OA
ATOM     18  N   UNL     1       1.936  -1.325   9.796  0.00  0.00    -0.253 N 
ATOM     19  H   UNL     1       1.742  -0.709   9.072  0.00  0.00    +0.169 HD
BRANCH  18  20
ATOM     20  N   UNL     1       1.107  -2.385  10.031  0.00  0.00    -0.254 NA
ATOM     21  H   UNL     1       0.341  -2.397   9.375  0.00  0.00    +0.140 HD
ATOM     22  H   UNL     1       1.617  -3.255  10.008  0.00  0.00    +0.140 HD
ENDBRANCH  18  20
ENDBRANCH  14  16
ENDBRANCH   7   9
ENDBRANCH   6   7
ENDBRANCH   4   6
ENDBRANCH   3   4
BRANCH   1  23
ATOM     23  O   UNL     1       1.657   1.431   3.477  0.00  0.00    -0.414 OA
BRANCH  23  24
ATOM     24  C   UNL     1       1.091   2.098   2.446  0.00  0.00    +0.180 C 
ATOM     25  S   UNL     1       0.579   3.718   2.652  0.00  0.00    -0.011 S 
BRANCH  24  32
ATOM     26  C   UNL     1       1.144  -0.693   2.411  0.00  0.00    +0.026 C 
ATOM     27  C   UNL     1       1.256  -0.005   1.048  0.00  0.00    +0.078 C 
ATOM     28  C   UNL     1       0.287  -0.662   0.067  0.00  0.00    +0.048 C 
ATOM     29  C   UNL     1       0.205   0.148  -1.199  0.00  0.00    -0.025 C 
ATOM     30  C   UNL     1       0.287   1.479  -1.154  0.00  0.00    -0.004 C 
ATOM     31  C   UNL     1       0.461   2.155   0.132  0.00  0.00    +0.008 C 
ATOM     32  C   UNL     1       0.922   1.456   1.197  0.00  0.00    +0.017 C 
BRANCH  27  33
ATOM     33  C   UNL     1       2.664  -0.147   0.530  0.00  0.00    +0.237 C 
ATOM     34  O   UNL     1       2.868  -0.715  -0.522  0.00  0.00    -0.274 OA
ATOM     35  N   UNL     1       3.696   0.356   1.236  0.00  0.00    -0.253 N 
ATOM     36  H   UNL     1       3.532   0.810   2.077  0.00  0.00    +0.169 HD
BRANCH  35  37
ATOM     37  N   UNL     1       4.972   0.227   0.766  0.00  0.00    -0.254 NA
ATOM     38  H   UNL     1       5.635   0.651   1.398  0.00  0.00    +0.140 HD
ATOM     39  H   UNL     1       5.200  -0.741   0.599  0.00  0.00    +0.140 HD
ENDBRANCH  35  37
ENDBRANCH  27  33
ENDBRANCH  24  32
ENDBRANCH  23  24
ENDBRANCH   1  23
TORSDOF 11
