REMARK  Name = ZINC08919134
REMARK  6 active torsions:
REMARK  status: ('A' for Active; 'I' for Inactive)
REMARK    1  A    between atoms: C_1  and  C_2
REMARK    2  A    between atoms: C_5  and  N_9
REMARK    3  A    between atoms: C_6  and  C_8
REMARK    4  A    between atoms: C_10  and  N_18
REMARK    5  A    between atoms: C_19  and  C_21
REMARK    6  A    between atoms: C_26  and  N_27
REMARK                            x       y       z     vdW  Elec       q    Type
REMARK                         _______ _______ _______ _____ _____    ______ ____
ROOT
ATOM      1  N   UNL     1      -1.746   2.471  -2.770  0.00  0.00    -0.218 N 
ATOM      2  C   UNL     1      -2.658   2.644  -1.782  0.00  0.00    +0.133 A 
ATOM      3  C   UNL     1      -2.040   2.347  -0.588  0.00  0.00    +0.029 A 
ATOM      4  C   UNL     1      -0.732   1.988  -0.866  0.00  0.00    +0.082 A 
ATOM      5  N   UNL     1      -0.550   2.061  -2.177  0.00  0.00    -0.168 NA
ATOM      6  C   UNL     1       0.146   1.614   0.327  0.00  0.00    +0.161 C 
ATOM      7  S   UNL     1      -0.834   2.272   1.738  0.00  0.00    +0.033 S 
ATOM      8  O   UNL     1      -0.408   3.595   2.034  0.00  0.00    -0.257 OA
ATOM      9  C   UNL     1      -2.461   2.329   0.880  0.00  0.00    +0.144 C 
ENDROOT
BRANCH   1  14
ATOM     10  C   UNL     1      -2.628   3.272  -8.319  0.00  0.00    +0.044 C 
ATOM     11  C   UNL     1      -2.393   3.059  -6.845  0.00  0.00    -0.050 A 
ATOM     12  C   UNL     1      -3.301   2.328  -6.100  0.00  0.00    +0.005 A 
ATOM     13  C   UNL     1      -3.089   2.132  -4.750  0.00  0.00    +0.028 A 
ATOM     14  C   UNL     1      -1.963   2.669  -4.140  0.00  0.00    +0.070 A 
ATOM     15  C   UNL     1      -1.057   3.406  -4.889  0.00  0.00    -0.025 A 
ATOM     16  C   UNL     1      -1.272   3.595  -6.241  0.00  0.00    +0.008 A 
ATOM     17  C   UNL     1       0.163   3.996  -4.230  0.00  0.00    +0.046 C 
ENDBRANCH   1  14
BRANCH   2  18
ATOM     18  N   UNL     1      -3.981   3.050  -1.945  0.00  0.00    -0.266 N 
ATOM     19  C   UNL     1      -4.920   2.657  -1.062  0.00  0.00    +0.252 C 
ATOM     20  O   UNL     1      -4.604   1.994  -0.093  0.00  0.00    -0.270 OA
ATOM     21  H   UNL     1      -4.226   3.615  -2.694  0.00  0.00    +0.157 HD
BRANCH  19  22
ATOM     22  C   UNL     1      -6.335   3.032  -1.271  0.00  0.00    +0.069 A 
ATOM     23  C   UNL     1      -6.694   4.376  -1.387  0.00  0.00    +0.035 A 
ATOM     24  C   UNL     1      -8.016   4.719  -1.588  0.00  0.00    +0.042 A 
ATOM     25  C   UNL     1      -8.986   3.733  -1.662  0.00  0.00    +0.022 A 
ATOM     26  C   UNL     1      -8.636   2.400  -1.542  0.00  0.00    +0.035 A 
ATOM     27  C   UNL     1      -7.318   2.044  -1.347  0.00  0.00    +0.138 A 
ATOM     28 CL   UNL     1      -8.464   6.389  -1.740  0.00  0.00    -0.084 Cl
BRANCH  27  29
ATOM     29  N   UNL     1      -6.947   0.617  -1.219  0.00  0.00    +0.057 N 
ATOM     30  O   UNL     1      -7.798  -0.247  -1.332  0.00  0.00    -0.126 OA
ATOM     31  O   UNL     1      -5.789   0.306  -1.001  0.00  0.00    -0.126 OA
ENDBRANCH  27  29
ENDBRANCH  19  22
ENDBRANCH   2  18
TORSDOF 4
