REMARK  Name = ZINC02316574
REMARK  9 active torsions:
REMARK  status: ('A' for Active; 'I' for Inactive)
REMARK    1  A    between atoms: C_1  and  C_2
REMARK    2  A    between atoms: C_4  and  C_32
REMARK    3  A    between atoms: N_8  and  S_9
REMARK    4  A    between atoms: S_9  and  C_12
REMARK    5  A    between atoms: C_15  and  N_18
REMARK    6  A    between atoms: N_18  and  C_19
REMARK    7  A    between atoms: C_19  and  N_21
REMARK    8  A    between atoms: C_22  and  C_24
REMARK    9  A    between atoms: C_24  and  C_25
REMARK                            x       y       z     vdW  Elec       q    Type
REMARK                         _______ _______ _______ _____ _____    ______ ____
ROOT
ATOM      1  C   UNL     1      -2.595   3.033  -7.969  0.00  0.00    +0.109 A 
ATOM      2  C   UNL     1      -1.516   2.200  -8.204  0.00  0.00    +0.030 A 
ATOM      3  C   UNL     1      -0.815   1.659  -7.144  0.00  0.00    +0.025 A 
ATOM      4  C   UNL     1      -1.195   1.952  -5.841  0.00  0.00    +0.033 A 
ATOM      5  C   UNL     1      -2.282   2.785  -5.608  0.00  0.00    +0.025 A 
ATOM      6  C   UNL     1      -2.975   3.327  -6.672  0.00  0.00    +0.030 A 
ENDROOT
BRANCH   1   7
ATOM      7  S   UNL     1      -3.486   3.722  -9.324  0.00  0.00    +0.075 S 
ATOM      8  O   UNL     1      -4.113   4.902  -8.840  0.00  0.00    -0.150 OA
ATOM      9  O   UNL     1      -2.596   3.731 -10.432  0.00  0.00    -0.150 OA
BRANCH   7  17
ATOM     10  C   UNL     1      -6.324   3.017  -5.207  0.00  0.00    +0.066 C 
ATOM     11  C   UNL     1      -6.510   2.584  -6.638  0.00  0.00    +0.044 A 
ATOM     12  C   UNL     1      -7.681   1.956  -7.034  0.00  0.00    +0.046 A 
ATOM     13  C   UNL     1      -7.812   1.574  -8.360  0.00  0.00    +0.044 A 
ATOM     14  N   UNL     1      -6.823   1.819  -9.203  0.00  0.00    -0.219 NA
ATOM     15  C   UNL     1      -5.716   2.421  -8.792  0.00  0.00    +0.235 A 
ATOM     16  N   UNL     1      -5.557   2.794  -7.530  0.00  0.00    -0.219 NA
ATOM     17  N   UNL     1      -4.701   2.661  -9.701  0.00  0.00    -0.184 N 
ATOM     18  C   UNL     1      -9.068   0.890  -8.835  0.00  0.00    +0.066 C 
ATOM     19  H   UNL     1      -4.700   2.208 -10.559  0.00  0.00    +0.177 HD
ENDBRANCH   7  17
ENDBRANCH   1   7
BRANCH   4  20
ATOM     20  N   UNL     1      -0.487   1.406  -4.765  0.00  0.00    -0.297 N 
ATOM     21  H   UNL     1      -0.966   1.020  -4.016  0.00  0.00    +0.154 HD
BRANCH  20  22
ATOM     22  C   UNL     1       0.861   1.417  -4.770  0.00  0.00    +0.141 C 
ATOM     23  S   UNL     1       1.707   1.999  -6.139  0.00  0.00    -0.018 S 
BRANCH  22  24
ATOM     24  N   UNL     1       1.542   0.968  -3.697  0.00  0.00    -0.267 N 
ATOM     25  C   UNL     1       2.890   0.979  -3.702  0.00  0.00    +0.223 C 
ATOM     26  O   UNL     1       3.489   1.391  -4.672  0.00  0.00    -0.275 OA
ATOM     27  H   UNL     1       1.062   0.638  -2.921  0.00  0.00    +0.157 HD
BRANCH  25  28
ATOM     28  C   UNL     1       3.651   0.477  -2.502  0.00  0.00    +0.131 C 
BRANCH  28  29
ATOM     29  C   UNL     1       5.131   0.596  -2.762  0.00  0.00    -0.039 A 
ATOM     30  C   UNL     1       5.818  -0.455  -3.341  0.00  0.00    +0.005 A 
ATOM     31  C   UNL     1       7.174  -0.345  -3.584  0.00  0.00    +0.020 A 
ATOM     32  C   UNL     1       7.846   0.813  -3.237  0.00  0.00    +0.041 A 
ATOM     33  C   UNL     1       7.160   1.862  -2.653  0.00  0.00    +0.020 A 
ATOM     34  C   UNL     1       5.803   1.753  -2.415  0.00  0.00    +0.005 A 
ATOM     35 CL   UNL     1       9.551   0.950  -3.537  0.00  0.00    -0.084 Cl
ENDBRANCH  28  29
ENDBRANCH  25  28
ENDBRANCH  22  24
ENDBRANCH  20  22
ENDBRANCH   4  20
TORSDOF 7
