REMARK  Name = ZINC33775199
REMARK  6 active torsions:
REMARK  status: ('A' for Active; 'I' for Inactive)
REMARK    1  A    between atoms: C_1  and  C_2
REMARK    2  A    between atoms: C_5  and  C_21
REMARK    3  A    between atoms: C_6  and  C_7
REMARK    4  A    between atoms: C_6  and  C_8
REMARK    5  A    between atoms: N_23  and  N_24
REMARK    6  A    between atoms: N_27  and  C_30
REMARK                            x       y       z     vdW  Elec       q    Type
REMARK                         _______ _______ _______ _____ _____    ______ ____
ROOT
ATOM      1  C   UNL     1      -0.019   1.526   0.010  0.00  0.00    +0.018 C 
ATOM      2  C   UNL     1       0.002  -0.004   0.002  0.00  0.00    +0.018 C 
ATOM      3  C   UNL     1      -1.388  -0.713   0.060  0.00  0.00    +0.015 C 
ATOM      4  C   UNL     1      -1.056  -2.158   0.502  0.00  0.00    +0.024 C 
ATOM      5  C   UNL     1       0.498  -2.159   0.660  0.00  0.00    +0.098 C 
ATOM      6  C   UNL     1       0.727  -0.704   1.210  0.00  0.00    -0.005 C 
ATOM      7  C   UNL     1       2.206  -0.323   1.300  0.00  0.00    +0.013 C 
ATOM      8  C   UNL     1      -0.005  -0.481   2.535  0.00  0.00    +0.013 C 
ATOM      9  C   UNL     1       1.024  -1.991  -0.767  0.00  0.00    +0.079 A 
ATOM     10  C   UNL     1       0.736  -0.664  -1.168  0.00  0.00    +0.071 A 
ATOM     11  N   UNL     1       1.073  -0.222  -2.351  0.00  0.00    -0.248 NA
ATOM     12  C   UNL     1       1.726  -1.029  -3.196  0.00  0.00    +0.091 A 
ATOM     13  C   UNL     1       2.104  -0.585  -4.475  0.00  0.00    +0.051 A 
ATOM     14  C   UNL     1       2.769  -1.427  -5.312  0.00  0.00    +0.061 A 
ATOM     15  C   UNL     1       3.083  -2.731  -4.920  0.00  0.00    +0.061 A 
ATOM     16  C   UNL     1       2.732  -3.194  -3.689  0.00  0.00    +0.051 A 
ATOM     17  C   UNL     1       2.044  -2.353  -2.797  0.00  0.00    +0.091 A 
ATOM     18  N   UNL     1       1.645  -2.811  -1.573  0.00  0.00    -0.247 NA
ATOM     19 CL   UNL     1       3.933  -3.774  -6.017  0.00  0.00    -0.082 Cl
ATOM     20 CL   UNL     1       3.234  -0.874  -6.891  0.00  0.00    -0.082 Cl
ENDROOT
BRANCH   5  21
ATOM     21  C   UNL     1       1.082  -3.286   1.473  0.00  0.00    +0.239 C 
ATOM     22  O   UNL     1       1.708  -3.044   2.483  0.00  0.00    -0.273 OA
ATOM     23  N   UNL     1       0.910  -4.562   1.076  0.00  0.00    -0.248 N 
ATOM     24  H   UNL     1       0.410  -4.756   0.268  0.00  0.00    +0.169 HD
BRANCH  23  25
ATOM     25  N   UNL     1       1.440  -5.584   1.813  0.00  0.00    -0.231 NA
ATOM     26  C   UNL     1       2.457  -6.316   1.044  0.00  0.00    +0.087 C 
ATOM     27  C   UNL     1       3.067  -7.410   1.922  0.00  0.00    -0.062 C 
ATOM     28  N   UNL     1       2.009  -8.328   2.366  0.00  0.00    +0.380 N 
ATOM     29  C   UNL     1       1.015  -7.587   3.153  0.00  0.00    -0.062 C 
ATOM     30  C   UNL     1       0.388  -6.494   2.285  0.00  0.00    +0.087 C 
ATOM     31  C   UNL     1       2.598  -9.389   3.194  0.00  0.00    -0.096 C 
ATOM     32  H   UNL     1       1.562  -8.739   1.561  0.00  0.00    -0.082 HD
ENDBRANCH  23  25
ENDBRANCH   5  21
TORSDOF 2
