REMARK  Name = ZINC39703955
REMARK  10 active torsions:
REMARK  status: ('A' for Active; 'I' for Inactive)
REMARK    1  A    between atoms: C_1  and  C_2
REMARK    2  A    between atoms: C_5  and  C_8
REMARK    3  A    between atoms: N_10  and  C_31
REMARK    4  A    between atoms: C_11  and  N_14
REMARK    5  A    between atoms: C_15  and  C_17
REMARK    6  A    between atoms: C_17  and  S_18
REMARK    7  A    between atoms: S_18  and  C_19
REMARK    8  A    between atoms: C_23  and  C_26
REMARK    9  A    between atoms: C_26  and  C_27
REMARK   10  A    between atoms: C_27  and  C_28
REMARK                            x       y       z     vdW  Elec       q    Type
REMARK                         _______ _______ _______ _____ _____    ______ ____
ROOT
ATOM      1  C   UNL     1       0.309  -4.332  -0.229  0.00  0.00    +0.070 C 
ATOM      2  N   UNL     1       0.300  -5.220  -1.163  0.00  0.00    -0.182 NA
ATOM      3  N   UNL     1       0.026  -6.511  -0.718  0.00  0.00    -0.203 N 
ATOM      4  C   UNL     1      -0.180  -6.479   0.738  0.00  0.00    +0.189 C 
ATOM      5  C   UNL     1       0.017  -4.993   1.099  0.00  0.00    +0.101 C 
ENDROOT
BRANCH   1  10
ATOM      6  C   UNL     1       1.329   1.277  -0.990  0.00  0.00    +0.044 C 
ATOM      7  C   UNL     1       1.062  -0.193  -0.790  0.00  0.00    -0.050 A 
ATOM      8  C   UNL     1       1.075  -1.049  -1.878  0.00  0.00    +0.004 A 
ATOM      9  C   UNL     1       0.831  -2.395  -1.703  0.00  0.00    +0.010 A 
ATOM     10  C   UNL     1       0.572  -2.894  -0.424  0.00  0.00    -0.002 A 
ATOM     11  C   UNL     1       0.561  -2.024   0.669  0.00  0.00    +0.010 A 
ATOM     12  C   UNL     1       0.811  -0.681   0.480  0.00  0.00    +0.004 A 
ENDBRANCH   1  10
BRANCH   3  13
ATOM     13  C   UNL     1      -0.043  -7.649  -1.523  0.00  0.00    +0.054 A 
ATOM     14  C   UNL     1       0.035  -8.913  -0.950  0.00  0.00    +0.025 A 
ATOM     15  C   UNL     1      -0.034 -10.037  -1.749  0.00  0.00    +0.002 A 
ATOM     16  C   UNL     1      -0.179  -9.906  -3.119  0.00  0.00    +0.000 A 
ATOM     17  C   UNL     1      -0.257  -8.650  -3.692  0.00  0.00    +0.002 A 
ATOM     18  C   UNL     1      -0.196  -7.522  -2.898  0.00  0.00    +0.025 A 
ENDBRANCH   3  13
BRANCH   4  19
ATOM     19  N   UNL     1      -1.533  -6.926   1.078  0.00  0.00    -0.294 N 
ATOM     20  C   UNL     1      -1.722  -8.139   1.636  0.00  0.00    +0.225 C 
ATOM     21  O   UNL     1      -0.767  -8.819   1.946  0.00  0.00    -0.275 OA
ATOM     22  H   UNL     1      -2.293  -6.350   0.901  0.00  0.00    +0.151 HD
BRANCH  20  23
ATOM     23  C   UNL     1      -3.120  -8.648   1.875  0.00  0.00    +0.173 C 
BRANCH  23  24
ATOM     24  S   UNL     1      -3.041 -10.295   2.632  0.00  0.00    -0.075 S 
BRANCH  24  25
ATOM     25  C   UNL     1      -4.731 -10.746   2.846  0.00  0.00    +0.213 A 
ATOM     26  N   UNL     1      -5.033 -11.921   3.387  0.00  0.00    -0.180 NA
ATOM     27  C   UNL     1      -6.309 -12.256   3.545  0.00  0.00    +0.296 A 
ATOM     28  O   UNL     1      -6.647 -13.447   4.095  0.00  0.00    -0.264 OA
ATOM     29  C   UNL     1      -7.294 -11.356   3.135  0.00  0.00    +0.130 A 
ATOM     30  N   UNL     1      -6.933 -10.203   2.604  0.00  0.00    -0.146 NA
ATOM     31  N   UNL     1      -5.688  -9.906   2.469  0.00  0.00    -0.122 NA
BRANCH  29  32
ATOM     32  C   UNL     1      -8.753 -11.697   3.297  0.00  0.00    +0.074 C 
BRANCH  32  33
ATOM     33  C   UNL     1      -9.242 -11.210   4.662  0.00  0.00    +0.131 C 
BRANCH  33  34
ATOM     34  C   UNL     1     -10.701 -11.551   4.823  0.00  0.00    +0.356 C 
ATOM     35  O   UNL     1     -11.295 -12.130   3.929  0.00  0.00    -0.246 OA
ATOM     36  O   UNL     1     -11.289 -11.248   5.848  0.00  0.00    -0.246 OA
ENDBRANCH  33  34
ENDBRANCH  32  33
ENDBRANCH  29  32
ENDBRANCH  24  25
ENDBRANCH  23  24
ENDBRANCH  20  23
ENDBRANCH   4  19
TORSDOF 9
