REMARK  Name = ZINC15777368
REMARK  6 active torsions:
REMARK  status: ('A' for Active; 'I' for Inactive)
REMARK    1  A    between atoms: C_4  and  N_7
REMARK    2  A    between atoms: C_8  and  C_10
REMARK    3  A    between atoms: C_10  and  N_11
REMARK    4  A    between atoms: N_19  and  N_20
REMARK    5  A    between atoms: C_21  and  C_23
REMARK    6  A    between atoms: C_25  and  N_29
REMARK                            x       y       z     vdW  Elec       q    Type
REMARK                         _______ _______ _______ _____ _____    ______ ____
ROOT
ATOM      1  N   UNL     1      -7.191  -4.141  -0.305  0.00  0.00    -0.257 N 
ATOM      2  C   UNL     1      -5.813  -3.958  -0.312  0.00  0.00    +0.047 A 
ATOM      3  C   UNL     1      -4.761  -4.861  -0.424  0.00  0.00    +0.024 A 
ATOM      4  C   UNL     1      -3.456  -4.411  -0.403  0.00  0.00    +0.002 A 
ATOM      5  C   UNL     1      -3.178  -3.061  -0.271  0.00  0.00    +0.001 A 
ATOM      6  C   UNL     1      -4.208  -2.150  -0.160  0.00  0.00    +0.012 A 
ATOM      7  C   UNL     1      -5.526  -2.592  -0.186  0.00  0.00    +0.028 A 
ATOM      8  C   UNL     1      -6.832  -1.899  -0.084  0.00  0.00    +0.153 C 
ATOM      9  N   UNL     1      -7.044  -0.612   0.050  0.00  0.00    -0.174 NA
ATOM     10  C   UNL     1      -7.841  -2.973  -0.174  0.00  0.00    +0.272 C 
ATOM     11  O   UNL     1      -9.049  -2.825  -0.137  0.00  0.00    -0.268 OA
ENDROOT
BRANCH   9  12
ATOM     12  N   UNL     1      -5.973   0.287  -0.034  0.00  0.00    -0.202 N 
ATOM     13  C   UNL     1      -6.171   1.596   0.218  0.00  0.00    +0.267 C 
ATOM     14  O   UNL     1      -7.279   1.997   0.517  0.00  0.00    -0.268 OA
ATOM     15  H   UNL     1      -5.089  -0.033  -0.273  0.00  0.00    +0.178 HD
BRANCH  13  16
ATOM     16  C   UNL     1      -5.044   2.542   0.129  0.00  0.00    +0.087 A 
ATOM     17  C   UNL     1      -3.768   2.086  -0.216  0.00  0.00    +0.049 A 
ATOM     18  C   UNL     1      -2.719   2.976  -0.296  0.00  0.00    +0.127 A 
ATOM     19  C   UNL     1      -2.921   4.321  -0.032  0.00  0.00    +0.036 A 
ATOM     20  C   UNL     1      -4.177   4.786   0.304  0.00  0.00    +0.054 A 
ATOM     21  C   UNL     1      -5.245   3.905   0.390  0.00  0.00    +0.191 A 
ATOM     22  O   UNL     1      -6.478   4.360   0.725  0.00  0.00    -0.287 OA
BRANCH  18  23
ATOM     23  N   UNL     1      -1.369   2.491  -0.661  0.00  0.00    +0.056 N 
ATOM     24  O   UNL     1      -1.187   1.309  -0.889  0.00  0.00    -0.126 OA
ATOM     25  O   UNL     1      -0.441   3.276  -0.738  0.00  0.00    -0.126 OA
ENDBRANCH  18  23
ENDBRANCH  13  16
ENDBRANCH   9  12
BRANCH   1  26
ATOM     26  C   UNL     1      -7.851  -5.444  -0.425  0.00  0.00    +0.210 C 
BRANCH  26  28
ATOM     27  N   UNL     1      -8.704  -6.899  -2.234  0.00  0.00    -0.284 N 
ATOM     28  C   UNL     1      -8.103  -5.746  -1.880  0.00  0.00    +0.235 C 
ATOM     29  O   UNL     1      -7.765  -4.952  -2.732  0.00  0.00    -0.274 OA
ATOM     30  H   UNL     1      -9.043  -7.499  -1.551  0.00  0.00    +0.155 HD
BRANCH  27  34
ATOM     31  C   UNL     1      -9.107  -7.888  -6.261  0.00  0.00    +0.000 A 
ATOM     32  C   UNL     1      -7.990  -7.198  -5.828  0.00  0.00    +0.002 A 
ATOM     33  C   UNL     1      -7.853  -6.869  -4.494  0.00  0.00    +0.023 A 
ATOM     34  C   UNL     1      -8.840  -7.231  -3.586  0.00  0.00    +0.033 A 
ATOM     35  C   UNL     1      -9.958  -7.929  -4.023  0.00  0.00    +0.023 A 
ATOM     36  C   UNL     1     -10.092  -8.250  -5.360  0.00  0.00    +0.002 A 
ENDBRANCH  27  34
ENDBRANCH  26  28
ENDBRANCH   1  26
TORSDOF 6
