REMARK  Name = ZINC64612831
REMARK  7 active torsions:
REMARK  status: ('A' for Active; 'I' for Inactive)
REMARK    1  A    between atoms: C_1  and  O_2
REMARK    2  A    between atoms: O_2  and  C_3
REMARK    3  A    between atoms: C_8  and  N_9
REMARK    4  A    between atoms: N_9  and  S_10
REMARK    5  A    between atoms: S_10  and  C_13
REMARK    6  A    between atoms: C_16  and  C_18
REMARK    7  A    between atoms: C_22  and  C_25
REMARK                            x       y       z     vdW  Elec       q    Type
REMARK                         _______ _______ _______ _____ _____    ______ ____
ROOT
ATOM      1  C   UNL     1      -0.640  -5.060   1.234  0.00  0.00    +0.111 C 
ATOM      2  C   UNL     1      -0.070  -5.590   2.311  0.00  0.00    +0.135 C 
ATOM      3  N   UNL     1      -0.979  -5.978   3.236  0.00  0.00    -0.258 NA
ATOM      4  C   UNL     1      -2.199  -5.754   2.881  0.00  0.00    +0.069 C 
ATOM      5  C   UNL     1      -2.131  -5.110   1.510  0.00  0.00    +0.113 C 
ENDROOT
BRANCH   4   6
ATOM      6  C   UNL     1      -3.443  -6.065   3.673  0.00  0.00    +0.248 C 
ATOM      7  N   UNL     1      -3.171  -5.951   5.130  0.00  0.00    -0.222 NA
ATOM      8  N   UNL     1      -4.512  -5.686   5.680  0.00  0.00    -0.223 NA
ATOM      9  C   UNL     1      -5.150  -4.834   4.650  0.00  0.00    +0.233 C 
ATOM     10  O   UNL     1      -4.462  -5.083   3.413  0.00  0.00    -0.332 OA
ATOM     11  H   UNL     1      -2.795  -6.812   5.496  0.00  0.00    +0.144 HD
ATOM     12  H   UNL     1      -4.451  -5.201   6.563  0.00  0.00    +0.144 HD
BRANCH   9  13
ATOM     13  C   UNL     1      -6.606  -5.196   4.513  0.00  0.00    -0.003 A 
ATOM     14  C   UNL     1      -7.023  -6.489   4.769  0.00  0.00    +0.007 A 
ATOM     15  C   UNL     1      -8.359  -6.822   4.643  0.00  0.00    +0.000 A 
ATOM     16  C   UNL     1      -9.278  -5.862   4.263  0.00  0.00    +0.000 A 
ATOM     17  C   UNL     1      -8.861  -4.569   4.008  0.00  0.00    +0.000 A 
ATOM     18  C   UNL     1      -7.526  -4.235   4.138  0.00  0.00    +0.007 A 
ENDBRANCH   9  13
ENDBRANCH   4   6
BRANCH   1  19
ATOM     19  S   UNL     1       0.164  -4.429  -0.201  0.00  0.00    +0.090 S 
ATOM     20  O   UNL     1      -0.635  -4.809  -1.314  0.00  0.00    -0.149 OA
ATOM     21  O   UNL     1       1.535  -4.786  -0.090  0.00  0.00    -0.149 OA
BRANCH  19  22
ATOM     22  N   UNL     1       0.097  -2.776  -0.113  0.00  0.00    -0.094 NA
BRANCH  22  28
ATOM     23  C   UNL     1       0.606  -0.608  -1.057  0.00  0.00    +0.145 A 
ATOM     24  C   UNL     1       1.173   0.159  -2.062  0.00  0.00    +0.049 A 
ATOM     25  C   UNL     1       1.786  -0.456  -3.138  0.00  0.00    +0.024 A 
ATOM     26  C   UNL     1       1.837  -1.836  -3.215  0.00  0.00    +0.043 A 
ATOM     27  C   UNL     1       1.274  -2.608  -2.215  0.00  0.00    +0.050 A 
ATOM     28  C   UNL     1       0.662  -1.998  -1.129  0.00  0.00    +0.117 A 
ATOM     29 CL   UNL     1       2.608  -2.601  -4.569  0.00  0.00    -0.083 Cl
BRANCH  23  31
ATOM     30  C   UNL     1      -0.017   1.425   0.010  0.00  0.00    +0.277 C 
ATOM     31  O   UNL     1       0.002  -0.004   0.002  0.00  0.00    -0.493 OA
ENDBRANCH  23  31
ENDBRANCH  22  28
ENDBRANCH  19  22
ENDBRANCH   1  19
TORSDOF 6
