REMARK  Name = ZINC09490880
REMARK  7 active torsions:
REMARK  status: ('A' for Active; 'I' for Inactive)
REMARK    1  A    between atoms: C_1  and  C_2
REMARK    2  A    between atoms: C_5  and  C_8
REMARK    3  A    between atoms: C_8  and  C_9
REMARK    4  A    between atoms: C_10  and  C_34
REMARK    5  A    between atoms: C_13  and  C_19
REMARK    6  A    between atoms: C_17  and  C_18
REMARK    7  A    between atoms: N_24  and  C_27
REMARK                            x       y       z     vdW  Elec       q    Type
REMARK                         _______ _______ _______ _____ _____    ______ ____
ROOT
ATOM      1  C   UNL     1      -2.194   6.054  -0.279  0.00  0.00    -0.001 A 
ATOM      2  C   UNL     1      -0.807   5.869  -0.247  0.00  0.00    +0.046 A 
ATOM      3  N   UNL     1      -0.305   4.678  -0.007  0.00  0.00    -0.232 NA
ATOM      4  C   UNL     1      -1.102   3.630   0.208  0.00  0.00    +0.168 A 
ATOM      5  C   UNL     1      -0.838   2.275   0.483  0.00  0.00    +0.101 A 
ATOM      6  C   UNL     1      -2.083   1.636   0.624  0.00  0.00    +0.150 A 
ATOM      7  N   UNL     1      -3.031   2.518   0.446  0.00  0.00    -0.172 NA
ATOM      8  N   UNL     1      -2.461   3.769   0.182  0.00  0.00    -0.218 N 
ATOM      9  C   UNL     1      -3.011   4.990  -0.069  0.00  0.00    +0.047 A 
ATOM     10  C   UNL     1      -4.508   5.162  -0.095  0.00  0.00    +0.066 C 
ATOM     11  C   UNL     1       0.113   7.038  -0.488  0.00  0.00    +0.066 C 
ENDROOT
BRANCH   5  12
ATOM     12  C   UNL     1       0.482   1.650   0.604  0.00  0.00    +0.252 C 
ATOM     13  O   UNL     1       1.433   2.306   0.988  0.00  0.00    -0.270 OA
ATOM     14  N   UNL     1       0.645   0.351   0.286  0.00  0.00    -0.294 N 
ATOM     15  C   UNL     1      -0.506  -0.485  -0.088  0.00  0.00    +0.127 C 
ATOM     16  C   UNL     1      -0.181  -1.189  -1.415  0.00  0.00    +0.124 C 
ATOM     17  N   UNL     1       1.092  -1.910  -1.281  0.00  0.00    -0.327 N 
ATOM     18  C   UNL     1       2.205  -0.985  -1.028  0.00  0.00    +0.124 C 
ATOM     19  C   UNL     1       1.978  -0.271   0.309  0.00  0.00    +0.127 C 
BRANCH  17  20
ATOM     20  C   UNL     1       1.342  -2.698  -2.408  0.00  0.00    +0.030 A 
ATOM     21  C   UNL     1       2.522  -2.536  -3.123  0.00  0.00    +0.026 A 
ATOM     22  C   UNL     1       2.769  -3.319  -4.233  0.00  0.00    +0.040 A 
ATOM     23  C   UNL     1       1.837  -4.258  -4.640  0.00  0.00    +0.124 A 
ATOM     24  C   UNL     1       0.657  -4.419  -3.933  0.00  0.00    +0.040 A 
ATOM     25  C   UNL     1       0.409  -3.641  -2.818  0.00  0.00    +0.026 A 
ATOM     26  F   UNL     1       2.079  -5.020  -5.730  0.00  0.00    -0.205 F 
ENDBRANCH  17  20
ENDBRANCH   5  12
BRANCH   1  27
ATOM     27  C   UNL     1      -2.774   7.417  -0.553  0.00  0.00    +0.073 C 
BRANCH  27  32
ATOM     28  C   UNL     1      -3.940  10.058   4.453  0.00  0.00    +0.044 C 
ATOM     29  C   UNL     1      -3.636   9.369   3.148  0.00  0.00    -0.050 A 
ATOM     30  C   UNL     1      -2.398   9.529   2.554  0.00  0.00    +0.003 A 
ATOM     31  C   UNL     1      -2.119   8.898   1.356  0.00  0.00    +0.004 A 
ATOM     32  C   UNL     1      -3.078   8.106   0.753  0.00  0.00    -0.043 A 
ATOM     33  C   UNL     1      -4.318   7.950   1.344  0.00  0.00    +0.004 A 
ATOM     34  C   UNL     1      -4.595   8.578   2.544  0.00  0.00    +0.003 A 
ENDBRANCH  27  32
ENDBRANCH   1  27
TORSDOF 4
