REMARK  Name = ZINC10498218
REMARK  10 active torsions:
REMARK  status: ('A' for Active; 'I' for Inactive)
REMARK    1  A    between atoms: C_1  and  C_2
REMARK    2  A    between atoms: C_2  and  C_3
REMARK    3  A    between atoms: C_3  and  N_4
REMARK    4  A    between atoms: C_5  and  N_31
REMARK    5  A    between atoms: C_6  and  C_13
REMARK    6  A    between atoms: N_9  and  C_12
REMARK    7  A    between atoms: C_13  and  C_15
REMARK    8  A    between atoms: C_15  and  N_16
REMARK    9  A    between atoms: C_19  and  C_23
REMARK   10  A    between atoms: C_19  and  C_24
REMARK                            x       y       z     vdW  Elec       q    Type
REMARK                         _______ _______ _______ _____ _____    ______ ____
ROOT
ATOM      1  C   UNL     1      -2.397   0.247   4.236  0.00  0.00    +0.189 C 
ATOM      2  O   UNL     1      -2.880   0.666   5.269  0.00  0.00    -0.290 OA
ENDROOT
BRANCH   1   5
ATOM      3  N   UNL     1      -1.468   3.371   2.514  0.00  0.00    -0.281 N 
ATOM      4  C   UNL     1      -1.997   2.538   3.458  0.00  0.00    +0.116 A 
ATOM      5  C   UNL     1      -1.868   1.149   3.288  0.00  0.00    +0.121 A 
ATOM      6  C   UNL     1      -1.166   0.666   2.092  0.00  0.00    +0.269 A 
ATOM      7  O   UNL     1      -1.025  -0.527   1.894  0.00  0.00    -0.267 OA
ATOM      8  N   UNL     1      -0.680   1.571   1.218  0.00  0.00    -0.263 N 
ATOM      9  C   UNL     1      -0.829   2.888   1.437  0.00  0.00    +0.333 A 
ATOM     10  O   UNL     1      -0.373   3.671   0.627  0.00  0.00    -0.246 OA
ATOM     11  C   UNL     1       0.024   1.113   0.019  0.00  0.00    +0.157 C 
BRANCH   4  12
ATOM     12  N   UNL     1      -2.637   3.045   4.547  0.00  0.00    -0.344 N 
ATOM     13  H   UNL     1      -2.428   3.939   4.859  0.00  0.00    +0.144 HD
ATOM     14  H   UNL     1      -3.302   2.513   5.010  0.00  0.00    +0.144 HD
ENDBRANCH   4  12
BRANCH   3  15
ATOM     15  C   UNL     1      -1.597   4.821   2.682  0.00  0.00    +0.128 C 
BRANCH  15  17
ATOM     16  C   UNL     1      -0.528   6.867   3.638  0.00  0.00    +0.005 C 
ATOM     17  C   UNL     1      -0.394   5.353   3.462  0.00  0.00    +0.018 C 
ENDBRANCH  15  17
ENDBRANCH   3  15
ENDBRANCH   1   5
BRANCH   1  18
ATOM     18  C   UNL     1      -2.363  -1.235   3.967  0.00  0.00    +0.197 C 
BRANCH  18  19
ATOM     19  N   UNL     1      -2.968  -1.950   5.094  0.00  0.00    -0.216 N 
ATOM     20  C   UNL     1      -4.278  -2.253   5.183  0.00  0.00    +0.251 C 
ATOM     21  O   UNL     1      -5.146  -1.994   4.377  0.00  0.00    -0.272 OA
ATOM     22  C   UNL     1      -4.441  -2.984   6.500  0.00  0.00    +0.135 C 
ATOM     23  N   UNL     1      -3.076  -3.011   7.053  0.00  0.00    -0.281 N 
ATOM     24  C   UNL     1      -2.287  -2.389   6.159  0.00  0.00    +0.310 C 
ATOM     25  O   UNL     1      -1.090  -2.238   6.303  0.00  0.00    -0.252 OA
ATOM     26  C   UNL     1      -4.956  -4.406   6.267  0.00  0.00    +0.047 C 
ATOM     27  H   UNL     1      -2.800  -3.404   7.895  0.00  0.00    +0.152 HD
BRANCH  22  28
ATOM     28  C   UNL     1      -5.369  -2.227   7.415  0.00  0.00    -0.015 A 
ATOM     29  C   UNL     1      -6.378  -1.446   6.884  0.00  0.00    +0.007 A 
ATOM     30  C   UNL     1      -7.232  -0.755   7.723  0.00  0.00    +0.020 A 
ATOM     31  C   UNL     1      -7.070  -0.838   9.095  0.00  0.00    +0.041 A 
ATOM     32  C   UNL     1      -6.057  -1.616   9.626  0.00  0.00    +0.020 A 
ATOM     33  C   UNL     1      -5.207  -2.310   8.786  0.00  0.00    +0.007 A 
ATOM     34 CL   UNL     1      -8.139   0.034  10.149  0.00  0.00    -0.084 Cl
ENDBRANCH  22  28
ENDBRANCH  18  19
ENDBRANCH   1  18
TORSDOF 7
