REMARK  Name = ZINC35838197
REMARK  5 active torsions:
REMARK  status: ('A' for Active; 'I' for Inactive)
REMARK    1  A    between atoms: C_1  and  C_2
REMARK    2  A    between atoms: C_2  and  N_3
REMARK    3  A    between atoms: N_3  and  C_4
REMARK    4  A    between atoms: N_14  and  C_17
REMARK    5  A    between atoms: C_28  and  C_30
REMARK                            x       y       z     vdW  Elec       q    Type
REMARK                         _______ _______ _______ _____ _____    ______ ____
ROOT
ATOM      1  N   UNL     1       0.924  -0.915   0.830  0.00  0.00    -0.318 N 
ATOM      2  C   UNL     1       0.380   0.423   1.076  0.00  0.00    +0.130 C 
ATOM      3  C   UNL     1       2.292  -1.125   0.874  0.00  0.00    +0.131 A 
ATOM      4  C   UNL     1       2.903  -1.570   2.053  0.00  0.00    +0.029 A 
ATOM      5  C   UNL     1       4.261  -1.772   2.057  0.00  0.00    +0.028 A 
ATOM      6  N   UNL     1       4.950  -1.526   0.945  0.00  0.00    -0.331 N 
ATOM      7  C   UNL     1       4.350  -1.103  -0.156  0.00  0.00    +0.198 A 
ATOM      8  N   UNL     1       3.040  -0.912  -0.202  0.00  0.00    -0.201 NA
ATOM      9  N   UNL     1       5.108  -0.862  -1.288  0.00  0.00    -0.298 N 
ATOM     10  C   UNL     1       6.540  -1.189  -1.313  0.00  0.00    +0.127 C 
ATOM     11  C   UNL     1       6.811  -2.114  -2.506  0.00  0.00    +0.124 C 
ATOM     12  N   UNL     1       6.198  -1.526  -3.705  0.00  0.00    -0.325 N 
ATOM     13  C   UNL     1       4.765  -1.198  -3.680  0.00  0.00    +0.124 C 
ATOM     14  C   UNL     1       4.494  -0.278  -2.489  0.00  0.00    +0.127 C 
ATOM     15  C   UNL     1       5.009  -2.278   3.260  0.00  0.00    +0.072 C 
ATOM     16  C   UNL     1       4.199  -2.052   4.536  0.00  0.00    +0.114 C 
ATOM     17  N   UNL     1       2.822  -2.513   4.290  0.00  0.00    -0.293 N 
ATOM     18  C   UNL     1       2.045  -1.801   3.268  0.00  0.00    +0.148 C 
ATOM     19  C   UNL     1       2.297  -3.547   4.975  0.00  0.00    +0.247 C 
ATOM     20  O   UNL     1       2.993  -4.184   5.742  0.00  0.00    -0.270 OA
ATOM     21  H   UNL     1       5.911  -1.658   0.941  0.00  0.00    +0.168 HD
ENDROOT
BRANCH  12  22
ATOM     22  C   UNL     1       6.964  -1.282  -4.849  0.00  0.00    +0.065 A 
ATOM     23  C   UNL     1       7.082  -2.258  -5.829  0.00  0.00    +0.026 A 
ATOM     24  C   UNL     1       7.839  -2.014  -6.959  0.00  0.00    +0.002 A 
ATOM     25  C   UNL     1       8.479  -0.799  -7.115  0.00  0.00    +0.003 A 
ATOM     26  C   UNL     1       8.365   0.177  -6.141  0.00  0.00    +0.040 A 
ATOM     27  C   UNL     1       7.604  -0.058  -5.011  0.00  0.00    +0.144 A 
ATOM     28  F   UNL     1       7.488   0.897  -4.063  0.00  0.00    -0.204 F 
ENDBRANCH  12  22
BRANCH  19  29
ATOM     29  C   UNL     1       0.875  -3.908   4.795  0.00  0.00    +0.037 A 
ATOM     30  C   UNL     1       0.466  -5.235   4.931  0.00  0.00    +0.014 A 
ATOM     31  C   UNL     1      -0.863  -5.565   4.762  0.00  0.00    +0.021 A 
ATOM     32  C   UNL     1      -1.790  -4.582   4.457  0.00  0.00    +0.041 A 
ATOM     33  C   UNL     1      -1.389  -3.263   4.320  0.00  0.00    +0.021 A 
ATOM     34  C   UNL     1      -0.065  -2.920   4.493  0.00  0.00    +0.014 A 
ATOM     35 CL   UNL     1      -3.460  -5.005   4.244  0.00  0.00    -0.084 Cl
ENDBRANCH  19  29
BRANCH   1  37
ATOM     36  C   UNL     1      -0.203  -2.123  -0.974  0.00  0.00    +0.024 C 
ATOM     37  C   UNL     1       0.021  -2.031   0.537  0.00  0.00    +0.103 C 
ENDBRANCH   1  37
TORSDOF 3
