REMARK  Name = ZINC00709140
REMARK  6 active torsions:
REMARK  status: ('A' for Active; 'I' for Inactive)
REMARK    1  A    between atoms: C_1  and  O_2
REMARK    2  A    between atoms: O_2  and  C_3
REMARK    3  A    between atoms: C_8  and  N_9
REMARK    4  A    between atoms: C_15  and  C_17
REMARK    5  A    between atoms: C_22  and  C_35
REMARK    6  A    between atoms: C_25  and  C_28
REMARK                            x       y       z     vdW  Elec       q    Type
REMARK                         _______ _______ _______ _____ _____    ______ ____
ROOT
ATOM      1  C   UNL     1       1.262  -0.399  -0.026  0.00  0.00    +0.167 A 
ATOM      2  C   UNL     1       2.080   0.751  -0.009  0.00  0.00    +0.112 A 
ATOM      3  C   UNL     1       1.268   1.836  -0.018  0.00  0.00    +0.137 A 
ATOM      4  N   UNL     1      -0.020   1.390  -0.040  0.00  0.00    -0.237 N 
ATOM      5  N   UNL     1       0.001  -0.005  -0.045  0.00  0.00    -0.163 NA
ATOM      6  C   UNL     1      -1.196   2.268  -0.050  0.00  0.00    +0.215 C 
ATOM      7  C   UNL     1      -0.733   3.677   0.348  0.00  0.00    +0.063 C 
ATOM      8  C   UNL     1       0.529   4.031  -0.445  0.00  0.00    +0.104 C 
ATOM      9  N   UNL     1       1.644   3.178  -0.006  0.00  0.00    -0.321 N 
ATOM     10 CL   UNL     1       3.816   0.772   0.019  0.00  0.00    -0.078 Cl
ATOM     11  H   UNL     1       2.462   3.330  -0.578  0.00  0.00    +0.148 HD
ENDROOT
BRANCH   1  18
ATOM     12  N   UNL     1      -0.841  -4.678   1.274  0.00  0.00    -0.324 N 
ATOM     13  C   UNL     1      -1.212  -3.257   1.309  0.00  0.00    +0.124 C 
ATOM     14  C   UNL     1      -0.601  -2.543   0.099  0.00  0.00    +0.127 C 
ATOM     15  N   UNL     1       0.846  -2.808   0.082  0.00  0.00    -0.293 N 
ATOM     16  C   UNL     1       1.299  -4.204   0.177  0.00  0.00    +0.127 C 
ATOM     17  C   UNL     1       0.613  -4.852   1.390  0.00  0.00    +0.124 C 
ATOM     18  C   UNL     1       1.733  -1.799  -0.023  0.00  0.00    +0.268 C 
ATOM     19  O   UNL     1       2.921  -2.040  -0.115  0.00  0.00    -0.268 OA
BRANCH  12  25
ATOM     20  C   UNL     1      -2.362  -6.446   1.922  0.00  0.00    +0.141 A 
ATOM     21  C   UNL     1      -3.019  -7.157   2.912  0.00  0.00    +0.047 A 
ATOM     22  C   UNL     1      -2.842  -6.818   4.241  0.00  0.00    +0.004 A 
ATOM     23  C   UNL     1      -2.005  -5.774   4.587  0.00  0.00    +0.002 A 
ATOM     24  C   UNL     1      -1.340  -5.063   3.605  0.00  0.00    +0.027 A 
ATOM     25  C   UNL     1      -1.513  -5.397   2.270  0.00  0.00    +0.072 A 
BRANCH  20  27
ATOM     26  C   UNL     1      -3.424  -7.860   0.333  0.00  0.00    +0.277 C 
ATOM     27  O   UNL     1      -2.539  -6.774   0.615  0.00  0.00    -0.493 OA
ENDBRANCH  20  27
ENDBRANCH  12  25
ENDBRANCH   1  18
BRANCH   8  28
ATOM     28  C   UNL     1       0.880   5.477  -0.210  0.00  0.00    -0.027 A 
ATOM     29  C   UNL     1       1.541   5.848   0.946  0.00  0.00    +0.006 A 
ATOM     30  C   UNL     1       1.868   7.174   1.161  0.00  0.00    +0.015 A 
ATOM     31  C   UNL     1       1.524   8.131   0.224  0.00  0.00    +0.018 A 
ATOM     32  C   UNL     1       0.858   7.760  -0.931  0.00  0.00    +0.015 A 
ATOM     33  C   UNL     1       0.536   6.433  -1.147  0.00  0.00    +0.006 A 
ATOM     34 BR   UNL     1       1.964   9.946   0.520  0.00  0.00    -0.050 Br
ENDBRANCH   8  28
BRANCH   6  35
ATOM     35  C   UNL     1      -2.231   1.760   0.956  0.00  0.00    +0.412 C 
ATOM     36  F   UNL     1      -1.671   1.750   2.238  0.00  0.00    -0.168 F 
ATOM     37  F   UNL     1      -3.348   2.602   0.941  0.00  0.00    -0.168 F 
ATOM     38  F   UNL     1      -2.620   0.462   0.607  0.00  0.00    -0.168 F 
ENDBRANCH   6  35
TORSDOF 5
