REMARK  Name = ZINC51086515
REMARK  3 active torsions:
REMARK  status: ('A' for Active; 'I' for Inactive)
REMARK    1  A    between atoms: C_1  and  C_2
REMARK    2  A    between atoms: CA_3  and  C_15
REMARK    3  A    between atoms: C_5  and  C_7
REMARK                            x       y       z     vdW  Elec       q    Type
REMARK                         _______ _______ _______ _____ _____    ______ ____
ROOT
ATOM      1  C   UNL     1      -0.018   1.503   0.010  0.00  0.00    +0.089 C 
ATOM      2  C   UNL     1       0.002  -0.004   0.002  0.00  0.00    +0.137 A 
ATOM      3  CA  UNL     1      -1.084  -0.830   0.003  0.00  0.00    +0.193 A 
ATOM      4  N   UNL     1      -0.619  -2.107  -0.007  0.00  0.00    -0.202 NA
ATOM      5  C   UNL     1       0.689  -2.070  -0.012  0.00  0.00    +0.230 A 
ATOM      6  O   UNL     1       1.092  -0.786  -0.013  0.00  0.00    -0.440 OA
ENDROOT
BRANCH   5   7
ATOM      7  C   UNL     1       1.580  -3.249  -0.022  0.00  0.00    +0.055 A 
ATOM      8  C   UNL     1       2.966  -3.080  -0.021  0.00  0.00    +0.016 A 
ATOM      9  C   UNL     1       3.792  -4.184  -0.030  0.00  0.00    +0.016 A 
ATOM     10  C   UNL     1       3.251  -5.459  -0.041  0.00  0.00    +0.019 A 
ATOM     11  C   UNL     1       1.878  -5.634  -0.042  0.00  0.00    +0.036 A 
ATOM     12  C   UNL     1       1.040  -4.537  -0.026  0.00  0.00    +0.054 A 
ATOM     13 CL   UNL     1      -0.682  -4.757  -0.020  0.00  0.00    -0.083 Cl
ATOM     14 BR   UNL     1       4.393  -6.966  -0.055  0.00  0.00    -0.050 Br
ENDBRANCH   5   7
BRANCH   3  15
ATOM     15  C   UNL     1      -2.495  -0.415   0.012  0.00  0.00    +0.408 C 
ATOM     16  O   UNL     1      -2.783   0.774   0.020  0.00  0.00    -0.239 OA
ATOM     17  OXT UNL     1      -3.381  -1.259   0.011  0.00  0.00    -0.239 OA
ENDBRANCH   3  15
TORSDOF 2
