REMARK  Name = ZINC67010283
REMARK  9 active torsions:
REMARK  status: ('A' for Active; 'I' for Inactive)
REMARK    1  A    between atoms: C_1  and  C_2
REMARK    2  A    between atoms: C_2  and  C_4
REMARK    3  A    between atoms: C_2  and  N_15
REMARK    4  A    between atoms: C_8  and  S_10
REMARK    5  A    between atoms: S_10  and  N_13
REMARK    6  A    between atoms: N_13  and  C_14
REMARK    7  A    between atoms: N_15  and  C_16
REMARK    8  A    between atoms: C_16  and  C_17
REMARK    9  A    between atoms: C_21  and  N_24
REMARK                            x       y       z     vdW  Elec       q    Type
REMARK                         _______ _______ _______ _____ _____    ______ ____
ROOT
ATOM      1  C   UNL     1      -0.019   1.526   0.010  0.00  0.00    +0.029 C 
ATOM      2  C   UNL     1       0.002  -0.004   0.002  0.00  0.00    +0.081 C 
ENDROOT
BRANCH   2   3
ATOM      3  C   UNL     1       0.707  -0.490  -1.238  0.00  0.00    -0.029 A 
ATOM      4  C   UNL     1       2.089  -0.511  -1.284  0.00  0.00    +0.005 A 
ATOM      5  C   UNL     1       2.736  -0.957  -2.421  0.00  0.00    +0.002 A 
ATOM      6  C   UNL     1       2.002  -1.382  -3.512  0.00  0.00    +0.028 A 
ATOM      7  C   UNL     1       0.620  -1.362  -3.466  0.00  0.00    +0.106 A 
ATOM      8  C   UNL     1      -0.027  -0.920  -2.327  0.00  0.00    +0.033 A 
BRANCH   7   9
ATOM      9  S   UNL     1      -0.316  -1.904  -4.857  0.00  0.00    +0.058 S 
ATOM     10  O   UNL     1      -1.586  -1.274  -4.762  0.00  0.00    -0.153 OA
ATOM     11  O   UNL     1       0.524  -1.758  -5.994  0.00  0.00    -0.153 OA
BRANCH   9  12
ATOM     12  N   UNL     1      -0.578  -3.528  -4.668  0.00  0.00    -0.193 NA
ATOM     13  C   UNL     1      -1.396  -4.014  -3.554  0.00  0.00    +0.127 C 
ATOM     14  H   UNL     1      -0.190  -4.158  -5.295  0.00  0.00    +0.148 HD
ENDBRANCH   9  12
ENDBRANCH   7   9
ENDBRANCH   2   3
BRANCH   2  15
ATOM     15  N   UNL     1       0.713  -0.491   1.192  0.00  0.00    -0.305 NA
ATOM     16  H   UNL     1       1.151  -1.381   1.012  0.00  0.00    +0.123 HD
BRANCH  15  17
ATOM     17  C   UNL     1      -0.191  -0.572   2.348  0.00  0.00    +0.120 C 
BRANCH  17  18
ATOM     18  C   UNL     1       0.572  -1.074   3.547  0.00  0.00    +0.017 A 
ATOM     19  C   UNL     1       0.481  -2.402   3.918  0.00  0.00    +0.028 A 
ATOM     20  C   UNL     1       1.182  -2.863   5.018  0.00  0.00    +0.044 A 
ATOM     21  C   UNL     1       1.974  -1.996   5.750  0.00  0.00    +0.056 A 
ATOM     22  C   UNL     1       2.067  -0.667   5.382  0.00  0.00    +0.174 A 
ATOM     23  C   UNL     1       1.370  -0.204   4.276  0.00  0.00    +0.213 A 
ATOM     24  O   UNL     1       1.464   1.101   3.909  0.00  0.00    -0.285 OA
ATOM     25 CL   UNL     1       1.066  -4.532   5.482  0.00  0.00    -0.083 Cl
BRANCH  22  26
ATOM     26  N   UNL     1       2.914   0.260   6.165  0.00  0.00    +0.060 N 
ATOM     27  O   UNL     1       3.526  -0.145   7.126  0.00  0.00    -0.126 OA
ATOM     28  O   UNL     1       2.996   1.422   5.843  0.00  0.00    -0.126 OA
ENDBRANCH  22  26
ENDBRANCH  17  18
ENDBRANCH  15  17
ENDBRANCH   2  15
TORSDOF 7
