REMARK  Name = ZINC09237864
REMARK  6 active torsions:
REMARK  status: ('A' for Active; 'I' for Inactive)
REMARK    1  A    between atoms: C_1  and  C_2
REMARK    2  A    between atoms: C_5  and  N_9
REMARK    3  A    between atoms: C_6  and  C_8
REMARK    4  A    between atoms: C_10  and  C_12
REMARK    5  A    between atoms: C_14  and  C_24
REMARK    6  A    between atoms: C_18  and  C_23
REMARK                            x       y       z     vdW  Elec       q    Type
REMARK                         _______ _______ _______ _____ _____    ______ ____
ROOT
ATOM      1  C   UNL     1       4.818   4.013   0.194  0.00  0.00    +0.166 C 
ATOM      2  C   UNL     1       5.944   3.254  -0.519  0.00  0.00    +0.140 C 
ATOM      3  N   UNL     1       5.939   1.844  -0.126  0.00  0.00    -0.272 N 
ATOM      4  N   UNL     1       6.107   1.648   1.207  0.00  0.00    -0.225 N 
ATOM      5  C   UNL     1       6.543   0.516   1.834  0.00  0.00    +0.148 A 
ATOM      6  N   UNL     1       6.538   0.757   3.117  0.00  0.00    -0.132 NA
ATOM      7  N   UNL     1       6.135   1.959   3.341  0.00  0.00    -0.121 NA
ATOM      8  C   UNL     1       5.864   2.545   2.208  0.00  0.00    +0.209 A 
ATOM      9  S   UNL     1       5.287   4.192   1.942  0.00  0.00    -0.069 S 
ATOM     10  C   UNL     1       6.954  -0.772   1.169  0.00  0.00    +0.090 C 
ATOM     11  H   UNL     1       6.617   1.318  -0.657  0.00  0.00    +0.167 HD
ENDROOT
BRANCH   2  12
ATOM     12  C   UNL     1       5.747   3.356  -2.010  0.00  0.00    -0.024 A 
ATOM     13  C   UNL     1       4.839   2.531  -2.646  0.00  0.00    +0.005 A 
ATOM     14  C   UNL     1       4.655   2.627  -4.012  0.00  0.00    +0.000 A 
ATOM     15  C   UNL     1       5.387   3.544  -4.745  0.00  0.00    +0.000 A 
ATOM     16  C   UNL     1       6.299   4.366  -4.110  0.00  0.00    +0.000 A 
ATOM     17  C   UNL     1       6.479   4.272  -2.743  0.00  0.00    +0.005 A 
ENDBRANCH   2  12
BRANCH   1  19
ATOM     18  N   UNL     1       2.355   3.889   0.001  0.00  0.00    -0.284 N 
ATOM     19  C   UNL     1       3.531   3.236   0.088  0.00  0.00    +0.233 C 
ATOM     20  O   UNL     1       3.554   2.024   0.082  0.00  0.00    -0.274 OA
ATOM     21  H   UNL     1       2.341   4.857  -0.060  0.00  0.00    +0.155 HD
BRANCH  18  26
ATOM     22  C   UNL     1      -2.514   0.978  -0.022  0.00  0.00    +0.044 C 
ATOM     23  C   UNL     1      -1.220   1.750  -0.014  0.00  0.00    -0.050 A 
ATOM     24  C   UNL     1      -0.095   1.217  -0.616  0.00  0.00    +0.005 A 
ATOM     25  C   UNL     1       1.092   1.924  -0.614  0.00  0.00    +0.024 A 
ATOM     26  C   UNL     1       1.155   3.170  -0.003  0.00  0.00    +0.036 A 
ATOM     27  C   UNL     1       0.025   3.700   0.605  0.00  0.00    -0.029 A 
ATOM     28  C   UNL     1      -1.159   2.987   0.600  0.00  0.00    +0.008 A 
ATOM     29  C   UNL     1       0.089   5.051   1.269  0.00  0.00    +0.045 C 
ENDBRANCH  18  26
ENDBRANCH   1  19
TORSDOF 3
