REMARK  Name = ZINC31161525
REMARK  16 active torsions:
REMARK  status: ('A' for Active; 'I' for Inactive)
REMARK    1  A    between atoms: C_1  and  O_2
REMARK    2  A    between atoms: O_2  and  C_3
REMARK    3  A    between atoms: C_5  and  O_41
REMARK    4  A    between atoms: C_6  and  O_40
REMARK    5  A    between atoms: C_8  and  C_9
REMARK    6  A    between atoms: C_14  and  O_23
REMARK    7  A    between atoms: C_15  and  O_21
REMARK    8  A    between atoms: C_16  and  O_20
REMARK    9  A    between atoms: O_21  and  C_22
REMARK   10  A    between atoms: O_23  and  C_24
REMARK   11  A    between atoms: C_26  and  O_39
REMARK   12  A    between atoms: C_28  and  O_38
REMARK   13  A    between atoms: C_30  and  O_37
REMARK   14  A    between atoms: C_32  and  C_35
REMARK   15  A    between atoms: C_35  and  O_36
REMARK   16  A    between atoms: O_41  and  C_42
REMARK                            x       y       z     vdW  Elec       q    Type
REMARK                         _______ _______ _______ _____ _____    ______ ____
ROOT
ATOM      1  C   UNL     1      -3.138   7.163   0.727  0.00  0.00    +0.068 A 
ATOM      2  C   UNL     1      -2.100   7.717   1.403  0.00  0.00    +0.208 A 
ATOM      3  O   UNL     1      -1.074   6.994   1.862  0.00  0.00    -0.462 OA
ATOM      4  C   UNL     1      -0.977   5.659   1.697  0.00  0.00    +0.146 A 
ATOM      5  C   UNL     1       0.116   4.965   2.199  0.00  0.00    +0.096 A 
ATOM      6  C   UNL     1       0.207   3.594   2.029  0.00  0.00    +0.173 A 
ATOM      7  C   UNL     1      -0.788   2.894   1.347  0.00  0.00    +0.204 A 
ATOM      8  C   UNL     1      -1.886   3.568   0.839  0.00  0.00    +0.177 A 
ATOM      9  C   UNL     1      -1.984   4.955   1.013  0.00  0.00    +0.110 A 
ATOM     10  C   UNL     1      -3.134   5.709   0.490  0.00  0.00    +0.204 A 
ATOM     11  O   UNL     1      -4.040   5.157  -0.112  0.00  0.00    -0.286 OA
ENDROOT
BRANCH   1  17
ATOM     12  C   UNL     1      -5.542   7.835   0.753  0.00  0.00    +0.132 A 
ATOM     13  C   UNL     1      -6.583   8.623   0.292  0.00  0.00    +0.095 A 
ATOM     14  C   UNL     1      -6.349   9.582  -0.681  0.00  0.00    +0.165 A 
ATOM     15  C   UNL     1      -5.069   9.756  -1.198  0.00  0.00    +0.159 A 
ATOM     16  C   UNL     1      -4.024   8.975  -0.739  0.00  0.00    +0.061 A 
ATOM     17  C   UNL     1      -4.256   8.006   0.236  0.00  0.00    +0.034 A 
BRANCH  12  19
ATOM     18  C   UNL     1      -7.112   6.775   2.192  0.00  0.00    +0.277 C 
ATOM     19  O   UNL     1      -5.772   6.895   1.709  0.00  0.00    -0.494 OA
ENDBRANCH  12  19
BRANCH  15  20
ATOM     20  O   UNL     1      -4.844  10.698  -2.154  0.00  0.00    -0.503 OA
ATOM     21  H   UNL     1      -3.832  10.836  -2.563  0.00  0.00    +0.292 HD
ENDBRANCH  15  20
BRANCH  14  22
ATOM     22  O   UNL     1      -7.374  10.355  -1.131  0.00  0.00    -0.491 OA
ATOM     23  C   UNL     1      -8.662  10.124  -0.557  0.00  0.00    +0.277 C 
ENDBRANCH  14  22
ENDBRANCH   1  17
BRANCH   8  24
ATOM     24  O   UNL     1      -2.860   2.891   0.178  0.00  0.00    -0.503 OA
ATOM     25  H   UNL     1      -3.730   3.431  -0.223  0.00  0.00    +0.292 HD
ENDBRANCH   8  24
BRANCH   7  26
ATOM     26  O   UNL     1      -0.682   1.547   1.184  0.00  0.00    -0.488 OA
ATOM     27  C   UNL     1      -0.013   1.086   0.008  0.00  0.00    +0.277 C 
ENDBRANCH   7  26
BRANCH   6  28
ATOM     28  O   UNL     1       1.278   2.925   2.527  0.00  0.00    -0.457 OA
BRANCH  28  29
ATOM     29  C   UNL     1       2.263   3.698   3.216  0.00  0.00    +0.339 C 
ATOM     30  C   UNL     1       3.497   2.832   3.484  0.00  0.00    +0.214 C 
ATOM     31  C   UNL     1       4.522   3.649   4.275  0.00  0.00    +0.180 C 
ATOM     32  C   UNL     1       3.872   4.150   5.568  0.00  0.00    +0.177 C 
ATOM     33  C   UNL     1       2.624   4.966   5.220  0.00  0.00    +0.179 C 
ATOM     34  O   UNL     1       1.726   4.156   4.458  0.00  0.00    -0.331 OA
BRANCH  32  35
ATOM     35  O   UNL     1       3.502   3.034   6.381  0.00  0.00    -0.386 OA
ATOM     36  H   UNL     1       3.018   3.200   7.355  0.00  0.00    +0.210 HD
ENDBRANCH  32  35
BRANCH  31  37
ATOM     37  O   UNL     1       5.648   2.827   4.593  0.00  0.00    -0.386 OA
ATOM     38  H   UNL     1       6.491   3.246   5.163  0.00  0.00    +0.210 HD
ENDBRANCH  31  37
BRANCH  30  39
ATOM     39  O   UNL     1       4.070   2.420   2.242  0.00  0.00    -0.383 OA
ATOM     40  H   UNL     1       4.969   1.787   2.234  0.00  0.00    +0.210 HD
ENDBRANCH  30  39
BRANCH  33  41
ATOM     41  C   UNL     1       1.935   5.420   6.508  0.00  0.00    +0.190 C 
BRANCH  41  42
ATOM     42  O   UNL     1       0.837   6.276   6.185  0.00  0.00    -0.392 OA
ATOM     43  H   UNL     1       0.218   6.704   6.987  0.00  0.00    +0.210 HD
ENDBRANCH  41  42
ENDBRANCH  33  41
ENDBRANCH  28  29
ENDBRANCH   6  28
TORSDOF 13
