REMARK  Name = ZINC65461562
REMARK  1 active torsions:
REMARK  status: ('A' for Active; 'I' for Inactive)
REMARK    1  A    between atoms: C_6  and  C_7
REMARK                            x       y       z     vdW  Elec       q    Type
REMARK                         _______ _______ _______ _____ _____    ______ ____
ROOT
ATOM      1  C   UNL     1      -1.293  -0.774   0.009  0.00  0.00    +0.066 C 
ATOM      2  C   UNL     1      -2.059  -0.440   1.279  0.00  0.00    +0.109 C 
ATOM      3  C   UNL     1      -3.294  -1.281   1.388  0.00  0.00    +0.214 C 
ATOM      4  O   UNL     1      -3.355  -2.120   2.261  0.00  0.00    -0.276 OA
ATOM      5  N   UNL     1      -4.325  -1.140   0.561  0.00  0.00    -0.310 N 
ATOM      6  C   UNL     1      -4.422  -0.028  -0.370  0.00  0.00    +0.160 C 
ATOM      7  C   UNL     1      -3.346  -0.092  -1.435  0.00  0.00    +0.071 A 
ATOM      8  C   UNL     1      -2.066  -0.432  -1.223  0.00  0.00    +0.024 A 
ATOM      9  S   UNL     1      -1.383  -0.390  -2.872  0.00  0.00    -0.056 S 
ATOM     10  C   UNL     1      -2.769   0.124  -3.673  0.00  0.00    +0.161 A 
ATOM     11  N   UNL     1      -3.646   0.205  -2.712  0.00  0.00    -0.228 NA
ATOM     12  N   UNL     1      -2.938   0.393  -5.023  0.00  0.00    -0.310 N 
ATOM     13  C   UNL     1      -1.900   0.270  -6.057  0.00  0.00    +0.107 C 
ATOM     14  C   UNL     1      -2.537   0.696  -7.397  0.00  0.00    +0.020 C 
ATOM     15  C   UNL     1      -3.734   1.575  -6.949  0.00  0.00    +0.020 C 
ATOM     16  C   UNL     1      -4.189   0.843  -5.659  0.00  0.00    +0.107 C 
ATOM     17  H   UNL     1      -5.036  -1.800   0.580  0.00  0.00    +0.149 HD
ENDROOT
BRANCH   1  23
ATOM     18  C   UNL     1      -0.017   1.378   0.010  0.00  0.00    +0.008 A 
ATOM     19  C   UNL     1       1.170   2.088   0.002  0.00  0.00    +0.050 A 
ATOM     20  C   UNL     1       2.382   1.415  -0.013  0.00  0.00    +0.162 A 
ATOM     21  C   UNL     1       2.401   0.025  -0.018  0.00  0.00    +0.162 A 
ATOM     22  C   UNL     1       1.207  -0.681  -0.011  0.00  0.00    +0.053 A 
ATOM     23  C   UNL     1       0.002  -0.004   0.002  0.00  0.00    -0.035 A 
ATOM     24  O   UNL     1       3.579  -0.656  -0.024  0.00  0.00    -0.485 OA
ATOM     25  C   UNL     1       4.746   0.081  -0.406  0.00  0.00    +0.270 C 
ATOM     26  C   UNL     1       4.733   1.422   0.340  0.00  0.00    +0.270 C 
ATOM     27  O   UNL     1       3.542   2.127  -0.024  0.00  0.00    -0.485 OA
ENDBRANCH   1  23
TORSDOF 1
