REMARK  Name = ZINC13815904
REMARK  2 active torsions:
REMARK  status: ('A' for Active; 'I' for Inactive)
REMARK    1  A    between atoms: C_6  and  C_7
REMARK    2  A    between atoms: N_15  and  C_18
REMARK                            x       y       z     vdW  Elec       q    Type
REMARK                         _______ _______ _______ _____ _____    ______ ____
ROOT
ATOM      1  C   UNL     1      -1.250   2.152  -0.006  0.00  0.00    +0.092 C 
ATOM      2  N   UNL     1      -2.418   1.600   0.046  0.00  0.00    -0.088 NA
ATOM      3  O   UNL     1      -3.474   2.545   0.080  0.00  0.00    -0.377 OA
ATOM      4  C   UNL     1      -2.933   3.800  -0.332  0.00  0.00    +0.228 C 
ATOM      5  C   UNL     1      -1.437   3.661  -0.013  0.00  0.00    +0.120 C 
ATOM      6  C   UNL     1      -3.174   4.076  -1.817  0.00  0.00    +0.157 C 
ATOM      7  C   UNL     1      -3.923   5.395  -1.802  0.00  0.00    +0.231 C 
ATOM      8  O   UNL     1      -4.317   5.990  -2.781  0.00  0.00    -0.275 OA
ATOM      9  N   UNL     1      -4.079   5.797  -0.532  0.00  0.00    -0.207 N 
ATOM     10  C   UNL     1      -3.554   4.963   0.382  0.00  0.00    +0.274 C 
ATOM     11  O   UNL     1      -3.578   5.125   1.583  0.00  0.00    -0.270 OA
ENDROOT
BRANCH   1  17
ATOM     12  C   UNL     1       1.237   2.160  -0.106  0.00  0.00    +0.011 A 
ATOM     13  C   UNL     1       2.441   1.490  -0.148  0.00  0.00    +0.020 A 
ATOM     14  C   UNL     1       2.467   0.105  -0.131  0.00  0.00    +0.041 A 
ATOM     15  C   UNL     1       1.285  -0.614  -0.071  0.00  0.00    +0.020 A 
ATOM     16  C   UNL     1       0.075   0.045  -0.029  0.00  0.00    +0.011 A 
ATOM     17  C   UNL     1       0.042   1.441  -0.046  0.00  0.00    -0.000 A 
ATOM     18 CL   UNL     1       3.987  -0.732  -0.186  0.00  0.00    -0.084 Cl
ENDBRANCH   1  17
BRANCH   9  19
ATOM     19  C   UNL     1      -4.737   6.986  -0.187  0.00  0.00    +0.044 A 
ATOM     20  C   UNL     1      -5.951   6.940   0.484  0.00  0.00    +0.025 A 
ATOM     21  C   UNL     1      -6.594   8.114   0.827  0.00  0.00    +0.017 A 
ATOM     22  C   UNL     1      -6.034   9.334   0.494  0.00  0.00    +0.018 A 
ATOM     23  C   UNL     1      -4.826   9.382  -0.180  0.00  0.00    +0.017 A 
ATOM     24  C   UNL     1      -4.177   8.212  -0.521  0.00  0.00    +0.025 A 
ATOM     25 BR   UNL     1      -6.920  10.938   0.959  0.00  0.00    -0.050 Br
ENDBRANCH   9  19
TORSDOF 2
