REMARK  Name = ZINC09281238
REMARK  4 active torsions:
REMARK  status: ('A' for Active; 'I' for Inactive)
REMARK    1  A    between atoms: C_1  and  C_2
REMARK    2  A    between atoms: C_2  and  C_4
REMARK    3  A    between atoms: C_6  and  C_30
REMARK    4  A    between atoms: C_33  and  N_36
REMARK                            x       y       z     vdW  Elec       q    Type
REMARK                         _______ _______ _______ _____ _____    ______ ____
ROOT
ATOM      1  C   UNL     1      -0.014   1.089  -0.001  0.00  0.00    +0.149 C 
ATOM      2  C   UNL     1       1.435   1.653  -0.003  0.00  0.00    +0.070 C 
ATOM      3  C   UNL     1       1.760   1.896   1.486  0.00  0.00    +0.127 C 
ATOM      4  C   UNL     1       0.534   1.403   2.240  0.00  0.00    +0.119 C 
ATOM      5  N   UNL     1      -0.573   1.588   1.262  0.00  0.00    -0.311 N 
ATOM      6  C   UNL     1      -1.721   1.014   1.752  0.00  0.00    +0.038 A 
ATOM      7  C   UNL     1      -2.585   0.257   0.985  0.00  0.00    +0.024 A 
ATOM      8  C   UNL     1      -3.719  -0.288   1.559  0.00  0.00    +0.002 A 
ATOM      9  C   UNL     1      -3.996  -0.084   2.900  0.00  0.00    +0.001 A 
ATOM     10  C   UNL     1      -3.144   0.673   3.682  0.00  0.00    +0.010 A 
ATOM     11  C   UNL     1      -2.006   1.231   3.118  0.00  0.00    -0.004 A 
ATOM     12  C   UNL     1      -1.077   2.069   3.913  0.00  0.00    +0.007 C 
ATOM     13  C   UNL     1       0.196   2.163   3.485  0.00  0.00    -0.003 C 
ATOM     14  C   UNL     1       3.006   1.152   1.888  0.00  0.00    +0.180 C 
ATOM     15  O   UNL     1       3.182  -0.046   1.833  0.00  0.00    -0.291 OA
ATOM     16  C   UNL     1       3.963   2.155   2.360  0.00  0.00    +0.029 A 
ATOM     17  C   UNL     1       5.265   1.978   2.840  0.00  0.00    +0.012 A 
ATOM     18  C   UNL     1       5.957   3.119   3.222  0.00  0.00    +0.001 A 
ATOM     19  C   UNL     1       5.398   4.379   3.138  0.00  0.00    +0.001 A 
ATOM     20  C   UNL     1       4.108   4.582   2.666  0.00  0.00    +0.012 A 
ATOM     21  C   UNL     1       3.389   3.449   2.273  0.00  0.00    +0.029 A 
ATOM     22  C   UNL     1       2.028   3.356   1.741  0.00  0.00    +0.180 C 
ATOM     23  O   UNL     1       1.264   4.276   1.544  0.00  0.00    -0.291 OA
ENDROOT
BRANCH   2  24
ATOM     24  C   UNL     1       2.390   0.647  -0.592  0.00  0.00    -0.041 A 
ATOM     25  C   UNL     1       3.459   1.075  -1.357  0.00  0.00    +0.006 A 
ATOM     26  C   UNL     1       4.338   0.152  -1.893  0.00  0.00    +0.033 A 
ATOM     27  C   UNL     1       4.141  -1.199  -1.674  0.00  0.00    +0.126 A 
ATOM     28  C   UNL     1       3.068  -1.626  -0.914  0.00  0.00    +0.033 A 
ATOM     29  C   UNL     1       2.193  -0.703  -0.373  0.00  0.00    +0.006 A 
BRANCH  27  30
ATOM     30  N   UNL     1       5.078  -2.187  -2.253  0.00  0.00    +0.056 N 
ATOM     31  O   UNL     1       4.905  -3.377  -2.059  0.00  0.00    -0.126 OA
ATOM     32  O   UNL     1       6.023  -1.810  -2.923  0.00  0.00    -0.126 OA
ENDBRANCH  27  30
ENDBRANCH   2  24
BRANCH   1  34
ATOM     33  C   UNL     1      -0.650   0.974  -2.530  0.00  0.00    +0.088 C 
ATOM     34  C   UNL     1      -0.793   1.621  -1.176  0.00  0.00    +0.151 C 
ATOM     35  O   UNL     1      -1.531   2.566  -1.034  0.00  0.00    -0.296 OA
ENDBRANCH   1  34
TORSDOF 3
