REMARK  Name = ZINC37427037
REMARK  14 active torsions:
REMARK  status: ('A' for Active; 'I' for Inactive)
REMARK    1  A    between atoms: C_1  and  C_2
REMARK    2  A    between atoms: C_2  and  C_3
REMARK    3  A    between atoms: C_3  and  C_5
REMARK    4  A    between atoms: C_3  and  N_6
REMARK    5  A    between atoms: C_7  and  C_9
REMARK    6  A    between atoms: C_9  and  N_10
REMARK    7  A    between atoms: C_13  and  C_24
REMARK    8  A    between atoms: N_15  and  C_16
REMARK    9  A    between atoms: C_19  and  C_23
REMARK   10  A    between atoms: C_21  and  C_22
REMARK   11  A    between atoms: C_24  and  C_25
REMARK   12  A    between atoms: C_24  and  C_26
REMARK   13  A    between atoms: C_24  and  C_27
REMARK   14  A    between atoms: C_28  and  C_34
REMARK                            x       y       z     vdW  Elec       q    Type
REMARK                         _______ _______ _______ _____ _____    ______ ____
ROOT
ATOM      1  N   UNL     1      -7.988   1.695  -7.076  0.00  0.00    -0.246 N 
ATOM      2  C   UNL     1      -8.112   0.677  -6.119  0.00  0.00    +0.136 A 
ATOM      3  C   UNL     1      -9.056  -0.292  -6.167  0.00  0.00    +0.034 A 
ATOM      4  C   UNL     1      -8.880  -1.117  -5.056  0.00  0.00    +0.075 A 
ATOM      5  N   UNL     1      -7.863  -0.663  -4.364  0.00  0.00    -0.169 NA
ATOM      6  N   UNL     1      -7.355   0.473  -5.015  0.00  0.00    -0.217 N 
ATOM      7  C   UNL     1     -10.095  -0.428  -7.250  0.00  0.00    +0.112 C 
ATOM      8  S   UNL     1     -11.349   0.884  -7.023  0.00  0.00    -0.138 S 
ATOM      9  C   UNL     1     -10.315   2.319  -6.578  0.00  0.00    +0.166 C 
ATOM     10  C   UNL     1      -9.084   2.375  -7.428  0.00  0.00    +0.231 C 
ATOM     11  O   UNL     1      -9.082   3.039  -8.444  0.00  0.00    -0.274 OA
ENDROOT
BRANCH   6  12
ATOM     12  C   UNL     1      -6.266   1.251  -4.600  0.00  0.00    +0.070 A 
ATOM     13  C   UNL     1      -6.472   2.541  -4.130  0.00  0.00    +0.028 A 
ATOM     14  C   UNL     1      -5.396   3.305  -3.721  0.00  0.00    +0.005 A 
ATOM     15  C   UNL     1      -4.116   2.787  -3.780  0.00  0.00    -0.050 A 
ATOM     16  C   UNL     1      -3.908   1.502  -4.247  0.00  0.00    +0.008 A 
ATOM     17  C   UNL     1      -4.980   0.731  -4.652  0.00  0.00    -0.025 A 
ATOM     18  C   UNL     1      -4.753  -0.672  -5.155  0.00  0.00    +0.046 C 
ATOM     19  C   UNL     1      -2.944   3.624  -3.334  0.00  0.00    +0.044 C 
ENDBRANCH   6  12
BRANCH   7  20
ATOM     20  C   UNL     1     -10.751  -1.782  -7.155  0.00  0.00    -0.027 A 
ATOM     21  C   UNL     1     -11.885  -1.948  -6.382  0.00  0.00    +0.005 A 
ATOM     22  C   UNL     1     -12.487  -3.189  -6.294  0.00  0.00    +0.003 A 
ATOM     23  C   UNL     1     -11.956  -4.265  -6.979  0.00  0.00    +0.038 A 
ATOM     24  C   UNL     1     -10.820  -4.100  -7.753  0.00  0.00    +0.124 A 
ATOM     25  C   UNL     1     -10.221  -2.855  -7.846  0.00  0.00    +0.043 A 
ATOM     26  F   UNL     1     -10.300  -5.152  -8.423  0.00  0.00    -0.205 F 
ENDBRANCH   7  20
BRANCH   4  27
ATOM     27  C   UNL     1      -9.715  -2.323  -4.710  0.00  0.00    +0.007 C 
ATOM     28  C   UNL     1      -9.437  -3.442  -5.715  0.00  0.00    +0.017 C 
ATOM     29  C   UNL     1      -9.359  -2.803  -3.301  0.00  0.00    +0.017 C 
ATOM     30  C   UNL     1     -11.198  -1.948  -4.761  0.00  0.00    +0.017 C 
ENDBRANCH   4  27
BRANCH   1  31
ATOM     31  C   UNL     1      -6.687   2.009  -7.672  0.00  0.00    +0.210 C 
BRANCH  31  33
ATOM     32  N   UNL     1      -5.474   1.471  -9.760  0.00  0.00    -0.311 N 
ATOM     33  C   UNL     1      -6.505   1.204  -8.933  0.00  0.00    +0.231 C 
ATOM     34  O   UNL     1      -7.286   0.317  -9.205  0.00  0.00    -0.274 OA
ATOM     35  H   UNL     1      -4.793   2.109  -9.495  0.00  0.00    +0.149 HD
BRANCH  32  36
ATOM     36  C   UNL     1      -5.383   0.798 -11.058  0.00  0.00    +0.070 C 
ATOM     37  C   UNL     1      -6.694   0.986 -11.823  0.00  0.00    +0.028 C 
BRANCH  36  39
ATOM     38  C   UNL     1      -2.905   1.104 -11.161  0.00  0.00    +0.005 C 
ATOM     39  C   UNL     1      -4.231   1.400 -11.865  0.00  0.00    +0.018 C 
ENDBRANCH  36  39
ENDBRANCH  32  36
ENDBRANCH  31  33
ENDBRANCH   1  31
TORSDOF 7
