REMARK  Name = ZINC12635421
REMARK  12 active torsions:
REMARK  status: ('A' for Active; 'I' for Inactive)
REMARK    1  A    between atoms: C_1  and  C_2
REMARK    2  A    between atoms: C_2  and  N_67
REMARK    3  A    between atoms: C_6  and  C_8
REMARK    4  A    between atoms: C_8  and  N_9
REMARK    5  A    between atoms: N_9  and  C_10
REMARK    6  A    between atoms: N_9  and  C_24
REMARK    7  A    between atoms: C_10  and  C_11
REMARK    8  A    between atoms: C_16  and  C_23
REMARK    9  A    between atoms: C_24  and  N_26
REMARK   10  A    between atoms: N_26  and  C_27
REMARK   11  A    between atoms: C_31  and  C_34
REMARK   12  A    between atoms: C_32  and  C_33
REMARK                            x       y       z     vdW  Elec       q    Type
REMARK                         _______ _______ _______ _____ _____    ______ ____
ROOT
ATOM      1  N   UNL     1       5.010   4.427  -0.590  0.00  0.00    -0.309 N 
ENDROOT
BRANCH   1   2
ATOM      2  C   UNL     1       5.711   3.505  -1.278  0.00  0.00    +0.137 C 
ATOM      3  S   UNL     1       6.148   2.028  -0.530  0.00  0.00    -0.018 S 
BRANCH   2   4
ATOM      4  N   UNL     1       6.068   3.745  -2.556  0.00  0.00    -0.297 N 
ATOM      5  H   UNL     1       5.886   4.609  -2.956  0.00  0.00    +0.154 HD
BRANCH   4   6
ATOM      6  C   UNL     1       6.700   2.746  -3.304  0.00  0.00    +0.036 A 
ATOM      7  C   UNL     1       7.766   2.039  -2.762  0.00  0.00    +0.023 A 
ATOM      8  C   UNL     1       8.388   1.054  -3.504  0.00  0.00    +0.002 A 
ATOM      9  C   UNL     1       7.952   0.772  -4.785  0.00  0.00    +0.004 A 
ATOM     10  C   UNL     1       6.892   1.474  -5.328  0.00  0.00    -0.046 A 
ATOM     11  C   UNL     1       6.261   2.457  -4.589  0.00  0.00    -0.026 A 
ATOM     12  C   UNL     1       5.101   3.217  -5.179  0.00  0.00    +0.046 C 
ATOM     13  C   UNL     1       6.420   1.164  -6.725  0.00  0.00    +0.044 C 
ENDBRANCH   4   6
ENDBRANCH   2   4
ENDBRANCH   1   2
BRANCH   1  14
ATOM     14  C   UNL     1       4.636   5.691  -1.230  0.00  0.00    +0.092 C 
BRANCH  14  18
ATOM     15  C   UNL     1       6.297   8.288   0.734  0.00  0.00    -0.078 C 
ATOM     16  C   UNL     1       6.169   9.057  -0.598  0.00  0.00    -0.020 C 
ATOM     17  C   UNL     1       5.264   8.130  -1.451  0.00  0.00    -0.016 C 
ATOM     18  C   UNL     1       5.738   6.727  -0.997  0.00  0.00    -0.051 C 
ATOM     19  N   UNL     1       5.994   6.876   0.449  0.00  0.00    +0.382 N 
ATOM     20  H   UNL     1       5.156   6.596   0.973  0.00  0.00    -0.081 HD
BRANCH  19  22
ATOM     21  C   UNL     1       7.443   6.255   2.338  0.00  0.00    -0.017 C 
ATOM     22  C   UNL     1       7.133   6.014   0.860  0.00  0.00    -0.082 C 
ENDBRANCH  19  22
ENDBRANCH  14  18
ENDBRANCH   1  14
BRANCH   1  23
ATOM     23  C   UNL     1       4.622   4.167   0.798  0.00  0.00    +0.147 C 
BRANCH  23  24
ATOM     24  C   UNL     1       3.275   3.491   0.825  0.00  0.00    +0.035 A 
ATOM     25  C   UNL     1       3.200   2.138   0.889  0.00  0.00    +0.020 A 
ATOM     26  C   UNL     1       1.876   1.512   0.914  0.00  0.00    -0.001 A 
ATOM     27  C   UNL     1       1.735   0.122   0.981  0.00  0.00    +0.010 A 
ATOM     28  C   UNL     1       0.486  -0.431   1.002  0.00  0.00    +0.004 A 
ATOM     29  C   UNL     1      -0.644   0.374   0.958  0.00  0.00    -0.048 A 
ATOM     30  C   UNL     1      -0.528   1.746   0.893  0.00  0.00    +0.029 A 
ATOM     31  C   UNL     1       0.733   2.332   0.870  0.00  0.00    +0.049 A 
ATOM     32  N   UNL     1       0.878   3.701   0.805  0.00  0.00    -0.322 N 
ATOM     33  H   UNL     1       0.089   4.265   0.774  0.00  0.00    +0.169 HD
ATOM     34  C   UNL     1       2.098   4.267   0.783  0.00  0.00    +0.254 A 
ATOM     35  O   UNL     1       2.188   5.481   0.725  0.00  0.00    -0.268 OA
ATOM     36  C   UNL     1      -2.012  -0.258   0.983  0.00  0.00    +0.044 C 
ENDBRANCH  23  24
ENDBRANCH   1  23
TORSDOF 8
