REMARK  Name = ZINC59438457
REMARK  10 active torsions:
REMARK  status: ('A' for Active; 'I' for Inactive)
REMARK    1  A    between atoms: C_1  and  O_2
REMARK    2  A    between atoms: O_2  and  C_3
REMARK    3  A    between atoms: C_6  and  C_10
REMARK    4  A    between atoms: N_12  and  C_13
REMARK    5  A    between atoms: C_13  and  N_15
REMARK    6  A    between atoms: N_15  and  C_16
REMARK    7  A    between atoms: C_16  and  C_17
REMARK    8  A    between atoms: C_17  and  N_18
REMARK    9  A    between atoms: N_18  and  C_19
REMARK   10  A    between atoms: C_22  and  N_26
REMARK                            x       y       z     vdW  Elec       q    Type
REMARK                         _______ _______ _______ _____ _____    ______ ____
ROOT
ATOM      1  N   UNL     1       3.188  -5.777  -5.553  0.00  0.00    -0.325 N 
ATOM      2  H   UNL     1       2.792  -6.315  -4.850  0.00  0.00    +0.148 HD
ENDROOT
BRANCH   1   3
ATOM      3  C   UNL     1       3.139  -4.432  -5.481  0.00  0.00    +0.137 C 
ATOM      4  S   UNL     1       3.837  -3.483  -6.723  0.00  0.00    -0.018 S 
BRANCH   3   7
ATOM      5  C   UNL     1       2.492  -2.490  -4.360  0.00  0.00    +0.250 C 
ATOM      6  O   UNL     1       2.987  -1.816  -5.241  0.00  0.00    -0.270 OA
ATOM      7  N   UNL     1       2.540  -3.835  -4.432  0.00  0.00    -0.264 N 
ATOM      8  H   UNL     1       2.145  -4.373  -3.728  0.00  0.00    +0.157 HD
BRANCH   5  12
ATOM      9  C   UNL     1       0.605  -0.606  -1.054  0.00  0.00    +0.134 A 
ATOM     10  C   UNL     1       1.172   0.166  -2.061  0.00  0.00    +0.047 A 
ATOM     11  C   UNL     1       1.785  -0.441  -3.135  0.00  0.00    +0.017 A 
ATOM     12  C   UNL     1       1.837  -1.836  -3.211  0.00  0.00    +0.038 A 
ATOM     13  C   UNL     1       1.266  -2.609  -2.197  0.00  0.00    +0.032 A 
ATOM     14  C   UNL     1       0.658  -1.994  -1.123  0.00  0.00    +0.060 A 
ATOM     15 BR   UNL     1      -0.109  -3.039   0.254  0.00  0.00    -0.046 Br
BRANCH   9  17
ATOM     16  C   UNL     1      -0.017   1.425   0.010  0.00  0.00    +0.277 C 
ATOM     17  O   UNL     1       0.002  -0.004   0.002  0.00  0.00    -0.494 OA
ENDBRANCH   9  17
ENDBRANCH   5  12
ENDBRANCH   3   7
ENDBRANCH   1   3
BRANCH   1  18
ATOM     18  C   UNL     1       3.838  -6.427  -6.694  0.00  0.00    +0.122 C 
BRANCH  18  19
ATOM     19  C   UNL     1       3.755  -7.946  -6.531  0.00  0.00    +0.120 C 
BRANCH  19  20
ATOM     20  N   UNL     1       4.406  -8.595  -7.672  0.00  0.00    -0.341 N 
ATOM     21  H   UNL     1       4.801  -8.057  -8.376  0.00  0.00    +0.146 HD
BRANCH  20  22
ATOM     22  C   UNL     1       4.456  -9.990  -7.747  0.00  0.00    +0.046 A 
ATOM     23  C   UNL     1       3.885 -10.761  -6.743  0.00  0.00    +0.026 A 
ATOM     24  C   UNL     1       3.936 -12.140  -6.820  0.00  0.00    +0.034 A 
ATOM     25  C   UNL     1       4.556 -12.752  -7.894  0.00  0.00    +0.128 A 
ATOM     26  C   UNL     1       5.125 -11.987  -8.896  0.00  0.00    +0.054 A 
ATOM     27  C   UNL     1       5.073 -10.607  -8.828  0.00  0.00    +0.064 A 
ATOM     28 CL   UNL     1       5.782  -9.648 -10.089  0.00  0.00    -0.082 Cl
BRANCH  25  29
ATOM     29  N   UNL     1       4.609 -14.229  -7.973  0.00  0.00    +0.056 N 
ATOM     30  O   UNL     1       4.112 -14.899  -7.098  0.00  0.00    -0.126 OA
ATOM     31  O   UNL     1       5.150 -14.765  -8.911  0.00  0.00    -0.126 OA
ENDBRANCH  25  29
ENDBRANCH  20  22
ENDBRANCH  19  20
ENDBRANCH  18  19
ENDBRANCH   1  18
TORSDOF 9
