REMARK  Name = ZINC44855671
REMARK  8 active torsions:
REMARK  status: ('A' for Active; 'I' for Inactive)
REMARK    1  A    between atoms: C_1  and  C_2
REMARK    2  A    between atoms: C_2  and  C_33
REMARK    3  A    between atoms: C_4  and  N_15
REMARK    4  A    between atoms: C_9  and  O_13
REMARK    5  A    between atoms: O_13  and  C_14
REMARK    6  A    between atoms: C_16  and  C_18
REMARK    7  A    between atoms: N_21  and  C_24
REMARK    8  A    between atoms: C_24  and  C_25
REMARK                            x       y       z     vdW  Elec       q    Type
REMARK                         _______ _______ _______ _____ _____    ______ ____
ROOT
ATOM      1  N   UNL     1       2.958  -0.525  -2.280  0.00  0.00    -0.308 N 
ATOM      2  C   UNL     1       3.991   0.132  -2.844  0.00  0.00    +0.216 C 
ATOM      3  O   UNL     1       4.237   1.273  -2.513  0.00  0.00    -0.276 OA
ATOM      4  H   UNL     1       2.762  -1.438  -2.545  0.00  0.00    +0.149 HD
ENDROOT
BRANCH   1   8
ATOM      5  C   UNL     1      -0.019   1.526   0.010  0.00  0.00    +0.055 C 
ATOM      6  C   UNL     1       0.002  -0.004   0.002  0.00  0.00    +0.107 C 
ATOM      7  C   UNL     1       0.743  -0.504  -1.245  0.00  0.00    +0.074 C 
ATOM      8  C   UNL     1       2.132   0.138  -1.268  0.00  0.00    +0.110 C 
ATOM      9  C   UNL     1       2.782  -0.010   0.084  0.00  0.00    +0.015 A 
ATOM     10  C   UNL     1       4.154   0.154   0.184  0.00  0.00    +0.012 A 
ATOM     11  C   UNL     1       4.785   0.031   1.406  0.00  0.00    +0.046 A 
ATOM     12  C   UNL     1       4.042  -0.258   2.542  0.00  0.00    +0.124 A 
ATOM     13  C   UNL     1       2.671  -0.424   2.446  0.00  0.00    +0.091 A 
ATOM     14  C   UNL     1       2.037  -0.302   1.214  0.00  0.00    +0.130 A 
ATOM     15  O   UNL     1       0.692  -0.482   1.157  0.00  0.00    -0.486 OA
ATOM     16  C   UNL     1      -1.431  -0.539  -0.000  0.00  0.00    +0.055 C 
BRANCH  12  17
ATOM     17  O   UNL     1       4.660  -0.377   3.747  0.00  0.00    -0.495 OA
ATOM     18  C   UNL     1       6.076  -0.193   3.771  0.00  0.00    +0.277 C 
ENDBRANCH  12  17
ENDBRANCH   1   8
BRANCH   2  19
ATOM     19  C   UNL     1       4.841  -0.550  -3.884  0.00  0.00    +0.071 C 
ATOM     20  C   UNL     1       5.493  -1.795  -3.277  0.00  0.00    -0.006 C 
ATOM     21  C   UNL     1       6.417  -2.438  -4.314  0.00  0.00    -0.078 C 
ATOM     22  N   UNL     1       7.458  -1.481  -4.708  0.00  0.00    +0.382 N 
ATOM     23  C   UNL     1       6.844  -0.316  -5.356  0.00  0.00    -0.078 C 
ATOM     24  C   UNL     1       5.937   0.408  -4.359  0.00  0.00    -0.006 C 
ATOM     25  H   UNL     1       7.964  -1.181  -3.889  0.00  0.00    -0.081 HD
BRANCH  22  26
ATOM     26  C   UNL     1       8.386  -2.128  -5.644  0.00  0.00    -0.042 C 
BRANCH  26  27
ATOM     27  C   UNL     1       9.523  -1.188  -5.954  0.00  0.00    -0.046 A 
ATOM     28  C   UNL     1       9.515  -0.457  -7.127  0.00  0.00    +0.004 A 
ATOM     29  C   UNL     1      10.557   0.405  -7.412  0.00  0.00    +0.020 A 
ATOM     30  C   UNL     1      11.609   0.537  -6.522  0.00  0.00    +0.042 A 
ATOM     31  C   UNL     1      11.617  -0.194  -5.348  0.00  0.00    +0.040 A 
ATOM     32  C   UNL     1      10.571  -1.053  -5.062  0.00  0.00    +0.044 A 
ATOM     33 CL   UNL     1      10.578  -1.966  -3.585  0.00  0.00    -0.083 Cl
ATOM     34 CL   UNL     1      12.918   1.619  -6.880  0.00  0.00    -0.083 Cl
ENDBRANCH  26  27
ENDBRANCH  22  26
ENDBRANCH   2  19
TORSDOF 5
