REMARK  Name = ZINC26804466
REMARK  10 active torsions:
REMARK  status: ('A' for Active; 'I' for Inactive)
REMARK    1  A    between atoms: CD1_1  and  CG_2
REMARK    2  A    between atoms: CG_2  and  CD2_3
REMARK    3  A    between atoms: CG_2  and  CB_4
REMARK    4  A    between atoms: CB_4  and  CA_5
REMARK    5  A    between atoms: CA_5  and  C_7
REMARK    6  A    between atoms: CA_5  and  N_10
REMARK    7  A    between atoms: C_11  and  CA_13
REMARK    8  A    between atoms: CA_13  and  N_23
REMARK    9  A    between atoms: C_14  and  C_15
REMARK   10  A    between atoms: C_24  and  C_26
REMARK                            x       y       z     vdW  Elec       q    Type
REMARK                         _______ _______ _______ _____ _____    ______ ____
ROOT
ATOM      1  CA  UNL     1      -2.119   4.656   1.810  0.00  0.00    +0.097 C 
ATOM      2  C   UNL     1      -1.366   5.592   1.186  0.00  0.00    +0.038 C 
ENDROOT
BRANCH   2   3
ATOM      3  C   UNL     1      -1.840   6.981   1.104  0.00  0.00    -0.005 A 
ATOM      4  C   UNL     1      -3.208   7.264   1.189  0.00  0.00    +0.011 A 
ATOM      5  C   UNL     1      -3.645   8.568   1.112  0.00  0.00    +0.020 A 
ATOM      6  C   UNL     1      -2.734   9.600   0.950  0.00  0.00    +0.042 A 
ATOM      7  C   UNL     1      -1.378   9.329   0.865  0.00  0.00    +0.040 A 
ATOM      8  C   UNL     1      -0.925   8.028   0.946  0.00  0.00    +0.050 A 
ATOM      9 CL   UNL     1       0.775   7.691   0.845  0.00  0.00    -0.083 Cl
ATOM     10 CL   UNL     1      -3.295  11.240   0.853  0.00  0.00    -0.083 Cl
ENDBRANCH   2   3
BRANCH   1  12
ATOM     11  N   UNL     1      -0.607   2.877   1.097  0.00  0.00    -0.297 N 
ATOM     12  C   UNL     1      -1.721   3.242   1.762  0.00  0.00    +0.259 C 
ATOM     13  O   UNL     1      -2.397   2.400   2.323  0.00  0.00    -0.269 OA
ATOM     14  H   UNL     1       0.005   3.638   0.590  0.00  0.00    +0.150 HD
BRANCH  11  15
ATOM     15  CA  UNL     1      -0.210   1.468   1.050  0.00  0.00    +0.187 C 
BRANCH  15  16
ATOM     16  C   UNL     1       0.588   1.129   2.282  0.00  0.00    +0.376 C 
ATOM     17  O   UNL     1       0.804   1.977   3.114  0.00  0.00    -0.244 OA
ATOM     18  OXT UNL     1       1.060  -0.116   2.454  0.00  0.00    -0.244 OA
ENDBRANCH  15  16
BRANCH  15  19
ATOM     19  CB  UNL     1       0.643   1.220  -0.196  0.00  0.00    +0.037 C 
BRANCH  19  21
ATOM     20  CD1 UNL     1       0.695   1.359  -2.690  0.00  0.00    +0.007 C 
ATOM     21  CG  UNL     1      -0.188   1.503  -1.449  0.00  0.00    -0.015 C 
ATOM     22  CD2 UNL     1      -1.347   0.507  -1.528  0.00  0.00    +0.007 C 
ENDBRANCH  19  21
ENDBRANCH  15  19
ENDBRANCH  11  15
ENDBRANCH   1  12
BRANCH   1  23
ATOM     23  N   UNL     1      -3.275   5.034   2.500  0.00  0.00    -0.277 N 
ATOM     24  C   UNL     1      -4.458   4.467   2.193  0.00  0.00    +0.250 C 
ATOM     25  O   UNL     1      -4.507   3.559   1.386  0.00  0.00    -0.270 OA
ATOM     26  H   UNL     1      -3.218   5.795   3.292  0.00  0.00    +0.155 HD
BRANCH  24  27
ATOM     27  C   UNL     1      -5.697   4.949   2.838  0.00  0.00    +0.055 A 
ATOM     28  C   UNL     1      -5.662   6.064   3.678  0.00  0.00    +0.016 A 
ATOM     29  C   UNL     1      -6.821   6.509   4.277  0.00  0.00    +0.021 A 
ATOM     30  C   UNL     1      -8.020   5.853   4.047  0.00  0.00    +0.042 A 
ATOM     31  C   UNL     1      -8.062   4.746   3.216  0.00  0.00    +0.040 A 
ATOM     32  C   UNL     1      -6.909   4.293   2.606  0.00  0.00    +0.054 A 
ATOM     33 CL   UNL     1      -6.965   2.910   1.558  0.00  0.00    -0.083 Cl
ATOM     34 CL   UNL     1      -9.475   6.420   4.805  0.00  0.00    -0.083 Cl
ENDBRANCH  24  27
ENDBRANCH   1  23
TORSDOF 8
