REMARK  Name = ZINC16390094
REMARK  11 active torsions:
REMARK  status: ('A' for Active; 'I' for Inactive)
REMARK    1  A    between atoms: C_1  and  C_2
REMARK    2  A    between atoms: C_2  and  C_3
REMARK    3  A    between atoms: C_3  and  N_53
REMARK    4  A    between atoms: C_4  and  C_5
REMARK    5  A    between atoms: C_4  and  N_53
REMARK    6  A    between atoms: N_7  and  C_8
REMARK    7  A    between atoms: C_17  and  C_18
REMARK    8  A    between atoms: C_17  and  N_53
REMARK    9  A    between atoms: N_20  and  C_21
REMARK   10  A    between atoms: C_21  and  C_23
REMARK   11  A    between atoms: C_21  and  C_24
REMARK                            x       y       z     vdW  Elec       q    Type
REMARK                         _______ _______ _______ _____ _____    ______ ____
ROOT
ATOM      1  N   UNL     1       4.269   5.767   0.443  0.00  0.00    +0.391 N 
ATOM      2  H   UNL     1       4.624   5.362  -0.431  0.00  0.00    -0.080 HD
ENDROOT
BRANCH   1   3
ATOM      3  C   UNL     1       5.209   5.448   1.538  0.00  0.00    -0.078 C 
BRANCH   3   5
ATOM      4  C   UNL     1       6.565   3.616   2.562  0.00  0.00    +0.002 C 
ATOM      5  C   UNL     1       5.669   3.997   1.381  0.00  0.00    -0.022 C 
ENDBRANCH   3   5
ENDBRANCH   1   3
BRANCH   1   6
ATOM      6  C   UNL     1       2.940   5.189   0.734  0.00  0.00    +0.020 C 
BRANCH   6   7
ATOM      7  C   UNL     1       2.098   5.256  -0.514  0.00  0.00    +0.201 C 
ATOM      8  O   UNL     1       2.586   5.645  -1.554  0.00  0.00    -0.278 OA
ATOM      9  N   UNL     1       0.803   4.885  -0.474  0.00  0.00    -0.285 N 
ATOM     10  H   UNL     1       0.394   4.643   0.372  0.00  0.00    +0.155 HD
BRANCH   9  11
ATOM     11  C   UNL     1       0.048   4.848  -1.654  0.00  0.00    +0.072 A 
ATOM     12  C   UNL     1       0.294   5.767  -2.665  0.00  0.00    +0.029 A 
ATOM     13  C   UNL     1      -0.451   5.730  -3.828  0.00  0.00    +0.043 A 
ATOM     14  C   UNL     1      -1.444   4.779  -3.987  0.00  0.00    +0.161 A 
ATOM     15  C   UNL     1      -1.693   3.859  -2.980  0.00  0.00    +0.195 A 
ATOM     16  C   UNL     1      -0.949   3.893  -1.813  0.00  0.00    +0.182 A 
ATOM     17  F   UNL     1      -1.194   3.001  -0.828  0.00  0.00    -0.200 F 
ATOM     18  F   UNL     1      -2.663   2.932  -3.137  0.00  0.00    -0.199 F 
ATOM     19  F   UNL     1      -2.171   4.746  -5.125  0.00  0.00    -0.202 F 
ENDBRANCH   9  11
ENDBRANCH   6   7
ENDBRANCH   1   6
BRANCH   1  20
ATOM     20  C   UNL     1       4.158   7.233   0.283  0.00  0.00    +0.019 C 
BRANCH  20  21
ATOM     21  C   UNL     1       5.472   7.766  -0.227  0.00  0.00    +0.197 C 
ATOM     22  O   UNL     1       6.401   7.010  -0.418  0.00  0.00    -0.278 OA
ATOM     23  N   UNL     1       5.615   9.084  -0.470  0.00  0.00    -0.310 N 
ATOM     24  H   UNL     1       4.872   9.689  -0.318  0.00  0.00    +0.149 HD
BRANCH  23  25
ATOM     25  C   UNL     1       6.893   9.603  -0.966  0.00  0.00    +0.101 C 
ATOM     26  C   UNL     1       6.892   9.583  -2.496  0.00  0.00    +0.033 C 
BRANCH  25  27
ATOM     27  C   UNL     1       7.082  11.017  -0.482  0.00  0.00    -0.009 A 
ATOM     28  C   UNL     1       5.981  11.810  -0.216  0.00  0.00    +0.007 A 
ATOM     29  C   UNL     1       6.155  13.108   0.228  0.00  0.00    +0.000 A 
ATOM     30  C   UNL     1       7.430  13.613   0.406  0.00  0.00    +0.001 A 
ATOM     31  C   UNL     1       8.531  12.821   0.141  0.00  0.00    +0.020 A 
ATOM     32  C   UNL     1       8.357  11.521  -0.298  0.00  0.00    +0.046 A 
ATOM     33 CL   UNL     1       9.740  10.523  -0.625  0.00  0.00    -0.083 Cl
ENDBRANCH  25  27
ENDBRANCH  23  25
ENDBRANCH  20  21
ENDBRANCH   1  20
TORSDOF 9
