REMARK  Name = ZINC63140340
REMARK  6 active torsions:
REMARK  status: ('A' for Active; 'I' for Inactive)
REMARK    1  A    between atoms: C_1  and  C_2
REMARK    2  A    between atoms: C_2  and  O_3
REMARK    3  A    between atoms: O_3  and  C_4
REMARK    4  A    between atoms: C_9  and  C_10
REMARK    5  A    between atoms: N_29  and  C_32
REMARK    6  A    between atoms: C_32  and  C_33
REMARK                            x       y       z     vdW  Elec       q    Type
REMARK                         _______ _______ _______ _____ _____    ______ ____
ROOT
ATOM      1  C   UNL     1      -3.614  -2.049  -0.281  0.00  0.00    +0.137 C 
ATOM      2  C   UNL     1      -3.711  -1.496   1.140  0.00  0.00    +0.131 C 
ATOM      3  C   UNL     1      -4.973  -0.635   1.167  0.00  0.00    -0.034 C 
ATOM      4  C   UNL     1      -4.588   0.599   1.461  0.00  0.00    -0.001 A 
ATOM      5  C   UNL     1      -5.350   1.843   1.651  0.00  0.00    +0.010 A 
ATOM      6  C   UNL     1      -4.623   2.953   1.947  0.00  0.00    +0.001 A 
ATOM      7  C   UNL     1      -3.230   2.949   2.071  0.00  0.00    +0.002 A 
ATOM      8  C   UNL     1      -2.449   1.851   1.914  0.00  0.00    +0.026 A 
ATOM      9  C   UNL     1      -3.100   0.621   1.602  0.00  0.00    +0.043 A 
ATOM     10  N   UNL     1      -2.595  -0.581   1.413  0.00  0.00    -0.375 N 
ATOM     11  C   UNL     1      -6.323  -1.223   0.863  0.00  0.00    +0.065 C 
ATOM     12  C   UNL     1      -6.215  -2.184  -0.293  0.00  0.00    +0.167 C 
ATOM     13  N   UNL     1      -4.894  -2.550  -0.758  0.00  0.00    -0.279 N 
ATOM     14  C   UNL     1      -4.866  -3.438  -1.806  0.00  0.00    +0.234 C 
ATOM     15  O   UNL     1      -3.821  -3.872  -2.242  0.00  0.00    -0.274 OA
ATOM     16  C   UNL     1      -6.201  -3.849  -2.391  0.00  0.00    +0.204 C 
ATOM     17  N   UNL     1      -7.040  -2.645  -2.533  0.00  0.00    -0.287 N 
ATOM     18  C   UNL     1      -7.076  -1.793  -1.468  0.00  0.00    +0.237 C 
ATOM     19  O   UNL     1      -7.759  -0.791  -1.463  0.00  0.00    -0.274 OA
ATOM     20  H   UNL     1      -1.657  -0.828   1.444  0.00  0.00    +0.160 HD
ENDROOT
BRANCH   1  26
ATOM     21  C   UNL     1      -2.918  -4.390   0.288  0.00  0.00    +0.125 A 
ATOM     22  C   UNL     1      -1.994  -5.424   0.264  0.00  0.00    +0.046 A 
ATOM     23  C   UNL     1      -0.767  -5.239  -0.344  0.00  0.00    +0.004 A 
ATOM     24  C   UNL     1      -0.461  -4.023  -0.928  0.00  0.00    +0.001 A 
ATOM     25  C   UNL     1      -1.380  -2.990  -0.904  0.00  0.00    +0.009 A 
ATOM     26  C   UNL     1      -2.610  -3.173  -0.302  0.00  0.00    +0.017 A 
BRANCH  21  27
ATOM     27  O   UNL     1      -4.126  -4.570   0.885  0.00  0.00    -0.492 OA
BRANCH  27  29
ATOM     28  C   UNL     1      -5.774  -5.862   2.092  0.00  0.00    +0.048 C 
ATOM     29  C   UNL     1      -4.374  -5.849   1.473  0.00  0.00    +0.225 C 
ENDBRANCH  27  29
ENDBRANCH  21  27
ENDBRANCH   1  26
BRANCH  17  30
ATOM     30  C   UNL     1      -7.796  -2.374  -3.758  0.00  0.00    +0.145 C 
BRANCH  30  31
ATOM     31  C   UNL     1      -7.006  -1.442  -4.640  0.00  0.00    -0.012 A 
ATOM     32  C   UNL     1      -7.280  -0.087  -4.635  0.00  0.00    +0.006 A 
ATOM     33  C   UNL     1      -6.555   0.768  -5.444  0.00  0.00    +0.000 A 
ATOM     34  C   UNL     1      -5.556   0.269  -6.258  0.00  0.00    +0.001 A 
ATOM     35  C   UNL     1      -5.281  -1.085  -6.264  0.00  0.00    +0.020 A 
ATOM     36  C   UNL     1      -6.002  -1.941  -5.451  0.00  0.00    +0.046 A 
ATOM     37 CL   UNL     1      -5.653  -3.642  -5.453  0.00  0.00    -0.083 Cl
ENDBRANCH  30  31
ENDBRANCH  17  30
TORSDOF 5
