REMARK  Name = ZINC38123626
REMARK  6 active torsions:
REMARK  status: ('A' for Active; 'I' for Inactive)
REMARK    1  A    between atoms: C_3  and  C_6
REMARK    2  A    between atoms: C_6  and  N_7
REMARK    3  A    between atoms: N_7  and  C_8
REMARK    4  A    between atoms: C_8  and  C_18
REMARK    5  A    between atoms: C_15  and  O_17
REMARK    6  A    between atoms: C_18  and  O_19
REMARK                            x       y       z     vdW  Elec       q    Type
REMARK                         _______ _______ _______ _____ _____    ______ ____
ROOT
ATOM      1  C   UNL     1       5.617   2.501   1.346  0.00  0.00    +0.020 C 
ATOM      2  C   UNL     1       5.681   3.947   0.799  0.00  0.00    +0.223 C 
ATOM      3  O   UNL     1       6.712   4.546   1.602  0.00  0.00    -0.493 OA
ATOM      4  C   UNL     1       6.764   3.918   2.809  0.00  0.00    +0.126 A 
ATOM      5  C   UNL     1       6.141   2.677   2.758  0.00  0.00    -0.011 A 
ATOM      6  C   UNL     1       6.089   1.866   3.871  0.00  0.00    +0.009 A 
ATOM      7  C   UNL     1       6.654   2.287   5.061  0.00  0.00    +0.046 A 
ATOM      8  C   UNL     1       7.272   3.527   5.128  0.00  0.00    +0.120 A 
ATOM      9  C   UNL     1       7.328   4.340   4.009  0.00  0.00    +0.091 A 
ENDROOT
BRANCH   1  10
ATOM     10  N   UNL     1       4.235   2.004   1.357  0.00  0.00    +0.392 N 
ATOM     11  H   UNL     1       3.645   2.663   1.842  0.00  0.00    -0.084 HD
ATOM     12  H   UNL     1       4.202   1.113   1.828  0.00  0.00    -0.084 HD
BRANCH  10  13
ATOM     13  C   UNL     1       3.761   1.845  -0.024  0.00  0.00    -0.038 C 
BRANCH  13  16
ATOM     14  C   UNL     1      -0.016   1.351   0.009  0.00  0.00    +0.008 A 
ATOM     15  C   UNL     1       1.183   2.038   0.002  0.00  0.00    +0.009 A 
ATOM     16  C   UNL     1       2.343   1.336  -0.013  0.00  0.00    -0.027 A 
ATOM     17  S   UNL     1       1.754  -0.349  -0.017  0.00  0.00    -0.104 S 
ATOM     18  C   UNL     1       0.002  -0.004   0.002  0.00  0.00    +0.045 A 
ENDBRANCH  13  16
ENDBRANCH  10  13
ENDBRANCH   1  10
BRANCH   8  19
ATOM     19  O   UNL     1       7.825   3.945   6.297  0.00  0.00    -0.507 OA
ATOM     20  H   UNL     1       8.754   3.696   6.405  0.00  0.00    +0.292 HD
ENDBRANCH   8  19
BRANCH   1  21
ATOM     21  C   UNL     1       6.524   1.569   0.539  0.00  0.00    +0.151 C 
BRANCH  21  22
ATOM     22  O   UNL     1       7.859   2.079   0.547  0.00  0.00    -0.396 OA
ATOM     23  H   UNL     1       8.490   1.538   0.053  0.00  0.00    +0.209 HD
ENDBRANCH  21  22
ENDBRANCH   1  21
TORSDOF 6
