REMARK  Name = ZINC43762832
REMARK  6 active torsions:
REMARK  status: ('A' for Active; 'I' for Inactive)
REMARK    1  A    between atoms: C_1  and  C_2
REMARK    2  A    between atoms: C_14  and  O_16
REMARK    3  A    between atoms: O_16  and  C_17
REMARK    4  A    between atoms: C_17  and  C_18
REMARK    5  A    between atoms: C_17  and  C_19
REMARK    6  A    between atoms: C_17  and  C_20
REMARK                            x       y       z     vdW  Elec       q    Type
REMARK                         _______ _______ _______ _____ _____    ______ ____
ROOT
ATOM      1  C   UNL     1      -0.019   1.526   0.010  0.00  0.00    +0.017 C 
ATOM      2  C   UNL     1       0.002  -0.004   0.002  0.00  0.00    +0.030 C 
ATOM      3  C   UNL     1       0.482  -0.398  -1.360  0.00  0.00    +0.023 C 
ATOM      4  C   UNL     1       1.883   0.137  -1.725  0.00  0.00    +0.121 C 
ATOM      5  C   UNL     1       2.801  -0.430  -0.664  0.00  0.00    +0.309 C 
ATOM      6  O   UNL     1       3.798   0.184  -0.367  0.00  0.00    -0.251 OA
ATOM      7  O   UNL     1       2.547  -1.580  -0.049  0.00  0.00    -0.432 OA
ATOM      8  C   UNL     1       1.971  -1.323   1.247  0.00  0.00    +0.344 C 
ATOM      9  C   UNL     1       0.739  -0.406   1.239  0.00  0.00    +0.143 C 
ATOM     10  O   UNL     1       2.040   0.069   1.619  0.00  0.00    -0.326 OA
ATOM     11  C   UNL     1      -0.353  -0.601   2.329  0.00  0.00    +0.044 C 
ATOM     12  C   UNL     1      -1.546  -1.169   1.522  0.00  0.00    +0.035 C 
ATOM     13  C   UNL     1      -1.474  -0.424   0.171  0.00  0.00    +0.128 C 
ENDROOT
BRANCH  13  14
ATOM     14  O   UNL     1      -1.864  -1.294  -0.893  0.00  0.00    -0.370 OA
BRANCH  14  15
ATOM     15  C   UNL     1      -3.248  -1.207  -1.237  0.00  0.00    +0.062 C 
ATOM     16  C   UNL     1      -3.575   0.221  -1.678  0.00  0.00    +0.041 C 
ATOM     17  C   UNL     1      -3.551  -2.176  -2.381  0.00  0.00    +0.041 C 
ATOM     18  C   UNL     1      -4.101  -1.572  -0.020  0.00  0.00    +0.041 C 
ENDBRANCH  14  15
ENDBRANCH  13  14
TORSDOF 2
