REMARK  Name = ZINC63795880
REMARK  5 active torsions:
REMARK  status: ('A' for Active; 'I' for Inactive)
REMARK    1  A    between atoms: C_1  and  C_2
REMARK    2  A    between atoms: C_4  and  C_15
REMARK    3  A    between atoms: C_18  and  C_21
REMARK    4  A    between atoms: C_21  and  C_22
REMARK    5  A    between atoms: C_21  and  C_23
REMARK                            x       y       z     vdW  Elec       q    Type
REMARK                         _______ _______ _______ _____ _____    ______ ____
ROOT
ATOM      1  C   UNL     1      -4.760   1.487   1.048  0.00  0.00    +0.067 C 
ATOM      2  C   UNL     1      -4.559   0.040   1.416  0.00  0.00    +0.064 C 
ATOM      3  C   UNL     1      -3.619  -0.755   0.893  0.00  0.00    +0.014 C 
ATOM      4  C   UNL     1      -2.619  -0.399  -0.142  0.00  0.00    +0.108 C 
ATOM      5  S   UNL     1      -2.938  -1.234  -1.710  0.00  0.00    -0.139 S 
ATOM      6  C   UNL     1      -2.639  -2.983  -1.398  0.00  0.00    +0.165 C 
ATOM      7  C   UNL     1      -3.602  -3.549  -0.418  0.00  0.00    +0.225 C 
ATOM      8  O   UNL     1      -4.019  -4.637  -0.757  0.00  0.00    -0.275 OA
ATOM      9  N   UNL     1      -4.096  -3.164   0.696  0.00  0.00    -0.288 N 
ATOM     10  C   UNL     1      -3.830  -2.075   1.589  0.00  0.00    +0.244 C 
ATOM     11  N   UNL     1      -4.974  -1.813   2.478  0.00  0.00    -0.160 NA
ATOM     12  N   UNL     1      -5.300  -0.633   2.325  0.00  0.00    -0.157 NA
ATOM     13  H   UNL     1      -4.814  -3.738   1.007  0.00  0.00    +0.151 HD
ENDROOT
BRANCH   4  14
ATOM     14  C   UNL     1      -2.655   1.091  -0.366  0.00  0.00    -0.030 A 
ATOM     15  C   UNL     1      -1.842   1.922   0.380  0.00  0.00    +0.005 A 
ATOM     16  C   UNL     1      -1.875   3.289   0.174  0.00  0.00    +0.004 A 
ATOM     17  C   UNL     1      -2.722   3.824  -0.778  0.00  0.00    -0.045 A 
ATOM     18  C   UNL     1      -3.535   2.992  -1.525  0.00  0.00    +0.004 A 
ATOM     19  C   UNL     1      -3.499   1.625  -1.323  0.00  0.00    +0.005 A 
BRANCH  17  20
ATOM     20  C   UNL     1      -2.760   5.314  -1.002  0.00  0.00    +0.013 C 
ATOM     21  C   UNL     1      -2.372   5.622  -2.449  0.00  0.00    +0.012 C 
ATOM     22  C   UNL     1      -4.172   5.835  -0.729  0.00  0.00    +0.012 C 
ENDBRANCH  17  20
ENDBRANCH   4  14
TORSDOF 2
