REMARK  Name = ZINC34389215
REMARK  1 active torsions:
REMARK  status: ('A' for Active; 'I' for Inactive)
REMARK    1  A    between atoms: C_6  and  N_7
REMARK                            x       y       z     vdW  Elec       q    Type
REMARK                         _______ _______ _______ _____ _____    ______ ____
ROOT
ATOM      1  N   UNL     1      -1.203  -0.723   0.010  0.00  0.00    -0.210 N 
ATOM      2  C   UNL     1      -2.435  -0.133   0.020  0.00  0.00    +0.232 C 
ATOM      3  O   UNL     1      -2.697   1.018  -0.254  0.00  0.00    -0.274 OA
ATOM      4  C   UNL     1      -3.399  -1.211   0.440  0.00  0.00    +0.107 C 
ATOM      5  C   UNL     1      -4.742  -1.336  -0.278  0.00  0.00    +0.071 C 
ATOM      6  C   UNL     1      -4.639  -0.851  -1.736  0.00  0.00    +0.021 C 
ATOM      7  C   UNL     1      -5.686  -1.752  -2.443  0.00  0.00    +0.017 C 
ATOM      8  C   UNL     1      -5.553  -3.095  -1.695  0.00  0.00    +0.086 C 
ATOM      9  N   UNL     1      -4.967  -2.816  -0.359  0.00  0.00    -0.281 NA
ATOM     10  C   UNL     1      -3.636  -3.482  -0.248  0.00  0.00    +0.138 C 
ATOM     11  C   UNL     1      -2.649  -2.390  -0.303  0.00  0.00    +0.123 C 
ATOM     12  C   UNL     1      -1.270  -2.094   0.003  0.00  0.00    +0.233 C 
ATOM     13  O   UNL     1      -0.371  -2.881   0.211  0.00  0.00    -0.274 OA
ATOM     14  C   UNL     1      -3.577  -4.270   1.037  0.00  0.00    +0.006 A 
ATOM     15  C   UNL     1      -3.651  -3.913   2.365  0.00  0.00    +0.046 A 
ATOM     16  C   UNL     1      -3.561  -4.884   3.349  0.00  0.00    +0.124 A 
ATOM     17  C   UNL     1      -3.399  -6.212   2.992  0.00  0.00    +0.040 A 
ATOM     18  C   UNL     1      -3.326  -6.572   1.662  0.00  0.00    +0.026 A 
ATOM     19  C   UNL     1      -3.415  -5.600   0.667  0.00  0.00    +0.039 A 
ATOM     20  N   UNL     1      -3.370  -5.713  -0.724  0.00  0.00    -0.283 N 
ATOM     21  C   UNL     1      -3.496  -4.520  -1.334  0.00  0.00    +0.243 C 
ATOM     22  O   UNL     1      -3.497  -4.317  -2.530  0.00  0.00    -0.273 OA
ATOM     23  F   UNL     1      -3.632  -4.536   4.652  0.00  0.00    -0.205 F 
ATOM     24  H   UNL     1      -3.261  -6.553  -1.196  0.00  0.00    +0.155 HD
ENDROOT
BRANCH   1  30
ATOM     25  C   UNL     1      -0.017   1.384   0.010  0.00  0.00    +0.027 A 
ATOM     26  C   UNL     1       1.170   2.090   0.002  0.00  0.00    +0.040 A 
ATOM     27  C   UNL     1       2.379   1.414  -0.013  0.00  0.00    +0.124 A 
ATOM     28  C   UNL     1       2.400   0.029  -0.021  0.00  0.00    +0.040 A 
ATOM     29  C   UNL     1       1.214  -0.680  -0.014  0.00  0.00    +0.027 A 
ATOM     30  C   UNL     1       0.002  -0.004   0.002  0.00  0.00    +0.044 A 
ATOM     31  F   UNL     1       3.539   2.106  -0.020  0.00  0.00    -0.205 F 
ENDBRANCH   1  30
TORSDOF 1
