REMARK  Name = ZINC47263738
REMARK  8 active torsions:
REMARK  status: ('A' for Active; 'I' for Inactive)
REMARK    1  A    between atoms: C_1  and  C_2
REMARK    2  A    between atoms: C_2  and  C_4
REMARK    3  A    between atoms: C_2  and  N_14
REMARK    4  A    between atoms: N_9  and  C_10
REMARK    5  A    between atoms: C_10  and  C_11
REMARK    6  A    between atoms: C_10  and  C_12
REMARK    7  A    between atoms: C_10  and  C_13
REMARK    8  A    between atoms: C_18  and  C_21
REMARK                            x       y       z     vdW  Elec       q    Type
REMARK                         _______ _______ _______ _____ _____    ______ ____
ROOT
ATOM      1  N   UNL     1      -0.980  -0.939   0.567  0.00  0.00    +0.388 N 
ATOM      2  C   UNL     1      -1.598  -0.339   1.755  0.00  0.00    -0.078 C 
ATOM      3  C   UNL     1      -2.679  -1.274   2.301  0.00  0.00    -0.018 C 
ATOM      4  C   UNL     1      -2.043  -2.616   2.676  0.00  0.00    +0.009 C 
ATOM      5  C   UNL     1      -1.338  -3.198   1.448  0.00  0.00    +0.059 C 
ATOM      6  C   UNL     1      -0.307  -2.191   0.934  0.00  0.00    -0.065 C 
ATOM      7  H   UNL     1      -1.694  -1.131  -0.120  0.00  0.00    -0.081 HD
ENDROOT
BRANCH   5   8
ATOM      8  C   UNL     1      -0.645  -4.481   1.826  0.00  0.00    +0.220 C 
ATOM      9  O   UNL     1       0.557  -4.583   1.694  0.00  0.00    -0.275 OA
ATOM     10  N   UNL     1      -1.360  -5.516   2.310  0.00  0.00    -0.265 N 
ATOM     11  C   UNL     1      -0.720  -6.700   2.659  0.00  0.00    +0.164 A 
ATOM     12  N   UNL     1       0.562  -6.987   2.591  0.00  0.00    -0.233 NA
ATOM     13  C   UNL     1       1.017  -8.169   2.964  0.00  0.00    +0.120 A 
ATOM     14  C   UNL     1       0.106  -9.065   3.417  0.00  0.00    +0.068 A 
ATOM     15  S   UNL     1      -1.397  -8.111   3.278  0.00  0.00    -0.061 S 
ATOM     16  H   UNL     1      -2.321  -5.434   2.416  0.00  0.00    +0.157 HD
ENDBRANCH   5   8
BRANCH   1  18
ATOM     17  C   UNL     1      -0.692   1.314  -0.348  0.00  0.00    -0.004 C 
ATOM     18  C   UNL     1       0.002  -0.004   0.002  0.00  0.00    +0.017 C 
BRANCH  18  19
ATOM     19  C   UNL     1       0.605  -0.601  -1.244  0.00  0.00    +0.207 C 
ATOM     20  O   UNL     1      -0.028  -1.398  -1.901  0.00  0.00    -0.277 OA
ATOM     21  N   UNL     1       1.848  -0.247  -1.626  0.00  0.00    -0.242 N 
ATOM     22  C   UNL     1       2.388  -0.781  -2.740  0.00  0.00    +0.306 C 
ATOM     23  O   UNL     1       1.753  -1.581  -3.400  0.00  0.00    -0.252 OA
ATOM     24  N   UNL     1       3.631  -0.427  -3.123  0.00  0.00    -0.294 N 
ATOM     25  H   UNL     1       2.355   0.391  -1.100  0.00  0.00    +0.159 HD
ATOM     26  H   UNL     1       4.137   0.211  -2.597  0.00  0.00    +0.151 HD
BRANCH  24  27
ATOM     27  C   UNL     1       4.217  -1.007  -4.334  0.00  0.00    +0.028 C 
ATOM     28  C   UNL     1       3.345  -0.657  -5.541  0.00  0.00    +0.031 C 
ATOM     29  C   UNL     1       5.624  -0.443  -4.540  0.00  0.00    +0.031 C 
ATOM     30  C   UNL     1       4.294  -2.528  -4.185  0.00  0.00    +0.031 C 
ENDBRANCH  24  27
ENDBRANCH  18  19
ENDBRANCH   1  18
TORSDOF 4
