REMARK  Name = ZINC00847858
REMARK  8 active torsions:
REMARK  status: ('A' for Active; 'I' for Inactive)
REMARK    1  A    between atoms: C_1  and  C_2
REMARK    2  A    between atoms: C_2  and  N_3
REMARK    3  A    between atoms: N_8  and  C_14
REMARK    4  A    between atoms: C_9  and  C_13
REMARK    5  A    between atoms: C_10  and  C_12
REMARK    6  A    between atoms: C_14  and  C_15
REMARK    7  A    between atoms: N_21  and  C_31
REMARK    8  A    between atoms: N_24  and  C_25
REMARK                            x       y       z     vdW  Elec       q    Type
REMARK                         _______ _______ _______ _____ _____    ______ ____
ROOT
ATOM      1  N   UNL     1       1.200   2.225   0.209  0.00  0.00    -0.301 N 
ATOM      2  C   UNL     1       0.110   1.487   0.325  0.00  0.00    +0.268 A 
ATOM      3  O   UNL     1       0.194   0.284   0.526  0.00  0.00    -0.266 OA
ATOM      4  C   UNL     1      -1.145   2.104   0.207  0.00  0.00    +0.107 A 
ATOM      5  C   UNL     1      -2.416   1.538   0.286  0.00  0.00    +0.092 C 
ATOM      6  N   UNL     1      -3.645   2.141   0.172  0.00  0.00    -0.297 N 
ATOM      7  C   UNL     1      -4.762   1.375   0.286  0.00  0.00    +0.018 C 
ATOM      8  C   UNL     1      -4.655   0.061   0.506  0.00  0.00    +0.005 C 
ATOM      9  S   UNL     1      -2.884  -0.164   0.556  0.00  0.00    -0.076 S 
ATOM     10  C   UNL     1      -5.747  -0.966   0.665  0.00  0.00    +0.053 C 
ATOM     11  C   UNL     1      -6.123   2.008   0.164  0.00  0.00    +0.062 C 
ATOM     12  S   UNL     1      -0.679   3.807  -0.068  0.00  0.00    -0.062 S 
ATOM     13  C   UNL     1       1.092   3.580  -0.018  0.00  0.00    +0.111 A 
ATOM     14  C   UNL     1       2.099   4.525  -0.169  0.00  0.00    +0.134 C 
ATOM     15  C   UNL     1       3.426   4.418   0.269  0.00  0.00    +0.269 C 
ATOM     16  O   UNL     1       3.917   3.470   0.861  0.00  0.00    -0.268 OA
ATOM     17  N   UNL     1       4.060   5.553  -0.082  0.00  0.00    -0.251 N 
ATOM     18  C   UNL     1       3.204   6.371  -0.719  0.00  0.00    +0.151 C 
ATOM     19  S   UNL     1       3.591   7.920  -1.337  0.00  0.00    -0.017 S 
ATOM     20  N   UNL     1       1.995   5.781  -0.800  0.00  0.00    -0.244 N 
ATOM     21  C   UNL     1       5.468   5.852   0.188  0.00  0.00    +0.140 C 
ENDROOT
BRANCH  20  22
ATOM     22  C   UNL     1       0.848   6.318  -1.396  0.00  0.00    +0.041 A 
ATOM     23  C   UNL     1       0.344   7.537  -0.962  0.00  0.00    +0.024 A 
ATOM     24  C   UNL     1      -0.785   8.066  -1.556  0.00  0.00    +0.002 A 
ATOM     25  C   UNL     1      -1.420   7.378  -2.574  0.00  0.00    +0.000 A 
ATOM     26  C   UNL     1      -0.923   6.162  -3.005  0.00  0.00    +0.002 A 
ATOM     27  C   UNL     1       0.208   5.629  -2.419  0.00  0.00    +0.024 A 
ENDBRANCH  20  22
BRANCH   1  29
ATOM     28  C   UNL     1       3.300   1.822  -0.977  0.00  0.00    +0.027 C 
ATOM     29  C   UNL     1       2.522   1.603   0.322  0.00  0.00    +0.122 C 
ENDBRANCH   1  29
BRANCH   6  30
ATOM     30  C   UNL     1      -3.751   3.582  -0.069  0.00  0.00    +0.108 C 
ATOM     31  C   UNL     1      -3.771   3.847  -1.576  0.00  0.00    +0.024 C 
ENDBRANCH   6  30
TORSDOF 3
