REMARK  Name = ZINC01331338
REMARK  9 active torsions:
REMARK  status: ('A' for Active; 'I' for Inactive)
REMARK    1  A    between atoms: C_1  and  O_2
REMARK    2  A    between atoms: O_2  and  C_3
REMARK    3  A    between atoms: C_6  and  C_11
REMARK    4  A    between atoms: C_7  and  O_9
REMARK    5  A    between atoms: O_9  and  C_10
REMARK    6  A    between atoms: C_11  and  C_13
REMARK    7  A    between atoms: C_11  and  N_26
REMARK    8  A    between atoms: N_17  and  C_18
REMARK    9  A    between atoms: C_18  and  C_19
REMARK                            x       y       z     vdW  Elec       q    Type
REMARK                         _______ _______ _______ _____ _____    ______ ____
ROOT
ATOM      1  C   UNL     1      -4.783  -2.531   0.211  0.00  0.00    +0.161 C 
ENDROOT
BRANCH   1   2
ATOM      2  N   UNL     1      -5.804  -1.506  -0.044  0.00  0.00    -0.286 NA
ATOM      3  C   UNL     1      -5.713  -0.417   0.938  0.00  0.00    +0.104 C 
ATOM      4  C   UNL     1      -6.667   0.712   0.532  0.00  0.00    +0.122 C 
ATOM      5  N   UNL     1      -8.012   0.146   0.354  0.00  0.00    -0.307 N 
ATOM      6  C   UNL     1      -8.162  -1.035  -0.510  0.00  0.00    +0.122 C 
ATOM      7  C   UNL     1      -7.149  -2.095  -0.064  0.00  0.00    +0.104 C 
ATOM      8  C   UNL     1      -9.106   0.708   0.981  0.00  0.00    +0.162 A 
ATOM      9  N   UNL     1      -9.154   1.754   1.773  0.00  0.00    -0.225 NA
ATOM     10  C   UNL     1     -10.307   2.197   2.322  0.00  0.00    +0.080 A 
ATOM     11  C   UNL     1     -10.496   3.301   3.184  0.00  0.00    +0.029 A 
ATOM     12  C   UNL     1     -11.743   3.616   3.656  0.00  0.00    +0.002 A 
ATOM     13  C   UNL     1     -12.860   2.870   3.308  0.00  0.00    +0.001 A 
ATOM     14  C   UNL     1     -12.711   1.782   2.466  0.00  0.00    +0.017 A 
ATOM     15  C   UNL     1     -11.466   1.460   1.989  0.00  0.00    +0.041 A 
ATOM     16  S   UNL     1     -10.819   0.200   0.915  0.00  0.00    -0.052 S 
ENDBRANCH   1   2
BRANCH   1  20
ATOM     17  C   UNL     1      -0.903  -0.736   0.122  0.00  0.00    +0.124 A 
ATOM     18  C   UNL     1      -1.478  -1.094   1.333  0.00  0.00    +0.046 A 
ATOM     19  C   UNL     1      -2.732  -1.673   1.359  0.00  0.00    +0.013 A 
ATOM     20  C   UNL     1      -3.416  -1.898   0.180  0.00  0.00    +0.019 A 
ATOM     21  C   UNL     1      -2.845  -1.542  -1.034  0.00  0.00    +0.129 A 
ATOM     22  C   UNL     1      -1.589  -0.954  -1.062  0.00  0.00    +0.091 A 
BRANCH  17  24
ATOM     23  C   UNL     1       0.980   0.030   1.356  0.00  0.00    +0.277 C 
ATOM     24  O   UNL     1       0.331  -0.166   0.098  0.00  0.00    -0.495 OA
ENDBRANCH  17  24
BRANCH  21  25
ATOM     25  O   UNL     1      -3.518  -1.763  -2.193  0.00  0.00    -0.495 OA
ATOM     26  C   UNL     1      -2.829  -1.468  -3.410  0.00  0.00    +0.277 C 
ENDBRANCH  21  25
ENDBRANCH   1  20
BRANCH   1  27
ATOM     27  C   UNL     1      -5.020  -3.149   1.565  0.00  0.00    +0.173 A 
ATOM     28  N   UNL     1      -5.259  -2.511   2.685  0.00  0.00    -0.111 NA
ATOM     29  N   UNL     1      -5.405  -3.388   3.618  0.00  0.00    -0.023 NA
ATOM     30  N   UNL     1      -5.266  -4.567   3.123  0.00  0.00    -0.044 NA
ATOM     31  N   UNL     1      -5.032  -4.463   1.858  0.00  0.00    -0.223 N 
BRANCH  31  32
ATOM     32  C   UNL     1      -4.818  -5.566   0.918  0.00  0.00    +0.182 C 
BRANCH  32  33
ATOM     33  C   UNL     1      -3.374  -5.997   0.971  0.00  0.00    -0.026 A 
ATOM     34  C   UNL     1      -2.434  -5.356   0.186  0.00  0.00    +0.008 A 
ATOM     35  C   UNL     1      -1.110  -5.750   0.234  0.00  0.00    +0.038 A 
ATOM     36  C   UNL     1      -0.726  -6.787   1.068  0.00  0.00    +0.123 A 
ATOM     37  C   UNL     1      -1.669  -7.427   1.853  0.00  0.00    +0.038 A 
ATOM     38  C   UNL     1      -2.992  -7.028   1.808  0.00  0.00    +0.008 A 
ATOM     39  F   UNL     1       0.568  -7.173   1.115  0.00  0.00    -0.205 F 
ENDBRANCH  32  33
ENDBRANCH  31  32
ENDBRANCH   1  27
TORSDOF 7
