REMARK  Name = ZINC17421391
REMARK  10 active torsions:
REMARK  status: ('A' for Active; 'I' for Inactive)
REMARK    1  A    between atoms: C_2  and  C_23
REMARK    2  A    between atoms: C_5  and  N_8
REMARK    3  A    between atoms: N_8  and  C_9
REMARK    4  A    between atoms: C_9  and  C_10
REMARK    5  A    between atoms: C_16  and  N_21
REMARK    6  A    between atoms: N_25  and  CA_26
REMARK    7  A    between atoms: CA_26  and  CB_28
REMARK    8  A    between atoms: CA_26  and  C_32
REMARK    9  A    between atoms: CB_28  and  CG_29
REMARK   10  A    between atoms: CG_29  and  CD_30
REMARK                            x       y       z     vdW  Elec       q    Type
REMARK                         _______ _______ _______ _____ _____    ______ ____
ROOT
ATOM      1  C   UNK A   0      -2.079   5.804  -2.302  0.00  0.00    +0.035 A 
ATOM      2  C   UNK A   0      -0.989   5.268  -1.610  0.00  0.00    +0.040 A 
ATOM      3  C   UNK A   0      -0.004   6.117  -1.096  0.00  0.00    +0.035 A 
ATOM      4  C   UNK A   0      -0.105   7.478  -1.282  0.00  0.00    +0.064 A 
ATOM      5  C   UNK A   0      -1.192   8.009  -1.972  0.00  0.00    +0.065 A 
ATOM      6  C   UNK A   0      -2.177   7.166  -2.480  0.00  0.00    +0.064 A 
ATOM      7 CL   UNK A   0      -3.530   7.833  -3.340  0.00  0.00    -0.082 Cl
ATOM      8 CL   UNK A   0       1.122   8.532  -0.651  0.00  0.00    -0.082 Cl
ENDROOT
BRANCH   2   9
ATOM      9  C   UNK A   0      -0.881   3.809  -1.417  0.00  0.00    +0.245 C 
ATOM     10  O   UNK A   0      -1.741   3.072  -1.860  0.00  0.00    -0.270 OA
ATOM     11  N   GLU A   1       0.170   3.293  -0.750  0.00  0.00    -0.298 N 
ATOM     12  H   GLU A   1       0.856   3.881  -0.397  0.00  0.00    +0.150 HD
BRANCH  11  13
ATOM     13  CA  GLU A   1       0.277   1.845  -0.558  0.00  0.00    +0.187 C 
BRANCH  13  14
ATOM     14  C   GLU A   1       0.925   1.224  -1.769  0.00  0.00    +0.376 C 
ATOM     15  O   GLU A   1       1.264   1.921  -2.697  0.00  0.00    -0.244 OA
ATOM     16  OXT GLU A   1       1.127  -0.102  -1.817  0.00  0.00    -0.244 OA
ENDBRANCH  13  14
BRANCH  13  17
ATOM     17  CB  GLU A   1       1.127   1.556   0.680  0.00  0.00    +0.045 C 
BRANCH  17  18
ATOM     18  CG  GLU A   1       0.408   2.077   1.926  0.00  0.00    +0.127 C 
BRANCH  18  19
ATOM     19  CD  GLU A   1       1.245   1.792   3.146  0.00  0.00    +0.356 C 
ATOM     20  OE1 GLU A   1       2.309   1.230   3.031  0.00  0.00    -0.246 OA
ATOM     21  OE2 GLU A   1       0.810   2.162   4.360  0.00  0.00    -0.246 OA
ENDBRANCH  18  19
ENDBRANCH  17  18
ENDBRANCH  13  17
ENDBRANCH  11  13
ENDBRANCH   2   9
BRANCH   5  22
ATOM     22  N   UNK A   0      -1.293   9.385  -2.154  0.00  0.00    -0.336 N 
ATOM     23  H   UNK A   0      -1.668   9.603  -3.065  0.00  0.00    +0.147 HD
BRANCH  22  24
ATOM     24  C   UNK A   0      -2.102   9.998  -1.091  0.00  0.00    +0.158 C 
BRANCH  24  25
ATOM     25  C   UNK A   0      -2.091  11.497  -1.254  0.00  0.00    +0.077 A 
ATOM     26  C   UNK A   0      -3.126  12.123  -1.947  0.00  0.00    +0.138 A 
ATOM     27  N   UNK A   0      -3.138  13.431  -2.102  0.00  0.00    -0.232 NA
ATOM     28  C   UNK A   0      -2.148  14.164  -1.587  0.00  0.00    +0.185 A 
ATOM     29  C   UNK A   0      -1.099  13.522  -0.883  0.00  0.00    +0.148 A 
ATOM     30  N   UNK A   0      -1.108  12.201  -0.735  0.00  0.00    -0.242 NA
ATOM     31  C   UNK A   0      -0.032  14.360  -0.334  0.00  0.00    +0.149 A 
ATOM     32  N   UNK A   0      -0.113  15.669  -0.530  0.00  0.00    -0.198 NA
ATOM     33  C   UNK A   0      -1.127  16.204  -1.202  0.00  0.00    +0.216 A 
ATOM     34  N   UNK A   0      -2.113  15.496  -1.716  0.00  0.00    -0.193 NA
ATOM     35  N   UNK A   0      -1.149  17.576  -1.370  0.00  0.00    -0.327 N 
ATOM     36  H   UNK A   0      -1.878  17.993  -1.855  0.00  0.00    +0.145 HD
ATOM     37  H   UNK A   0      -0.437  18.121  -1.002  0.00  0.00    +0.145 HD
BRANCH  31  38
ATOM     38  N   UNK A   0       1.021  13.807   0.362  0.00  0.00    -0.341 N 
ATOM     39  H   UNK A   0       1.720  14.378   0.718  0.00  0.00    +0.144 HD
ATOM     40  H   UNK A   0       1.064  12.848   0.495  0.00  0.00    +0.144 HD
ENDBRANCH  31  38
ENDBRANCH  24  25
ENDBRANCH  22  24
ENDBRANCH   5  22
TORSDOF 10
