REMARK  Name = ZINC09969395
REMARK  6 active torsions:
REMARK  status: ('A' for Active; 'I' for Inactive)
REMARK    1  A    between atoms: C_1  and  O_2
REMARK    2  A    between atoms: O_2  and  C_3
REMARK    3  A    between atoms: C_6  and  N_9
REMARK    4  A    between atoms: N_12  and  C_15
REMARK    5  A    between atoms: C_23  and  S_24
REMARK    6  A    between atoms: S_24  and  C_27
REMARK                            x       y       z     vdW  Elec       q    Type
REMARK                         _______ _______ _______ _____ _____    ______ ____
ROOT
ATOM      1  C   UNL     1      -2.445   3.853   0.044  0.00  0.00    +0.066 A 
ATOM      2  C   UNL     1      -1.228   3.136  -0.046  0.00  0.00    +0.021 A 
ATOM      3  C   UNL     1      -1.210   1.738  -0.136  0.00  0.00    +0.012 A 
ATOM      4  C   UNL     1      -0.018   1.083  -0.217  0.00  0.00    +0.001 A 
ATOM      5  C   UNL     1       1.184   1.787  -0.221  0.00  0.00    +0.002 A 
ATOM      6  C   UNL     1       1.201   3.146  -0.140  0.00  0.00    +0.026 A 
ATOM      7  C   UNL     1      -0.009   3.855  -0.051  0.00  0.00    +0.048 A 
ATOM      8  C   UNL     1      -1.143   5.867   0.114  0.00  0.00    +0.112 A 
ATOM      9  C   UNL     1      -2.380   5.235   0.124  0.00  0.00    +0.131 A 
ATOM     10  N   UNL     1       0.048   5.231   0.029  0.00  0.00    -0.359 N 
ATOM     11  H   UNL     1       0.939   5.740   0.025  0.00  0.00    +0.165 HD
ENDROOT
BRANCH   1  15
ATOM     12  N   UNL     1      -5.365   0.911  -0.009  0.00  0.00    -0.327 N 
ATOM     13  C   UNL     1      -5.250   1.792  -1.179  0.00  0.00    +0.124 C 
ATOM     14  C   UNL     1      -3.863   2.439  -1.193  0.00  0.00    +0.124 C 
ATOM     15  N   UNL     1      -3.665   3.194   0.052  0.00  0.00    -0.325 N 
ATOM     16  C   UNL     1      -3.780   2.313   1.222  0.00  0.00    +0.124 C 
ATOM     17  C   UNL     1      -5.167   1.666   1.237  0.00  0.00    +0.124 C 
BRANCH  12  21
ATOM     18  C   UNL     1      -9.032  -1.071   0.015  0.00  0.00    +0.120 A 
ATOM     19  C   UNL     1      -8.117  -1.294   1.033  0.00  0.00    +0.047 A 
ATOM     20  C   UNL     1      -6.902  -0.638   1.026  0.00  0.00    +0.027 A 
ATOM     21  C   UNL     1      -6.596   0.246  -0.001  0.00  0.00    +0.030 A 
ATOM     22  C   UNL     1      -7.515   0.472  -1.017  0.00  0.00    +0.027 A 
ATOM     23  C   UNL     1      -8.727  -0.190  -1.012  0.00  0.00    +0.047 A 
BRANCH  18  25
ATOM     24  C   UNL     1     -11.122  -1.441  -1.057  0.00  0.00    +0.277 C 
ATOM     25  O   UNL     1     -10.228  -1.718   0.022  0.00  0.00    -0.495 OA
ENDBRANCH  18  25
ENDBRANCH  12  21
ENDBRANCH   1  15
BRANCH   9  26
ATOM     26  S   UNL     1      -3.858   6.187   0.238  0.00  0.00    +0.028 S 
ATOM     27  O   UNL     1      -4.645   5.593   1.262  0.00  0.00    -0.164 OA
ATOM     28  O   UNL     1      -3.461   7.551   0.277  0.00  0.00    -0.164 OA
BRANCH  26  29
ATOM     29  C   UNL     1      -4.740   5.961  -1.270  0.00  0.00    +0.094 A 
ATOM     30  C   UNL     1      -4.521   6.817  -2.334  0.00  0.00    +0.029 A 
ATOM     31  C   UNL     1      -5.209   6.638  -3.519  0.00  0.00    +0.022 A 
ATOM     32  C   UNL     1      -6.125   5.607  -3.638  0.00  0.00    +0.041 A 
ATOM     33  C   UNL     1      -6.348   4.754  -2.572  0.00  0.00    +0.022 A 
ATOM     34  C   UNL     1      -5.655   4.932  -1.389  0.00  0.00    +0.029 A 
ATOM     35 CL   UNL     1      -6.993   5.385  -5.124  0.00  0.00    -0.084 Cl
ENDBRANCH  26  29
ENDBRANCH   9  26
TORSDOF 5
