REMARK  Name = ZINC34735161
REMARK  9 active torsions:
REMARK  status: ('A' for Active; 'I' for Inactive)
REMARK    1  A    between atoms: C_1  and  C_2
REMARK    2  A    between atoms: C_5  and  N_8
REMARK    3  A    between atoms: C_9  and  C_11
REMARK    4  A    between atoms: C_11  and  N_12
REMARK    5  A    between atoms: C_27  and  C_29
REMARK    6  A    between atoms: C_27  and  C_30
REMARK    7  A    between atoms: N_33  and  C_34
REMARK    8  A    between atoms: C_34  and  C_35
REMARK    9  A    between atoms: C_35  and  C_37
REMARK                            x       y       z     vdW  Elec       q    Type
REMARK                         _______ _______ _______ _____ _____    ______ ____
ROOT
ATOM      1  N   UNL     1      -0.692  -6.298   2.559  0.00  0.00    +0.387 N 
ATOM      2  C   UNL     1      -0.674  -6.226   4.025  0.00  0.00    -0.059 C 
ATOM      3  C   UNL     1      -0.191  -7.564   4.595  0.00  0.00    +0.089 C 
ATOM      4  N   UNL     1      -1.039  -8.636   4.050  0.00  0.00    -0.304 N 
ATOM      5  C   UNL     1      -1.245  -8.684   2.594  0.00  0.00    +0.089 C 
ATOM      6  C   UNL     1      -1.678  -7.293   2.119  0.00  0.00    -0.059 C 
ATOM      7  C   UNL     1      -1.620  -9.565   4.877  0.00  0.00    +0.202 A 
ATOM      8  N   UNL     1      -2.744  -9.270   5.497  0.00  0.00    -0.208 NA
ATOM      9  C   UNL     1      -3.328 -10.149   6.303  0.00  0.00    +0.118 A 
ATOM     10  C   UNL     1      -2.786 -11.426   6.534  0.00  0.00    +0.076 A 
ATOM     11  C   UNL     1      -3.542 -12.281   7.446  0.00  0.00    -0.018 A 
ATOM     12  C   UNL     1      -4.676 -11.769   7.972  0.00  0.00    +0.021 A 
ATOM     13  S   UNL     1      -4.801 -10.139   7.294  0.00  0.00    -0.071 S 
ATOM     14  C   UNL     1      -5.603 -12.461   8.922  0.00  0.00    +0.203 C 
ATOM     15  O   UNL     1      -5.264 -13.857   8.932  0.00  0.00    -0.368 OA
ATOM     16  C   UNL     1      -3.864 -14.103   9.090  0.00  0.00    +0.068 C 
ATOM     17  C   UNL     1      -3.111 -13.697   7.819  0.00  0.00    +0.071 C 
ATOM     18  C   UNL     1      -3.336 -13.289  10.273  0.00  0.00    +0.041 C 
ATOM     19  C   UNL     1      -3.637 -15.591   9.361  0.00  0.00    +0.041 C 
ATOM     20  C   UNL     1      -1.566 -11.718   5.845  0.00  0.00    +0.264 A 
ATOM     21  O   UNL     1      -1.022 -12.800   5.983  0.00  0.00    -0.267 OA
ATOM     22  N   UNL     1      -1.029 -10.783   5.039  0.00  0.00    -0.276 N 
ATOM     23  H   UNL     1       0.223  -6.563   2.226  0.00  0.00    -0.081 HD
ENDROOT
BRANCH   1  24
ATOM     24  C   UNL     1      -1.049  -4.982   2.010  0.00  0.00    +0.019 C 
BRANCH  24  26
ATOM     25  N   UNL     1      -0.088  -2.704   1.956  0.00  0.00    -0.287 N 
ATOM     26  C   UNL     1       0.026  -3.985   2.358  0.00  0.00    +0.201 C 
ATOM     27  O   UNL     1       0.994  -4.335   2.999  0.00  0.00    -0.278 OA
ATOM     28  H   UNL     1      -0.893  -2.407   1.503  0.00  0.00    +0.155 HD
BRANCH  25  33
ATOM     29  C   UNL     1       4.139   0.957   2.911  0.00  0.00    +0.044 C 
ATOM     30  C   UNL     1       3.016  -0.015   2.657  0.00  0.00    -0.050 A 
ATOM     31  C   UNL     1       3.290  -1.362   2.510  0.00  0.00    +0.005 A 
ATOM     32  C   UNL     1       2.263  -2.256   2.277  0.00  0.00    +0.023 A 
ATOM     33  C   UNL     1       0.954  -1.801   2.192  0.00  0.00    +0.033 A 
ATOM     34  C   UNL     1       0.682  -0.447   2.341  0.00  0.00    +0.023 A 
ATOM     35  C   UNL     1       1.713   0.441   2.578  0.00  0.00    +0.005 A 
ENDBRANCH  25  33
ENDBRANCH  24  26
ENDBRANCH   1  24
BRANCH  22  36
ATOM     36  C   UNL     1       0.217 -11.078   4.328  0.00  0.00    +0.158 C 
BRANCH  36  37
ATOM     37  C   UNL     1       1.389 -10.823   5.240  0.00  0.00    -0.060 C 
ATOM     38  C   UNL     1       1.928 -11.813   5.906  0.00  0.00    +0.009 C 
ATOM     39  C   UNL     1       1.941  -9.428   5.385  0.00  0.00    +0.040 C 
ENDBRANCH  36  37
ENDBRANCH  22  36
TORSDOF 5
