REMARK  Name = ZINC14357891
REMARK  7 active torsions:
REMARK  status: ('A' for Active; 'I' for Inactive)
REMARK    1  A    between atoms: C_7  and  C_30
REMARK    2  A    between atoms: C_10  and  S_11
REMARK    3  A    between atoms: S_11  and  C_12
REMARK    4  A    between atoms: C_12  and  C_13
REMARK    5  A    between atoms: N_15  and  C_16
REMARK    6  A    between atoms: C_19  and  S_22
REMARK    7  A    between atoms: S_22  and  N_25
REMARK                            x       y       z     vdW  Elec       q    Type
REMARK                         _______ _______ _______ _____ _____    ______ ____
ROOT
ATOM      1  C   UNL     1       4.701   4.734   0.281  0.00  0.00    +0.172 C 
ENDROOT
BRANCH   1   2
ATOM      2  C   UNL     1       6.188   4.495   0.342  0.00  0.00    +0.227 C 
ATOM      3  O   UNL     1       6.630   3.378   0.175  0.00  0.00    -0.275 OA
ATOM      4  N   UNL     1       7.027   5.523   0.581  0.00  0.00    -0.285 N 
ATOM      5  H   UNL     1       6.670   6.401   0.790  0.00  0.00    +0.155 HD
BRANCH   4   6
ATOM      6  C   UNL     1       8.411   5.324   0.528  0.00  0.00    +0.034 A 
ATOM      7  C   UNL     1       9.250   6.046   1.366  0.00  0.00    +0.025 A 
ATOM      8  C   UNL     1      10.615   5.843   1.315  0.00  0.00    +0.030 A 
ATOM      9  C   UNL     1      11.147   4.930   0.423  0.00  0.00    +0.106 A 
ATOM     10  C   UNL     1      10.314   4.214  -0.418  0.00  0.00    +0.030 A 
ATOM     11  C   UNL     1       8.948   4.408  -0.367  0.00  0.00    +0.025 A 
BRANCH   9  12
ATOM     12  S   UNL     1      12.890   4.678   0.356  0.00  0.00    +0.061 S 
ATOM     13  O   UNL     1      13.405   5.070   1.621  0.00  0.00    -0.153 OA
ATOM     14  O   UNL     1      13.092   3.378  -0.180  0.00  0.00    -0.153 OA
BRANCH  12  15
ATOM     15  N   UNL     1      13.496   5.747  -0.754  0.00  0.00    -0.177 NA
ATOM     16  C   UNL     1      13.666   5.486  -2.191  0.00  0.00    +0.109 C 
ATOM     17  C   UNL     1      14.284   6.754  -2.817  0.00  0.00    +0.018 C 
ATOM     18  C   UNL     1      14.959   7.445  -1.603  0.00  0.00    +0.018 C 
ATOM     19  C   UNL     1      13.962   7.116  -0.464  0.00  0.00    +0.109 C 
ENDBRANCH  12  15
ENDBRANCH   9  12
ENDBRANCH   4   6
ENDBRANCH   1   2
BRANCH   1  20
ATOM     20  S   UNL     1       3.852   3.171  -0.054  0.00  0.00    -0.094 S 
BRANCH  20  30
ATOM     21  C   UNL     1      -1.034   1.142  -0.754  0.00  0.00    +0.001 A 
ATOM     22  C   UNL     1       0.264   0.638  -0.748  0.00  0.00    +0.001 A 
ATOM     23  C   UNL     1       1.335   1.455  -0.530  0.00  0.00    +0.011 A 
ATOM     24  C   UNL     1       1.123   2.819  -0.304  0.00  0.00    +0.018 A 
ATOM     25  C   UNL     1      -0.199   3.331  -0.305  0.00  0.00    +0.012 A 
ATOM     26  C   UNL     1      -1.274   2.467  -0.531  0.00  0.00    +0.011 A 
ATOM     27  C   UNL     1      -0.368   4.719  -0.071  0.00  0.00    +0.101 A 
ATOM     28  N   UNL     1       0.702   5.467   0.135  0.00  0.00    -0.148 NA
ATOM     29  N   UNL     1       1.896   5.003   0.135  0.00  0.00    -0.142 NA
ATOM     30  C   UNL     1       2.181   3.728  -0.071  0.00  0.00    +0.127 A 
BRANCH  27  31
ATOM     31  C   UNL     1      -1.721   5.320  -0.059  0.00  0.00    +0.003 A 
ATOM     32  C   UNL     1      -1.956   6.528  -0.716  0.00  0.00    +0.013 A 
ATOM     33  C   UNL     1      -3.219   7.082  -0.706  0.00  0.00    +0.039 A 
ATOM     34  C   UNL     1      -4.252   6.446  -0.035  0.00  0.00    +0.123 A 
ATOM     35  C   UNL     1      -4.022   5.248   0.624  0.00  0.00    +0.039 A 
ATOM     36  C   UNL     1      -2.764   4.684   0.616  0.00  0.00    +0.013 A 
ATOM     37  F   UNL     1      -5.486   6.995  -0.023  0.00  0.00    -0.205 F 
ENDBRANCH  27  31
ENDBRANCH  20  30
ENDBRANCH   1  20
TORSDOF 7
