REMARK  Name = ZINC36330572
REMARK  1 active torsions:
REMARK  status: ('A' for Active; 'I' for Inactive)
REMARK    1  A    between atoms: C_3  and  C_11
REMARK                            x       y       z     vdW  Elec       q    Type
REMARK                         _______ _______ _______ _____ _____    ______ ____
ROOT
ATOM      1  C   UNL     1       3.651   2.174  -0.022  0.00  0.00    +0.253 C 
ATOM      2  O   UNL     1       4.714   1.583  -0.038  0.00  0.00    -0.270 OA
ATOM      3  N   UNL     1       3.630   3.522  -0.016  0.00  0.00    -0.266 N 
ATOM      4  C   UNL     1       4.821   4.237   0.080  0.00  0.00    +0.126 A 
ATOM      5  C   UNL     1       4.786   5.622   0.193  0.00  0.00    +0.044 A 
ATOM      6  C   UNL     1       5.977   6.321   0.287  0.00  0.00    +0.006 A 
ATOM      7  C   UNL     1       7.167   5.607   0.267  0.00  0.00    +0.035 A 
ATOM      8  C   UNL     1       7.128   4.230   0.153  0.00  0.00    +0.108 A 
ATOM      9  N   UNL     1       5.977   3.590   0.070  0.00  0.00    -0.225 NA
ATOM     10 BR   UNL     1       8.745   3.250   0.123  0.00  0.00    -0.029 Br
ATOM     11  H   UNL     1       2.785   3.993  -0.079  0.00  0.00    +0.157 HD
ENDROOT
BRANCH   1  14
ATOM     12  C   UNL     1      -0.017   1.381   0.015  0.00  0.00    +0.005 A 
ATOM     13  C   UNL     1       1.163   2.092   0.006  0.00  0.00    +0.017 A 
ATOM     14  C   UNL     1       2.386   1.416  -0.011  0.00  0.00    +0.082 A 
ATOM     15  C   UNL     1       2.404   0.015  -0.018  0.00  0.00    +0.174 A 
ATOM     16  C   UNL     1       1.207  -0.690  -0.006  0.00  0.00    +0.163 A 
ATOM     17  C   UNL     1       0.002  -0.004   0.009  0.00  0.00    +0.049 A 
ATOM     18  O   UNL     1       1.200  -2.051  -0.005  0.00  0.00    -0.485 OA
ATOM     19  C   UNL     1       2.415  -2.700  -0.396  0.00  0.00    +0.270 C 
ATOM     20  C   UNL     1       3.580  -2.019   0.334  0.00  0.00    +0.270 C 
ATOM     21  O   UNL     1       3.596  -0.637  -0.039  0.00  0.00    -0.484 OA
ENDBRANCH   1  14
TORSDOF 1
