REMARK  Name = ZINC09445844
REMARK  6 active torsions:
REMARK  status: ('A' for Active; 'I' for Inactive)
REMARK    1  A    between atoms: C_1  and  C_2
REMARK    2  A    between atoms: N_8  and  S_9
REMARK    3  A    between atoms: S_9  and  C_12
REMARK    4  A    between atoms: C_15  and  C_18
REMARK    5  A    between atoms: C_18  and  N_20
REMARK    6  A    between atoms: N_22  and  C_31
REMARK                            x       y       z     vdW  Elec       q    Type
REMARK                         _______ _______ _______ _____ _____    ______ ____
ROOT
ATOM      1  C   UNL     1       0.072   0.172   3.571  0.00  0.00    +0.106 A 
ATOM      2  C   UNL     1      -0.868   1.186   3.566  0.00  0.00    +0.029 A 
ATOM      3  C   UNL     1      -1.716   1.350   4.642  0.00  0.00    +0.015 A 
ATOM      4  C   UNL     1      -1.623   0.490   5.737  0.00  0.00    +0.039 A 
ATOM      5  C   UNL     1      -0.673  -0.530   5.736  0.00  0.00    +0.015 A 
ATOM      6  C   UNL     1       0.165  -0.688   4.652  0.00  0.00    +0.029 A 
ENDROOT
BRANCH   1   7
ATOM      7  S   UNL     1       1.152  -0.031   2.193  0.00  0.00    +0.061 S 
ATOM      8  O   UNL     1       2.301  -0.715   2.675  0.00  0.00    -0.153 OA
ATOM      9  O   UNL     1       1.232   1.234   1.551  0.00  0.00    -0.153 OA
BRANCH   7  16
ATOM     10  C   UNL     1      -0.625   0.982   0.237  0.00  0.00    +0.026 C 
ATOM     11  C   UNL     1      -0.586  -0.546   0.169  0.00  0.00    +0.077 C 
ATOM     12  C   UNL     1      -0.179  -0.987  -1.240  0.00  0.00    +0.020 C 
ATOM     13  C   UNL     1      -0.007  -2.508  -1.264  0.00  0.00    +0.003 C 
ATOM     14  C   UNL     1       1.105  -2.912  -0.292  0.00  0.00    +0.017 C 
ATOM     15  C   UNL     1       0.713  -2.492   1.128  0.00  0.00    +0.110 C 
ATOM     16  N   UNL     1       0.401  -1.056   1.131  0.00  0.00    -0.174 NA
ENDBRANCH   7  16
ENDBRANCH   1   7
BRANCH   4  17
ATOM     17  C   UNL     1      -2.530   0.661   6.896  0.00  0.00    +0.269 C 
ATOM     18  O   UNL     1      -3.360   1.554   6.894  0.00  0.00    -0.268 OA
BRANCH  17  19
ATOM     19  N   UNL     1      -2.439  -0.164   7.943  0.00  0.00    -0.152 NA
ATOM     20  C   UNL     1      -1.631   0.133   8.955  0.00  0.00    +0.166 A 
ATOM     21  N   UNL     1      -0.830   1.222   9.089  0.00  0.00    -0.324 N 
ATOM     22  C   UNL     1      -0.050   1.365  10.222  0.00  0.00    +0.057 A 
ATOM     23  C   UNL     1       0.837   2.397  10.560  0.00  0.00    +0.030 A 
ATOM     24  C   UNL     1       1.533   2.362  11.746  0.00  0.00    +0.040 A 
ATOM     25  C   UNL     1       1.379   1.311  12.638  0.00  0.00    +0.125 A 
ATOM     26  C   UNL     1       0.508   0.279  12.326  0.00  0.00    +0.055 A 
ATOM     27  C   UNL     1      -0.187   0.315  11.140  0.00  0.00    +0.042 A 
ATOM     28  S   UNL     1      -1.372  -0.750  10.361  0.00  0.00    -0.052 S 
ATOM     29  F   UNL     1       2.071   1.293  13.798  0.00  0.00    -0.205 F 
ATOM     30  C   UNL     1      -0.793   2.241   8.037  0.00  0.00    +0.151 C 
ENDBRANCH  17  19
ENDBRANCH   4  17
TORSDOF 4
