REMARK  Name = ZINC03669205
REMARK  6 active torsions:
REMARK  status: ('A' for Active; 'I' for Inactive)
REMARK    1  A    between atoms: C_1  and  C_2
REMARK    2  A    between atoms: C_2  and  C_29
REMARK    3  A    between atoms: C_6  and  C_21
REMARK    4  A    between atoms: C_8  and  C_19
REMARK    5  A    between atoms: C_9  and  N_18
REMARK    6  A    between atoms: N_10  and  C_11
REMARK                            x       y       z     vdW  Elec       q    Type
REMARK                         _______ _______ _______ _____ _____    ______ ____
ROOT
ATOM      1  C   UNL     1       1.024   4.485  -1.798  0.00  0.00    +0.011 C 
ATOM      2  C   UNL     1       1.985   3.861  -2.812  0.00  0.00    -0.023 C 
ATOM      3  C   UNL     1       3.410   3.888  -2.255  0.00  0.00    +0.058 C 
ATOM      4  C   UNL     1       3.474   3.073  -0.986  0.00  0.00    +0.025 C 
ATOM      5  C   UNL     1       2.665   2.009  -0.802  0.00  0.00    +0.026 C 
ATOM      6  C   UNL     1       2.732   1.193   0.464  0.00  0.00    +0.104 C 
ATOM      7  C   UNL     1       4.016   1.440   1.200  0.00  0.00    +0.077 C 
ATOM      8  C   UNL     1       4.776   2.535   0.938  0.00  0.00    +0.107 C 
ATOM      9  N   UNL     1       4.378   3.437  -0.023  0.00  0.00    -0.260 N 
ATOM     10  C   UNL     1       1.733   1.628  -1.784  0.00  0.00    +0.162 C 
ATOM     11  O   UNL     1       1.030   0.655  -1.594  0.00  0.00    -0.292 OA
ATOM     12  C   UNL     1       1.591   2.402  -3.066  0.00  0.00    +0.086 C 
ATOM     13  C   UNL     1       1.931   4.648  -4.123  0.00  0.00    +0.011 C 
ENDROOT
BRANCH   9  14
ATOM     14  C   UNL     1       4.902   4.735  -0.017  0.00  0.00    +0.041 A 
ATOM     15  C   UNL     1       4.259   5.741   0.694  0.00  0.00    +0.024 A 
ATOM     16  C   UNL     1       4.778   7.021   0.700  0.00  0.00    +0.003 A 
ATOM     17  C   UNL     1       5.936   7.302  -0.002  0.00  0.00    +0.020 A 
ATOM     18  C   UNL     1       6.579   6.303  -0.711  0.00  0.00    +0.043 A 
ATOM     19  C   UNL     1       6.067   5.019  -0.716  0.00  0.00    +0.043 A 
ATOM     20 CL   UNL     1       8.032   6.661  -1.590  0.00  0.00    -0.083 Cl
ENDBRANCH   9  14
BRANCH   6  21
ATOM     21  C   UNL     1       1.574   1.564   1.353  0.00  0.00    +0.002 A 
ATOM     22  C   UNL     1       0.567   0.782   1.814  0.00  0.00    +0.012 A 
ATOM     23  C   UNL     1      -0.403   1.345   2.622  0.00  0.00    +0.008 A 
ATOM     24  C   UNL     1      -0.312   2.660   2.939  0.00  0.00    +0.045 A 
ATOM     25  S   UNL     1       1.171   3.147   2.073  0.00  0.00    -0.101 S 
ENDBRANCH   6  21
BRANCH   8  26
ATOM     26  N   UNL     1       5.943   2.743   1.634  0.00  0.00    -0.345 N 
ATOM     27  H   UNL     1       6.179   2.158   2.370  0.00  0.00    +0.144 HD
ATOM     28  H   UNL     1       6.530   3.475   1.388  0.00  0.00    +0.144 HD
ENDBRANCH   8  26
BRANCH   7  29
ATOM     29  C   UNL     1       4.447   0.506   2.197  0.00  0.00    +0.099 C 
ATOM     30  N   UNL     1       4.790  -0.234   2.987  0.00  0.00    -0.191 NA
ENDBRANCH   7  29
TORSDOF 4
