REMARK  Name = ZINC13638624
REMARK  3 active torsions:
REMARK  status: ('A' for Active; 'I' for Inactive)
REMARK    1  A    between atoms: C_6  and  C_7
REMARK    2  A    between atoms: C_17  and  N_24
REMARK    3  A    between atoms: C_20  and  O_23
REMARK                            x       y       z     vdW  Elec       q    Type
REMARK                         _______ _______ _______ _____ _____    ______ ____
ROOT
ATOM      1  C   UNL     1      -0.534  -0.646   0.195  0.00  0.00    +0.105 C 
ATOM      2  C   UNL     1      -0.979  -0.895  -1.235  0.00  0.00    +0.029 C 
ATOM      3  C   UNL     1      -0.829   0.266  -2.227  0.00  0.00    +0.033 C 
ATOM      4  C   UNL     1      -0.624  -0.481  -3.547  0.00  0.00    -0.030 C 
ATOM      5  C   UNL     1      -0.109  -1.682  -3.313  0.00  0.00    -0.023 C 
ATOM      6  C   UNL     1       0.089  -1.855  -1.841  0.00  0.00    +0.051 C 
ATOM      7  C   UNL     1      -0.037  -3.162  -1.160  0.00  0.00    +0.014 A 
ATOM      8  C   UNL     1       0.172  -4.359  -1.812  0.00  0.00    +0.132 A 
ATOM      9  C   UNL     1       0.056  -5.556  -1.130  0.00  0.00    +0.037 A 
ATOM     10  C   UNL     1      -0.271  -5.558   0.214  0.00  0.00    +0.049 A 
ATOM     11  C   UNL     1      -0.488  -4.363   0.876  0.00  0.00    +0.138 A 
ATOM     12  C   UNL     1      -0.380  -3.152   0.195  0.00  0.00    +0.076 A 
ATOM     13  N   UNL     1      -0.639  -1.953   0.881  0.00  0.00    -0.334 N 
ATOM     14  H   UNL     1      -0.892  -1.981   1.817  0.00  0.00    +0.147 HD
ENDROOT
BRANCH   1  20
ATOM     15  C   UNL     1       1.162   1.193   0.114  0.00  0.00    +0.006 A 
ATOM     16  C   UNL     1       2.470   1.640   0.137  0.00  0.00    +0.015 A 
ATOM     17  C   UNL     1       3.508   0.735   0.264  0.00  0.00    +0.018 A 
ATOM     18  C   UNL     1       3.237  -0.617   0.369  0.00  0.00    +0.015 A 
ATOM     19  C   UNL     1       1.929  -1.064   0.346  0.00  0.00    +0.006 A 
ATOM     20  C   UNL     1       0.892  -0.159   0.219  0.00  0.00    -0.027 A 
ATOM     21 BR   UNL     1       5.297   1.347   0.294  0.00  0.00    -0.050 Br
ENDBRANCH   1  20
BRANCH   8  22
ATOM     22  N   UNL     1       0.522  -4.363  -3.250  0.00  0.00    +0.057 N 
ATOM     23  O   UNL     1      -0.120  -5.031  -4.027  0.00  0.00    -0.126 OA
ATOM     24  O   UNL     1       1.450  -3.697  -3.648  0.00  0.00    -0.126 OA
ENDBRANCH   8  22
BRANCH  11  25
ATOM     25  O   UNL     1      -0.807  -4.370   2.199  0.00  0.00    -0.505 OA
ATOM     26  H   UNL     1      -0.042  -4.332   2.788  0.00  0.00    +0.292 HD
ENDBRANCH  11  25
TORSDOF 3
