REMARK  Name = ZINC22930113
REMARK  4 active torsions:
REMARK  status: ('A' for Active; 'I' for Inactive)
REMARK    1  A    between atoms: C_8  and  C_10
REMARK    2  A    between atoms: C_17  and  C_19
REMARK    3  A    between atoms: C_19  and  N_20
REMARK    4  A    between atoms: N_23  and  C_26
REMARK                            x       y       z     vdW  Elec       q    Type
REMARK                         _______ _______ _______ _____ _____    ______ ____
ROOT
ATOM      1  C   UNL     1       5.414   6.368   1.478  0.00  0.00    +0.062 C 
ATOM      2  C   UNL     1       6.813   5.760   1.605  0.00  0.00    +0.013 C 
ATOM      3  C   UNL     1       6.699   4.303   2.056  0.00  0.00    +0.020 C 
ATOM      4  C   UNL     1       5.919   3.506   1.005  0.00  0.00    +0.108 C 
ATOM      5  N   UNL     1       4.629   4.168   0.771  0.00  0.00    -0.302 N 
ATOM      6  C   UNL     1       4.620   5.593   0.415  0.00  0.00    +0.118 C 
ATOM      7  C   UNL     1       3.475   3.480   0.876  0.00  0.00    +0.199 C 
ATOM      8  O   UNL     1       2.416   4.037   0.681  0.00  0.00    -0.278 OA
ENDROOT
BRANCH   1  16
ATOM      9  C   UNL     1       6.599  11.665  -1.458  0.00  0.00    +0.002 A 
ATOM     10  C   UNL     1       6.006  12.430  -0.463  0.00  0.00    +0.001 A 
ATOM     11  C   UNL     1       5.459  11.803   0.640  0.00  0.00    +0.017 A 
ATOM     12  C   UNL     1       5.512  10.434   0.732  0.00  0.00    +0.039 A 
ATOM     13  C   UNL     1       6.109   9.629  -0.266  0.00  0.00    +0.078 A 
ATOM     14  C   UNL     1       6.656  10.309  -1.377  0.00  0.00    +0.029 A 
ATOM     15  N   UNL     1       6.077   8.305  -0.010  0.00  0.00    -0.244 NA
ATOM     16  C   UNL     1       5.528   7.812   1.065  0.00  0.00    +0.084 A 
ATOM     17  S   UNL     1       4.968   9.222   1.910  0.00  0.00    -0.072 S 
ENDBRANCH   1  16
BRANCH   7  18
ATOM     18  C   UNL     1       3.501   2.017   1.237  0.00  0.00    +0.019 C 
BRANCH  18  19
ATOM     19  N   UNL     1       2.126   1.536   1.431  0.00  0.00    +0.387 N 
ATOM     20  C   UNL     1       2.092   0.071   1.545  0.00  0.00    -0.063 C 
ATOM     21  C   UNL     1       0.639  -0.395   1.665  0.00  0.00    +0.066 C 
ATOM     22  N   UNL     1       0.020   0.237   2.839  0.00  0.00    -0.301 NA
ATOM     23  C   UNL     1       0.055   1.702   2.725  0.00  0.00    +0.066 C 
ATOM     24  C   UNL     1       1.508   2.167   2.604  0.00  0.00    -0.063 C 
ATOM     25  H   UNL     1       1.541   1.821   0.544  0.00  0.00    -0.081 HD
BRANCH  22  26
ATOM     26  C   UNL     1      -1.354  -0.244   3.033  0.00  0.00    +0.079 C 
ATOM     27  C   UNL     1      -1.336  -1.765   3.255  0.00  0.00    +0.043 C 
ATOM     28  C   UNL     1      -2.741  -2.197   3.763  0.00  0.00    +0.167 C 
ATOM     29  S   UNL     1      -3.115  -0.821   4.929  0.00  0.00    -0.029 S 
ATOM     30  O   UNL     1      -2.686  -1.189   6.232  0.00  0.00    -0.174 OA
ATOM     31  O   UNL     1      -4.457  -0.396   4.728  0.00  0.00    -0.174 OA
ATOM     32  C   UNL     1      -1.976   0.461   4.263  0.00  0.00    +0.184 C 
ENDBRANCH  22  26
ENDBRANCH  18  19
ENDBRANCH   7  18
TORSDOF 4
