REMARK  Name = ZINC21884571
REMARK  4 active torsions:
REMARK  status: ('A' for Active; 'I' for Inactive)
REMARK    1  A    between atoms: C_1  and  C_2
REMARK    2  A    between atoms: C_5  and  C_8
REMARK    3  A    between atoms: C_14  and  N_18
REMARK    4  A    between atoms: C_24  and  C_26
REMARK                            x       y       z     vdW  Elec       q    Type
REMARK                         _______ _______ _______ _____ _____    ______ ____
ROOT
ATOM      1  C   UNL     1       1.250   2.178  -5.827  0.00  0.00    +0.132 A 
ATOM      2  N   UNL     1       0.162   2.627  -5.261  0.00  0.00    -0.154 NA
ATOM      3  N   UNL     1       0.181   3.747  -4.435  0.00  0.00    -0.171 N 
ATOM      4  C   UNL     1      -0.880   4.309  -3.786  0.00  0.00    +0.277 A 
ATOM      5  O   UNL     1      -1.994   3.818  -3.898  0.00  0.00    -0.266 OA
ATOM      6  C   UNL     1      -0.697   5.438  -2.998  0.00  0.00    +0.115 A 
ATOM      7  C   UNL     1       0.572   5.992  -2.875  0.00  0.00    +0.129 A 
ATOM      8  N   UNL     1       1.589   5.415  -3.525  0.00  0.00    -0.206 NA
ATOM      9  C   UNL     1       1.397   4.352  -4.263  0.00  0.00    +0.201 A 
ATOM     10  S   UNL     1       2.478   3.338  -5.249  0.00  0.00    -0.028 S 
ENDROOT
BRANCH   7  11
ATOM     11  N   UNL     1       0.779   7.116  -2.097  0.00  0.00    -0.312 N 
ATOM     12  C   UNL     1      -0.007   8.253  -2.594  0.00  0.00    +0.125 C 
ATOM     13  C   UNL     1       0.107   9.420  -1.607  0.00  0.00    +0.127 C 
ATOM     14  N   UNL     1       1.533   9.701  -1.380  0.00  0.00    -0.295 N 
ATOM     15  C   UNL     1       2.413   8.582  -1.012  0.00  0.00    +0.127 C 
ATOM     16  C   UNL     1       2.208   7.449  -2.022  0.00  0.00    +0.125 C 
ATOM     17  C   UNL     1       2.019  10.952  -1.506  0.00  0.00    +0.247 C 
ATOM     18  O   UNL     1       1.299  11.848  -1.902  0.00  0.00    -0.270 OA
BRANCH  17  19
ATOM     19  C   UNL     1       3.429  11.235  -1.162  0.00  0.00    +0.037 A 
ATOM     20  C   UNL     1       4.052  10.533  -0.129  0.00  0.00    +0.014 A 
ATOM     21  C   UNL     1       5.369  10.796   0.184  0.00  0.00    +0.021 A 
ATOM     22  C   UNL     1       6.069  11.764  -0.517  0.00  0.00    +0.041 A 
ATOM     23  C   UNL     1       5.454  12.469  -1.539  0.00  0.00    +0.021 A 
ATOM     24  C   UNL     1       4.139  12.209  -1.865  0.00  0.00    +0.014 A 
ATOM     25 CL   UNL     1       7.725  12.095  -0.114  0.00  0.00    -0.084 Cl
ENDBRANCH  17  19
ENDBRANCH   7  11
BRANCH   1  30
ATOM     26  C   UNL     1       1.913  -2.358  -9.307  0.00  0.00    +0.044 C 
ATOM     27  C   UNL     1       1.740  -1.171  -8.396  0.00  0.00    -0.050 A 
ATOM     28  C   UNL     1       2.833  -0.390  -8.066  0.00  0.00    +0.004 A 
ATOM     29  C   UNL     1       2.681   0.699  -7.232  0.00  0.00    +0.011 A 
ATOM     30  C   UNL     1       1.421   1.011  -6.721  0.00  0.00    +0.009 A 
ATOM     31  C   UNL     1       0.323   0.217  -7.053  0.00  0.00    +0.011 A 
ATOM     32  C   UNL     1       0.488  -0.866  -7.892  0.00  0.00    +0.004 A 
ENDBRANCH   1  30
TORSDOF 3
