REMARK  Name = ZINC13029745
REMARK  8 active torsions:
REMARK  status: ('A' for Active; 'I' for Inactive)
REMARK    1  A    between atoms: C_1  and  O_2
REMARK    2  A    between atoms: O_2  and  C_3
REMARK    3  A    between atoms: C_6  and  C_22
REMARK    4  A    between atoms: C_8  and  S_9
REMARK    5  A    between atoms: S_9  and  N_12
REMARK    6  A    between atoms: N_12  and  C_13
REMARK    7  A    between atoms: C_18  and  C_19
REMARK    8  A    between atoms: C_23  and  C_24
REMARK                            x       y       z     vdW  Elec       q    Type
REMARK                         _______ _______ _______ _____ _____    ______ ____
ROOT
ATOM      1  S   UNL     1       2.605   1.185  -0.006  0.00  0.00    +0.076 S 
ATOM      2  O   UNL     1       2.674   0.148  -0.976  0.00  0.00    -0.150 OA
ATOM      3  O   UNL     1       3.430   2.341  -0.067  0.00  0.00    -0.150 OA
ENDROOT
BRANCH   1   9
ATOM      4  C   UNL     1      -0.106   0.845   0.115  0.00  0.00    +0.147 A 
ATOM      5  C   UNL     1      -1.424   1.289   0.118  0.00  0.00    +0.048 A 
ATOM      6  C   UNL     1      -1.700   2.634   0.022  0.00  0.00    +0.011 A 
ATOM      7  C   UNL     1      -0.652   3.555  -0.091  0.00  0.00    -0.023 A 
ATOM      8  C   UNL     1       0.673   3.103  -0.099  0.00  0.00    +0.040 A 
ATOM      9  C   UNL     1       0.938   1.756   0.004  0.00  0.00    +0.150 A 
BRANCH   4  11
ATOM     10  C   UNL     1      -0.959  -1.362   0.328  0.00  0.00    +0.277 C 
ATOM     11  O   UNL     1       0.161  -0.481   0.216  0.00  0.00    -0.493 OA
ENDBRANCH   4  11
BRANCH   7  12
ATOM     12  C   UNL     1      -0.941   4.992  -0.201  0.00  0.00    +0.015 C 
ATOM     13  C   UNL     1      -2.221   5.425  -0.193  0.00  0.00    +0.096 C 
BRANCH  13  14
ATOM     14  C   UNL     1      -2.500   6.811  -0.299  0.00  0.00    +0.380 C 
ATOM     15  O   UNL     1      -1.588   7.610  -0.397  0.00  0.00    -0.241 OA
ATOM     16  O   UNL     1      -3.778   7.245  -0.291  0.00  0.00    -0.241 OA
ENDBRANCH  13  14
ENDBRANCH   7  12
ENDBRANCH   1   9
BRANCH   1  17
ATOM     17  N   UNL     1       2.890   0.478   1.464  0.00  0.00    -0.215 N 
ATOM     18  H   UNL     1       3.036  -0.480   1.521  0.00  0.00    +0.174 HD
BRANCH  17  19
ATOM     19  C   UNL     1       2.918   1.254   2.614  0.00  0.00    +0.064 A 
ATOM     20  C   UNL     1       2.064   2.342   2.743  0.00  0.00    +0.045 A 
ATOM     21  C   UNL     1       2.094   3.113   3.889  0.00  0.00    +0.043 A 
ATOM     22  C   UNL     1       2.975   2.809   4.917  0.00  0.00    +0.021 A 
ATOM     23  C   UNL     1       3.829   1.735   4.806  0.00  0.00    +0.018 A 
ATOM     24  C   UNL     1       3.807   0.941   3.655  0.00  0.00    +0.085 A 
ATOM     25 CL   UNL     1       1.023   4.471   4.043  0.00  0.00    -0.083 Cl
BRANCH  24  26
ATOM     26  C   UNL     1       4.713  -0.213   3.534  0.00  0.00    +0.388 C 
ATOM     27  O   UNL     1       4.694  -0.897   2.530  0.00  0.00    -0.241 OA
ATOM     28  O   UNL     1       5.564  -0.510   4.536  0.00  0.00    -0.241 OA
ENDBRANCH  24  26
ENDBRANCH  17  19
ENDBRANCH   1  17
TORSDOF 7
