REMARK  Name = ZINC37037004
REMARK  5 active torsions:
REMARK  status: ('A' for Active; 'I' for Inactive)
REMARK    1  A    between atoms: C_1  and  C_2
REMARK    2  A    between atoms: C_3  and  S_8
REMARK    3  A    between atoms: S_8  and  C_9
REMARK    4  A    between atoms: C_9  and  C_10
REMARK    5  A    between atoms: C_13  and  C_15
REMARK                            x       y       z     vdW  Elec       q    Type
REMARK                         _______ _______ _______ _____ _____    ______ ____
ROOT
ATOM      1  C   UNL     1       0.003  -1.562  -3.855  0.00  0.00    +0.172 C 
ENDROOT
BRANCH   1   2
ATOM      2  C   UNL     1      -0.010  -1.173  -5.311  0.00  0.00    +0.228 A 
ATOM      3  N   UNL     1       1.036  -0.965  -6.061  0.00  0.00    -0.111 NA
ATOM      4  N   UNL     1       0.658  -0.650  -7.250  0.00  0.00    -0.104 NA
ATOM      5  C   UNL     1      -0.656  -0.646  -7.300  0.00  0.00    +0.284 A 
ATOM      6  O   UNL     1      -1.103  -0.982  -6.072  0.00  0.00    -0.417 OA
BRANCH   5   7
ATOM      7  C   UNL     1      -1.484  -0.338  -8.475  0.00  0.00    +0.192 A 
ATOM      8  C   UNL     1      -1.022  -0.010  -9.715  0.00  0.00    +0.056 A 
ATOM      9  C   UNL     1      -2.153   0.201 -10.525  0.00  0.00    +0.058 A 
ATOM     10  C   UNL     1      -3.240  -0.006  -9.751  0.00  0.00    +0.171 A 
ATOM     11  O   UNL     1      -2.832  -0.337  -8.516  0.00  0.00    -0.443 OA
ATOM     12 BR   UNL     1      -5.038   0.138 -10.316  0.00  0.00    -0.008 Br
ENDBRANCH   5   7
ENDBRANCH   1   2
BRANCH   1  13
ATOM     13  S   UNL     1      -0.012  -0.066  -2.829  0.00  0.00    -0.107 S 
BRANCH  13  16
ATOM     14  C   UNL     1      -0.018   1.503   0.010  0.00  0.00    +0.067 C 
ATOM     15  C   UNL     1       0.002  -0.004   0.002  0.00  0.00    +0.061 A 
ATOM     16  C   UNL     1       0.005  -0.682  -1.178  0.00  0.00    +0.070 A 
ATOM     17  S   UNL     1       0.031  -2.370  -0.589  0.00  0.00    -0.046 S 
ATOM     18  C   UNL     1       0.035  -1.995   1.158  0.00  0.00    +0.157 A 
ATOM     19  N   UNL     1       0.022  -0.675   1.141  0.00  0.00    -0.229 NA
ATOM     20  N   UNL     1       0.052  -2.861   2.245  0.00  0.00    -0.337 N 
ATOM     21  H   UNL     1       0.065  -3.820   2.100  0.00  0.00    +0.144 HD
ATOM     22  H   UNL     1       0.052  -2.507   3.148  0.00  0.00    +0.144 HD
ENDBRANCH  13  16
ENDBRANCH   1  13
TORSDOF 4
