REMARK  Name = ZINC38924601
REMARK  5 active torsions:
REMARK  status: ('A' for Active; 'I' for Inactive)
REMARK    1  A    between atoms: C_1  and  C_2
REMARK    2  A    between atoms: C_11  and  N_12
REMARK    3  A    between atoms: C_13  and  C_15
REMARK    4  A    between atoms: C_17  and  C_28
REMARK    5  A    between atoms: N_18  and  C_20
REMARK                            x       y       z     vdW  Elec       q    Type
REMARK                         _______ _______ _______ _____ _____    ______ ____
ROOT
ATOM      1  C   UNL     1       0.299  -7.009  -2.338  0.00  0.00    +0.148 A 
ATOM      2  C   UNL     1       0.425  -8.411  -2.437  0.00  0.00    +0.065 A 
ATOM      3  C   UNL     1       0.498  -8.676  -3.779  0.00  0.00    +0.105 A 
ATOM      4  N   UNL     1       0.417  -7.474  -4.422  0.00  0.00    -0.255 N 
ATOM      5  N   UNL     1       0.298  -6.526  -3.565  0.00  0.00    -0.166 NA
ENDROOT
BRANCH   4   6
ATOM      6  C   UNL     1       0.456  -7.295  -5.876  0.00  0.00    +0.130 C 
ATOM      7  C   UNL     1       1.632  -6.379  -6.255  0.00  0.00    +0.051 C 
ATOM      8  C   UNL     1       1.494  -5.926  -7.728  0.00  0.00    +0.168 C 
ATOM      9  S   UNL     1      -0.325  -5.968  -7.996  0.00  0.00    -0.029 S 
ATOM     10  O   UNL     1      -0.802  -4.638  -8.144  0.00  0.00    -0.174 OA
ATOM     11  O   UNL     1      -0.623  -6.933  -8.996  0.00  0.00    -0.174 OA
ATOM     12  C   UNL     1      -0.859  -6.617  -6.356  0.00  0.00    +0.192 C 
ENDBRANCH   4   6
BRANCH   3  13
ATOM     13  C   UNL     1       0.637 -10.002  -4.407  0.00  0.00    +0.153 A 
ATOM     14  C   UNL     1       0.615 -11.199  -3.759  0.00  0.00    +0.051 A 
ATOM     15  C   UNL     1       0.780 -12.195  -4.742  0.00  0.00    +0.042 A 
ATOM     16  C   UNL     1       0.895 -11.565  -5.927  0.00  0.00    +0.196 A 
ATOM     17  O   UNL     1       0.802 -10.241  -5.722  0.00  0.00    -0.461 OA
ENDBRANCH   3  13
BRANCH   1  19
ATOM     18  N   UNL     1       0.063  -4.885  -1.144  0.00  0.00    -0.280 N 
ATOM     19  C   UNL     1       0.184  -6.227  -1.090  0.00  0.00    +0.268 C 
ATOM     20  O   UNL     1       0.197  -6.793  -0.015  0.00  0.00    -0.268 OA
ATOM     21  H   UNL     1      -0.029  -4.441  -2.001  0.00  0.00    +0.155 HD
BRANCH  18  32
ATOM     22  C   UNL     1      -2.373   0.936   0.381  0.00  0.00    +0.065 C 
ATOM     23  C   UNL     1      -1.724  -0.420   0.274  0.00  0.00    +0.039 A 
ATOM     24  C   UNL     1      -1.776  -1.103  -0.939  0.00  0.00    +0.024 A 
ATOM     25  C   UNL     1      -1.193  -2.333  -1.054  0.00  0.00    +0.013 A 
ATOM     26  C   UNL     1      -0.554  -2.873   0.076  0.00  0.00    +0.022 A 
ATOM     27  C   UNL     1      -0.537  -2.126   1.280  0.00  0.00    +0.073 A 
ATOM     28  N   UNL     1      -1.122  -0.924   1.324  0.00  0.00    -0.252 NA
ATOM     29  C   UNL     1       0.101  -2.662   2.411  0.00  0.00    +0.028 A 
ATOM     30  C   UNL     1       0.696  -3.885   2.343  0.00  0.00    +0.004 A 
ATOM     31  C   UNL     1       0.686  -4.626   1.165  0.00  0.00    +0.024 A 
ATOM     32  C   UNL     1       0.070  -4.137   0.032  0.00  0.00    +0.043 A 
ENDBRANCH  18  32
ENDBRANCH   1  19
TORSDOF 4
