REMARK  Name = ZINC00063004
REMARK  4 active torsions:
REMARK  status: ('A' for Active; 'I' for Inactive)
REMARK    1  A    between atoms: C_3  and  C_9
REMARK    2  A    between atoms: C_18  and  C_26
REMARK    3  A    between atoms: C_20  and  C_21
REMARK    4  A    between atoms: C_20  and  C_23
REMARK                            x       y       z     vdW  Elec       q    Type
REMARK                         _______ _______ _______ _____ _____    ______ ____
ROOT
ATOM      1  C   UNL     1       2.240   3.689   0.997  0.00  0.00    +0.069 C 
ATOM      2  C   UNL     1       1.001   3.816   0.110  0.00  0.00    +0.027 C 
ATOM      3  C   UNL     1       0.105   4.951   0.541  0.00  0.00    +0.009 C 
ATOM      4  C   UNL     1      -1.092   4.459   1.353  0.00  0.00    +0.005 C 
ATOM      5  C   UNL     1      -1.881   3.461   0.488  0.00  0.00    +0.027 C 
ATOM      6  C   UNL     1      -0.969   2.298   0.192  0.00  0.00    -0.026 C 
ATOM      7  C   UNL     1       0.330   2.476   0.046  0.00  0.00    -0.047 C 
ATOM      8  C   UNL     1       1.204   1.298  -0.194  0.00  0.00    +0.164 C 
ATOM      9  C   UNL     1       2.546   1.427  -0.038  0.00  0.00    +0.065 C 
ATOM     10  C   UNL     1       3.218   2.711   0.345  0.00  0.00    +0.188 C 
ATOM     11  N   UNL     1       3.328   0.325  -0.240  0.00  0.00    -0.304 NA
ATOM     12  H   UNL     1       2.921  -0.520  -0.489  0.00  0.00    +0.186 HD
ENDROOT
BRANCH   1  15
ATOM     13  C   UNL     1       1.249   1.349   3.788  0.00  0.00    +0.039 A 
ATOM     14  C   UNL     1       1.614   1.824   2.543  0.00  0.00    +0.009 A 
ATOM     15  C   UNL     1       1.841   3.174   2.356  0.00  0.00    -0.006 A 
ATOM     16  C   UNL     1       1.708   4.053   3.418  0.00  0.00    +0.130 A 
ATOM     17  C   UNL     1       1.337   3.579   4.664  0.00  0.00    +0.077 A 
ATOM     18  C   UNL     1       1.110   2.227   4.850  0.00  0.00    +0.126 A 
ATOM     19  F   UNL     1       0.753   1.763   6.068  0.00  0.00    -0.205 F 
ATOM     20  F   UNL     1       1.935   5.372   3.236  0.00  0.00    -0.205 F 
ENDBRANCH   1  15
BRANCH  10  21
ATOM     21  C   UNL     1       4.308   2.419   1.291  0.00  0.00    +0.091 C 
ATOM     22  N   UNL     1       5.149   2.194   2.021  0.00  0.00    -0.195 NA
ENDBRANCH  10  21
BRANCH  10  23
ATOM     23  C   UNL     1       3.785   3.334  -0.862  0.00  0.00    +0.091 C 
ATOM     24  N   UNL     1       4.222   3.815  -1.794  0.00  0.00    -0.195 NA
ENDBRANCH  10  23
BRANCH   8  25
ATOM     25  C   UNL     1       0.638   0.043  -0.586  0.00  0.00    +0.076 C 
ATOM     26  N   UNL     1       0.189  -0.953  -0.896  0.00  0.00    -0.196 NA
ENDBRANCH   8  25
TORSDOF 4
