REMARK  Name = ZINC20156988
REMARK  7 active torsions:
REMARK  status: ('A' for Active; 'I' for Inactive)
REMARK    1  A    between atoms: C_2  and  C_3
REMARK    2  A    between atoms: C_7  and  N_9
REMARK    3  A    between atoms: C_10  and  C_12
REMARK    4  A    between atoms: C_14  and  C_29
REMARK    5  A    between atoms: C_16  and  C_18
REMARK    6  A    between atoms: N_20  and  C_21
REMARK    7  A    between atoms: C_25  and  C_27
REMARK                            x       y       z     vdW  Elec       q    Type
REMARK                         _______ _______ _______ _____ _____    ______ ____
ROOT
ATOM      1  C   UNL     1       1.087   7.402   0.263  0.00  0.00    +0.038 A 
ATOM      2  C   UNL     1       2.288   8.109   0.358  0.00  0.00    +0.021 A 
ATOM      3  C   UNL     1       2.276   9.486   0.460  0.00  0.00    -0.009 A 
ATOM      4  C   UNL     1       1.079  10.174   0.467  0.00  0.00    +0.021 A 
ATOM      5  C   UNL     1      -0.130   9.479   0.372  0.00  0.00    +0.038 A 
ATOM      6  C   UNL     1      -0.125   8.090   0.264  0.00  0.00    +0.026 A 
ENDROOT
BRANCH   3   7
ATOM      7  C   UNL     1       3.576  10.242   0.562  0.00  0.00    +0.077 C 
ATOM      8  C   UNL     1       3.586  11.095   1.808  0.00  0.00    +0.198 C 
ATOM      9  O   UNL     1       3.497  10.699   2.951  0.00  0.00    -0.286 OA
ATOM     10  C   UNL     1       3.723  12.498   1.379  0.00  0.00    +0.033 A 
ATOM     11  C   UNL     1       3.784  13.678   2.125  0.00  0.00    +0.012 A 
ATOM     12  C   UNL     1       3.916  14.896   1.486  0.00  0.00    +0.001 A 
ATOM     13  C   UNL     1       3.988  14.959   0.106  0.00  0.00    +0.001 A 
ATOM     14  C   UNL     1       3.930  13.804  -0.651  0.00  0.00    +0.012 A 
ATOM     15  C   UNL     1       3.797  12.562  -0.026  0.00  0.00    +0.033 A 
ATOM     16  C   UNL     1       3.712  11.205  -0.593  0.00  0.00    +0.198 C 
ATOM     17  O   UNL     1       3.745  10.914  -1.770  0.00  0.00    -0.286 OA
ENDBRANCH   3   7
BRANCH   1  19
ATOM     18  N   UNL     1      -0.058   5.247   0.063  0.00  0.00    -0.281 N 
ATOM     19  C   UNL     1       1.102   5.928   0.155  0.00  0.00    +0.248 C 
ATOM     20  O   UNL     1       2.160   5.330   0.149  0.00  0.00    -0.270 OA
ATOM     21  H   UNL     1      -1.011   5.792  -0.009  0.00  0.00    +0.155 HD
BRANCH  18  26
ATOM     22  C   UNL     1       0.994   1.770  -0.554  0.00  0.00    +0.026 A 
ATOM     23  C   UNL     1      -0.049   1.073   0.060  0.00  0.00    +0.017 A 
ATOM     24  C   UNL     1      -1.076   1.764   0.669  0.00  0.00    +0.003 A 
ATOM     25  C   UNL     1      -1.081   3.146   0.670  0.00  0.00    +0.023 A 
ATOM     26  C   UNL     1      -0.050   3.849   0.058  0.00  0.00    +0.035 A 
ATOM     27  C   UNL     1       0.987   3.164  -0.557  0.00  0.00    +0.040 A 
BRANCH  22  29
ATOM     28  C   UNL     1       2.941   0.469  -1.697  0.00  0.00    +0.009 C 
ATOM     29  C   UNL     1       2.064   1.055  -1.182  0.00  0.00    -0.070 C 
ENDBRANCH  22  29
ENDBRANCH  18  26
ENDBRANCH   1  19
BRANCH   5  30
ATOM     30  C   UNL     1      -1.411  10.217   0.381  0.00  0.00    +0.248 C 
ATOM     31  O   UNL     1      -1.413  11.429   0.470  0.00  0.00    -0.270 OA
ATOM     32  N   UNL     1      -2.576   9.546   0.289  0.00  0.00    -0.281 N 
ATOM     33  H   UNL     1      -2.578   8.446   0.285  0.00  0.00    +0.155 HD
BRANCH  32  34
ATOM     34  C   UNL     1      -3.782  10.247   0.199  0.00  0.00    +0.035 A 
ATOM     35  C   UNL     1      -4.821   9.746  -0.577  0.00  0.00    +0.023 A 
ATOM     36  C   UNL     1      -6.016  10.436  -0.668  0.00  0.00    +0.003 A 
ATOM     37  C   UNL     1      -6.184  11.627   0.009  0.00  0.00    +0.017 A 
ATOM     38  C   UNL     1      -5.146  12.138   0.790  0.00  0.00    +0.026 A 
ATOM     39  C   UNL     1      -3.944  11.440   0.887  0.00  0.00    +0.040 A 
BRANCH  38  40
ATOM     40  C   UNL     1      -5.319  13.373   1.494  0.00  0.00    -0.070 C 
ATOM     41  C   UNL     1      -5.460  14.386   2.071  0.00  0.00    +0.009 C 
ENDBRANCH  38  40
ENDBRANCH  32  34
ENDBRANCH   5  30
TORSDOF 7
