REMARK  Name = ZINC03446933
REMARK  5 active torsions:
REMARK  status: ('A' for Active; 'I' for Inactive)
REMARK    1  A    between atoms: C_6  and  S_11
REMARK    2  A    between atoms: S_11  and  N_14
REMARK    3  A    between atoms: C_23  and  C_25
REMARK    4  A    between atoms: N_27  and  N_28
REMARK    5  A    between atoms: C_29  and  C_31
REMARK                            x       y       z     vdW  Elec       q    Type
REMARK                         _______ _______ _______ _____ _____    ______ ____
ROOT
ATOM      1  N   UNL     1       2.534   3.833  -0.576  0.00  0.00    -0.160 NA
ATOM      2  C   UNL     1       1.212   3.231  -0.367  0.00  0.00    +0.145 C 
ATOM      3  C   UNL     1       1.370   1.795   0.066  0.00  0.00    -0.028 A 
ATOM      4  C   UNL     1       0.235   0.996   0.085  0.00  0.00    +0.005 A 
ATOM      5  C   UNL     1       0.312  -0.319   0.495  0.00  0.00    +0.000 A 
ATOM      6  C   UNL     1       1.529  -0.844   0.889  0.00  0.00    +0.000 A 
ATOM      7  C   UNL     1       2.658  -0.053   0.864  0.00  0.00    +0.004 A 
ATOM      8  C   UNL     1       2.584   1.271   0.448  0.00  0.00    -0.041 A 
ATOM      9  C   UNL     1       3.861   2.070   0.431  0.00  0.00    +0.065 C 
ATOM     10  C   UNL     1       3.565   3.568   0.440  0.00  0.00    +0.171 C 
ENDROOT
BRANCH  10  11
ATOM     11  C   UNL     1       4.818   4.337   0.107  0.00  0.00    +0.248 C 
ATOM     12  O   UNL     1       5.529   3.971  -0.805  0.00  0.00    -0.272 OA
ATOM     13  N   UNL     1       5.147   5.431   0.822  0.00  0.00    -0.233 N 
ATOM     14  H   UNL     1       4.579   5.724   1.551  0.00  0.00    +0.173 HD
BRANCH  13  15
ATOM     15  N   UNL     1       6.312   6.146   0.512  0.00  0.00    -0.230 N 
ATOM     16  C   UNL     1       6.642   7.240   1.227  0.00  0.00    +0.260 C 
ATOM     17  O   UNL     1       5.928   7.606   2.141  0.00  0.00    -0.269 OA
ATOM     18  H   UNL     1       6.881   5.853  -0.217  0.00  0.00    +0.173 HD
BRANCH  16  19
ATOM     19  C   UNL     1       7.869   7.993   0.900  0.00  0.00    +0.042 A 
ATOM     20  C   UNL     1       8.692   7.570  -0.145  0.00  0.00    +0.017 A 
ATOM     21  C   UNL     1       9.834   8.277  -0.452  0.00  0.00    +0.050 A 
ATOM     22  C   UNL     1      10.177   9.404   0.283  0.00  0.00    +0.166 A 
ATOM     23  C   UNL     1       9.361   9.829   1.332  0.00  0.00    +0.167 A 
ATOM     24  C   UNL     1       8.212   9.127   1.640  0.00  0.00    +0.062 A 
ATOM     25  O   UNL     1       9.913  10.947   1.887  0.00  0.00    -0.453 OA
ATOM     26  C   UNL     1      11.280  10.965   1.435  0.00  0.00    +0.466 C 
ATOM     27  O   UNL     1      11.236  10.257   0.183  0.00  0.00    -0.453 OA
ENDBRANCH  16  19
ENDBRANCH  13  15
ENDBRANCH  10  11
BRANCH   1  28
ATOM     28  S   UNL     1       2.852   4.771  -1.903  0.00  0.00    +0.062 S 
ATOM     29  O   UNL     1       1.626   5.389  -2.267  0.00  0.00    -0.153 OA
ATOM     30  O   UNL     1       4.021   5.520  -1.599  0.00  0.00    -0.153 OA
BRANCH  28  36
ATOM     31  C   UNL     1       3.355   0.630  -7.157  0.00  0.00    +0.001 A 
ATOM     32  C   UNL     1       2.022   0.990  -6.969  0.00  0.00    +0.001 A 
ATOM     33  C   UNL     1       1.658   1.828  -5.960  0.00  0.00    +0.008 A 
ATOM     34  C   UNL     1       2.639   2.339  -5.093  0.00  0.00    -0.016 A 
ATOM     35  C   UNL     1       2.302   3.207  -4.040  0.00  0.00    +0.037 A 
ATOM     36  C   UNL     1       3.279   3.683  -3.221  0.00  0.00    +0.106 A 
ATOM     37  C   UNL     1       4.613   3.327  -3.413  0.00  0.00    +0.029 A 
ATOM     38  C   UNL     1       4.976   2.485  -4.418  0.00  0.00    +0.010 A 
ATOM     39  C   UNL     1       3.994   1.973  -5.285  0.00  0.00    -0.018 A 
ATOM     40  C   UNL     1       4.331   1.105  -6.338  0.00  0.00    +0.008 A 
ENDBRANCH  28  36
ENDBRANCH   1  28
TORSDOF 5
