REMARK  Name = ZINC21036326
REMARK  9 active torsions:
REMARK  status: ('A' for Active; 'I' for Inactive)
REMARK    1  A    between atoms: C_2  and  C_3
REMARK    2  A    between atoms: C_3  and  S_4
REMARK    3  A    between atoms: S_4  and  C_5
REMARK    4  A    between atoms: C_10  and  N_11
REMARK    5  A    between atoms: C_12  and  C_14
REMARK    6  A    between atoms: C_14  and  S_15
REMARK    7  A    between atoms: S_15  and  C_16
REMARK    8  A    between atoms: N_20  and  N_21
REMARK    9  A    between atoms: N_22  and  N_23
REMARK                            x       y       z     vdW  Elec       q    Type
REMARK                         _______ _______ _______ _____ _____    ______ ____
ROOT
ATOM      1  C   UNL     1      -4.780   2.094  -0.294  0.00  0.00    +0.173 C 
ENDROOT
BRANCH   1   3
ATOM      2  N   UNL     1      -7.102   2.281   0.538  0.00  0.00    -0.284 N 
ATOM      3  C   UNL     1      -5.820   1.947   0.786  0.00  0.00    +0.228 C 
ATOM      4  O   UNL     1      -5.504   1.527   1.880  0.00  0.00    -0.275 OA
ATOM      5  H   UNL     1      -7.376   2.730  -0.429  0.00  0.00    +0.155 HD
BRANCH   2  11
ATOM      6  C   UNL     1      -9.377   1.689   1.127  0.00  0.00    +0.029 A 
ATOM      7  C   UNL     1     -10.346   1.468   2.095  0.00  0.00    +0.016 A 
ATOM      8  C   UNL     1     -10.032   1.612   3.433  0.00  0.00    +0.001 A 
ATOM      9  C   UNL     1      -8.753   1.976   3.812  0.00  0.00    +0.002 A 
ATOM     10  C   UNL     1      -7.779   2.193   2.855  0.00  0.00    +0.024 A 
ATOM     11  C   UNL     1      -8.086   2.056   1.510  0.00  0.00    +0.047 A 
BRANCH   6  12
ATOM     12  S   UNL     1      -9.774   1.506  -0.580  0.00  0.00    -0.119 S 
BRANCH  12  13
ATOM     13  C   UNL     1     -11.524   1.030  -0.574  0.00  0.00    +0.101 C 
BRANCH  13  15
ATOM     14  C   UNL     1     -12.371  -0.347  -2.404  0.00  0.00    +0.005 C 
ATOM     15  C   UNL     1     -11.997   0.839  -1.992  0.00  0.00    -0.024 C 
ENDBRANCH  13  15
ENDBRANCH  12  13
ENDBRANCH   6  12
ENDBRANCH   2  11
ENDBRANCH   1   3
BRANCH   1  16
ATOM     16  S   UNL     1      -3.166   1.567   0.345  0.00  0.00    -0.075 S 
BRANCH  16  17
ATOM     17  C   UNL     1      -2.072   1.796  -1.017  0.00  0.00    +0.210 A 
ATOM     18  N   UNL     1      -2.402   2.249  -2.202  0.00  0.00    -0.119 NA
ATOM     19  N   UNL     1      -1.245   2.278  -2.992  0.00  0.00    -0.110 NA
ATOM     20  C   UNL     1      -0.246   1.849  -2.261  0.00  0.00    +0.248 A 
ATOM     21  N   UNL     1      -0.731   1.534  -1.024  0.00  0.00    -0.211 N 
ATOM     22  N   UNL     1       1.075   1.730  -2.674  0.00  0.00    -0.251 N 
ATOM     23  H   UNL     1       1.838   1.353  -1.977  0.00  0.00    +0.169 HD
BRANCH  21  24
ATOM     24  N   UNL     1      -0.003   1.048   0.025  0.00  0.00    -0.294 N 
ATOM     25  H   UNL     1       1.077   0.872  -0.090  0.00  0.00    +0.163 HD
ATOM     26  H   UNL     1      -0.496   0.832   0.984  0.00  0.00    +0.163 HD
ENDBRANCH  21  24
BRANCH  22  27
ATOM     27  N   UNL     1       1.427   2.082  -3.946  0.00  0.00    -0.254 NA
ATOM     28  H   UNL     1       2.506   1.921  -4.086  0.00  0.00    +0.140 HD
ATOM     29  H   UNL     1       0.868   1.466  -4.665  0.00  0.00    +0.140 HD
ENDBRANCH  22  27
ENDBRANCH  16  17
ENDBRANCH   1  16
TORSDOF 9
