REMARK  Name = ZINC41770935
REMARK  8 active torsions:
REMARK  status: ('A' for Active; 'I' for Inactive)
REMARK    1  A    between atoms: C_1  and  C_2
REMARK    2  A    between atoms: C_2  and  S_3
REMARK    3  A    between atoms: S_3  and  C_4
REMARK    4  A    between atoms: C_7  and  S_9
REMARK    5  A    between atoms: S_9  and  C_10
REMARK    6  A    between atoms: C_10  and  C_11
REMARK    7  A    between atoms: C_13  and  C_18
REMARK    8  A    between atoms: C_16  and  C_17
REMARK                            x       y       z     vdW  Elec       q    Type
REMARK                         _______ _______ _______ _____ _____    ______ ____
ROOT
ATOM      1  S   UNL     1       1.150  -6.732  -1.898  0.00  0.00    -0.092 S 
ENDROOT
BRANCH   1   5
ATOM      2  C   UNL     1       0.792  -2.345  -1.354  0.00  0.00    +0.159 A 
ATOM      3  N   UNL     1       0.259  -3.092  -0.407  0.00  0.00    -0.134 NA
ATOM      4  N   UNL     1       0.325  -4.463  -0.498  0.00  0.00    -0.134 NA
ATOM      5  C   UNL     1       0.922  -5.024  -1.532  0.00  0.00    +0.160 A 
ATOM      6  S   UNL     1       1.433  -3.589  -2.465  0.00  0.00    -0.033 S 
BRANCH   2   7
ATOM      7  S   UNL     1       0.851  -0.589  -1.490  0.00  0.00    -0.097 S 
BRANCH   7   9
ATOM      8  C   UNL     1      -0.019   1.526   0.010  0.00  0.00    +0.016 C 
ATOM      9  C   UNL     1       0.002  -0.004   0.002  0.00  0.00    +0.073 C 
ENDBRANCH   7   9
ENDBRANCH   2   7
ENDBRANCH   1   5
BRANCH   1  10
ATOM     10  C   UNL     1       0.362  -7.588  -0.507  0.00  0.00    +0.111 C 
BRANCH  10  11
ATOM     11  C   UNL     1       0.486  -9.078  -0.698  0.00  0.00    -0.034 A 
ATOM     12  C   UNL     1      -0.493  -9.771  -1.385  0.00  0.00    +0.008 A 
ATOM     13  C   UNL     1      -0.378 -11.138  -1.560  0.00  0.00    -0.050 A 
ATOM     14  C   UNL     1       0.716 -11.811  -1.048  0.00  0.00    +0.003 A 
ATOM     15  C   UNL     1       1.695 -11.118  -0.362  0.00  0.00    +0.004 A 
ATOM     16  C   UNL     1       1.582  -9.751  -0.191  0.00  0.00    -0.046 A 
ATOM     17  C   UNL     1       2.653  -8.994   0.553  0.00  0.00    +0.044 C 
ATOM     18  C   UNL     1      -1.446 -11.893  -2.308  0.00  0.00    +0.044 C 
ENDBRANCH  10  11
ENDBRANCH   1  10
TORSDOF 5
