REMARK  Name = ZINC24716585
REMARK  11 active torsions:
REMARK  status: ('A' for Active; 'I' for Inactive)
REMARK    1  A    between atoms: C_1  and  C_2
REMARK    2  A    between atoms: C_2  and  N_3
REMARK    3  A    between atoms: N_3  and  C_4
REMARK    4  A    between atoms: N_3  and  C_18
REMARK    5  A    between atoms: C_4  and  C_5
REMARK    6  A    between atoms: N_7  and  C_8
REMARK    7  A    between atoms: C_11  and  N_14
REMARK    8  A    between atoms: C_15  and  C_17
REMARK    9  A    between atoms: C_18  and  C_20
REMARK   10  A    between atoms: C_18  and  C_21
REMARK   11  A    between atoms: N_27  and  C_28
REMARK                            x       y       z     vdW  Elec       q    Type
REMARK                         _______ _______ _______ _____ _____    ______ ____
ROOT
ATOM      1  N   UNL     1      -5.528   7.453  -1.395  0.00  0.00    +0.392 N 
ATOM      2  H   UNL     1      -5.325   7.766  -2.430  0.00  0.00    -0.080 HD
ENDROOT
BRANCH   1   4
ATOM      3  C   UNL     1      -3.080   7.390  -1.379  0.00  0.00    -0.017 C 
ATOM      4  C   UNL     1      -4.338   7.758  -0.590  0.00  0.00    -0.081 C 
ENDBRANCH   1   4
BRANCH   1   5
ATOM      5  C   UNL     1      -6.695   8.206  -0.917  0.00  0.00    -0.001 C 
ATOM      6  C   UNL     1      -6.811   8.057   0.602  0.00  0.00    -0.005 C 
BRANCH   5   7
ATOM      7  C   UNL     1      -6.531   9.663  -1.268  0.00  0.00    +0.123 A 
ATOM      8  N   UNL     1      -5.350  10.242  -1.141  0.00  0.00    -0.201 NA
ATOM      9  C   UNL     1      -5.202  11.528  -1.450  0.00  0.00    +0.217 A 
ATOM     10  N   UNL     1      -6.242  12.229  -1.886  0.00  0.00    -0.181 NA
ATOM     11  C   UNL     1      -7.428  11.643  -2.013  0.00  0.00    +0.224 A 
ATOM     12  N   UNL     1      -7.567  10.355  -1.707  0.00  0.00    -0.201 NA
ATOM     13  N   UNL     1      -8.513  12.368  -2.466  0.00  0.00    -0.284 N 
ATOM     14  N   UNL     1      -3.968  12.133  -1.316  0.00  0.00    -0.327 N 
ATOM     15  H   UNL     1      -9.486  11.874  -2.603  0.00  0.00    +0.155 HD
ATOM     16  H   UNL     1      -3.846  13.196  -1.572  0.00  0.00    +0.145 HD
ATOM     17  H   UNL     1      -3.107  11.552  -0.954  0.00  0.00    +0.145 HD
BRANCH  13  18
ATOM     18  C   UNL     1      -8.374  13.730  -2.751  0.00  0.00    +0.034 A 
ATOM     19  C   UNL     1      -7.536  14.521  -1.976  0.00  0.00    +0.023 A 
ATOM     20  C   UNL     1      -7.398  15.865  -2.263  0.00  0.00    +0.002 A 
ATOM     21  C   UNL     1      -8.100  16.425  -3.314  0.00  0.00    +0.000 A 
ATOM     22  C   UNL     1      -8.940  15.641  -4.084  0.00  0.00    +0.002 A 
ATOM     23  C   UNL     1      -9.079  14.296  -3.806  0.00  0.00    +0.023 A 
ENDBRANCH  13  18
ENDBRANCH   5   7
ENDBRANCH   1   5
BRANCH   1  24
ATOM     24  C   UNL     1      -5.801   6.010  -1.405  0.00  0.00    +0.020 C 
BRANCH  24  25
ATOM     25  C   UNL     1      -4.957   5.346  -2.462  0.00  0.00    +0.201 C 
ATOM     26  O   UNL     1      -4.298   6.021  -3.224  0.00  0.00    -0.278 OA
ATOM     27  N   UNL     1      -4.934   4.002  -2.560  0.00  0.00    -0.287 N 
ATOM     28  H   UNL     1      -5.461   3.387  -1.816  0.00  0.00    +0.155 HD
BRANCH  27  29
ATOM     29  C   UNL     1      -4.239   3.388  -3.610  0.00  0.00    +0.033 A 
ATOM     30  C   UNL     1      -3.633   2.154  -3.413  0.00  0.00    +0.025 A 
ATOM     31  C   UNL     1      -2.948   1.548  -4.448  0.00  0.00    +0.025 A 
ATOM     32  C   UNL     1      -2.865   2.174  -5.685  0.00  0.00    +0.033 A 
ATOM     33  C   UNL     1      -3.466   3.411  -5.880  0.00  0.00    +0.025 A 
ATOM     34  C   UNL     1      -4.155   4.013  -4.847  0.00  0.00    +0.025 A 
BRANCH  32  35
ATOM     35  N   UNL     1      -2.171   1.560  -6.735  0.00  0.00    -0.286 N 
ATOM     36  C   UNL     1      -2.199   0.219  -6.869  0.00  0.00    +0.214 C 
ATOM     37  O   UNL     1      -2.762  -0.462  -6.037  0.00  0.00    -0.276 OA
ATOM     38  C   UNL     1      -1.532  -0.435  -8.052  0.00  0.00    +0.109 C 
ATOM     39  H   UNL     1      -1.602   2.172  -7.451  0.00  0.00    +0.155 HD
ENDBRANCH  32  35
ENDBRANCH  27  29
ENDBRANCH  24  25
ENDBRANCH   1  24
TORSDOF 8
