REMARK  Name = ZINC58952738
REMARK  11 active torsions:
REMARK  status: ('A' for Active; 'I' for Inactive)
REMARK    1  A    between atoms: C_1  and  C_2
REMARK    2  A    between atoms: C_12  and  C_15
REMARK    3  A    between atoms: C_15  and  N_16
REMARK    4  A    between atoms: C_17  and  C_19
REMARK    5  A    between atoms: C_21  and  O_31
REMARK    6  A    between atoms: C_22  and  O_26
REMARK    7  A    between atoms: O_26  and  C_27
REMARK    8  A    between atoms: C_27  and  C_28
REMARK    9  A    between atoms: C_28  and  C_29
REMARK   10  A    between atoms: C_28  and  C_30
REMARK   11  A    between atoms: O_31  and  C_32
REMARK                            x       y       z     vdW  Elec       q    Type
REMARK                         _______ _______ _______ _____ _____    ______ ____
ROOT
ATOM      1  N   UNL     1      -3.369  -5.796  -4.369  0.00  0.00    -0.307 N 
ATOM      2  C   UNL     1      -3.827  -6.645  -5.310  0.00  0.00    +0.244 C 
ATOM      3  O   UNL     1      -4.917  -7.168  -5.179  0.00  0.00    -0.270 OA
ATOM      4  H   UNL     1      -2.500  -5.378  -4.474  0.00  0.00    +0.149 HD
ENDROOT
BRANCH   2   5
ATOM      5  C   UNL     1      -3.006  -6.940  -6.501  0.00  0.00    +0.042 A 
ATOM      6  C   UNL     1      -3.482  -7.816  -7.480  0.00  0.00    +0.062 A 
ATOM      7  C   UNL     1      -2.709  -8.089  -8.593  0.00  0.00    +0.164 A 
ATOM      8  C   UNL     1      -1.458  -7.492  -8.736  0.00  0.00    +0.180 A 
ATOM      9  C   UNL     1      -0.985  -6.622  -7.763  0.00  0.00    +0.087 A 
ATOM     10  C   UNL     1      -1.754  -6.340  -6.653  0.00  0.00    +0.037 A 
ATOM     11 CL   UNL     1       0.575  -5.882  -7.947  0.00  0.00    -0.080 Cl
BRANCH   7  12
ATOM     12  O   UNL     1      -3.170  -8.941  -9.547  0.00  0.00    -0.491 OA
ATOM     13  C   UNL     1      -4.460  -9.517  -9.335  0.00  0.00    +0.277 C 
ENDBRANCH   7  12
BRANCH   8  14
ATOM     14  O   UNL     1      -0.700  -7.762  -9.830  0.00  0.00    -0.487 OA
BRANCH  14  15
ATOM     15  C   UNL     1      -0.874  -6.913 -10.966  0.00  0.00    +0.232 C 
BRANCH  15  16
ATOM     16  C   UNL     1       0.057  -7.369 -12.092  0.00  0.00    +0.020 C 
ATOM     17  C   UNL     1      -0.218  -6.541 -13.348  0.00  0.00    +0.010 C 
ATOM     18  C   UNL     1       1.512  -7.173 -11.660  0.00  0.00    +0.010 C 
ENDBRANCH  15  16
ENDBRANCH  14  15
ENDBRANCH   8  14
ENDBRANCH   2   5
BRANCH   1  19
ATOM     19  C   UNL     1      -4.185  -5.503  -3.188  0.00  0.00    +0.141 C 
BRANCH  19  30
ATOM     20  C   UNL     1       0.024   1.508  -0.007  0.00  0.00    +0.039 C 
ATOM     21  C   UNL     1       0.027  -0.022  -0.001  0.00  0.00    +0.132 C 
ATOM     22  C   UNL     1      -1.417  -0.537   0.001  0.00  0.00    +0.137 C 
ATOM     23  N   UNL     1      -1.389  -1.995   0.196  0.00  0.00    -0.312 N 
ATOM     24  C   UNL     1      -0.598  -2.529   1.316  0.00  0.00    +0.134 C 
ATOM     25  C   UNL     1       0.806  -1.917   1.250  0.00  0.00    +0.179 C 
ATOM     26  O   UNL     1       0.698  -0.493   1.171  0.00  0.00    -0.374 OA
ATOM     27  C   UNL     1      -2.091  -2.844  -0.652  0.00  0.00    +0.099 A 
ATOM     28  C   UNL     1      -2.927  -2.308  -1.627  0.00  0.00    +0.042 A 
ATOM     29  C   UNL     1      -3.619  -3.164  -2.464  0.00  0.00    +0.010 A 
ATOM     30  C   UNL     1      -3.451  -4.533  -2.299  0.00  0.00    -0.014 A 
ATOM     31  C   UNL     1      -2.604  -4.995  -1.311  0.00  0.00    +0.089 A 
ATOM     32  N   UNL     1      -1.953  -4.155  -0.530  0.00  0.00    -0.349 N 
ATOM     33  H   UNL     1      -1.361  -4.507   0.154  0.00  0.00    +0.167 HD
ENDBRANCH  19  30
ENDBRANCH   1  19
TORSDOF 7
