REMARK  Name = ZINC39737029
REMARK  11 active torsions:
REMARK  status: ('A' for Active; 'I' for Inactive)
REMARK    1  A    between atoms: C_1  and  C_2
REMARK    2  A    between atoms: C_2  and  O_3
REMARK    3  A    between atoms: O_3  and  C_4
REMARK    4  A    between atoms: C_4  and  C_6
REMARK    5  A    between atoms: C_7  and  C_37
REMARK    6  A    between atoms: C_14  and  C_15
REMARK    7  A    between atoms: C_25  and  C_27
REMARK    8  A    between atoms: C_30  and  O_35
REMARK    9  A    between atoms: C_31  and  O_33
REMARK   10  A    between atoms: O_33  and  C_34
REMARK   11  A    between atoms: O_35  and  C_36
REMARK                            x       y       z     vdW  Elec       q    Type
REMARK                         _______ _______ _______ _____ _____    ______ ____
ROOT
ATOM      1  C   UNL     1      -2.717  -2.313  -0.241  0.00  0.00    +0.085 C 
ATOM      2  C   UNL     1      -3.014  -3.645  -0.293  0.00  0.00    +0.053 C 
ATOM      3  N   UNL     1      -4.263  -4.066  -0.134  0.00  0.00    -0.228 NA
ATOM      4  C   UNL     1      -5.292  -3.288   0.081  0.00  0.00    +0.178 A 
ATOM      5  N   UNL     1      -5.214  -1.917   0.171  0.00  0.00    -0.275 N 
ATOM      6  C   UNL     1      -6.338  -1.222   0.392  0.00  0.00    +0.268 A 
ATOM      7  O   UNL     1      -6.319  -0.009   0.479  0.00  0.00    -0.266 OA
ATOM      8  C   UNL     1      -7.600  -1.978   0.528  0.00  0.00    +0.080 A 
ATOM      9  C   UNL     1      -8.880  -1.515   0.757  0.00  0.00    +0.026 C 
ATOM     10  S   UNL     1      -7.020  -3.654   0.317  0.00  0.00    -0.046 S 
ATOM     11  C   UNL     1      -3.849  -1.343   0.010  0.00  0.00    +0.162 C 
ATOM     12  C   UNL     1      -1.913  -4.646  -0.536  0.00  0.00    +0.066 C 
ENDROOT
BRANCH   9  13
ATOM     13  C   UNL     1      -9.943  -2.417   0.852  0.00  0.00    -0.018 C 
ATOM     14  C   UNL     1     -11.287  -2.117   1.073  0.00  0.00    +0.003 A 
ATOM     15  C   UNL     1     -11.975  -0.899   1.261  0.00  0.00    +0.010 A 
ATOM     16  C   UNL     1     -13.317  -0.908   1.461  0.00  0.00    +0.001 A 
ATOM     17  C   UNL     1     -14.047  -2.101   1.486  0.00  0.00    +0.002 A 
ATOM     18  C   UNL     1     -13.455  -3.305   1.313  0.00  0.00    +0.026 A 
ATOM     19  C   UNL     1     -12.051  -3.378   1.099  0.00  0.00    +0.043 A 
ATOM     20  N   UNL     1     -11.252  -4.404   0.908  0.00  0.00    -0.380 N 
ATOM     21  C   UNL     1      -9.878  -3.923   0.731  0.00  0.00    +0.149 C 
ATOM     22  H   UNL     1     -11.528  -5.333   0.885  0.00  0.00    +0.160 HD
ENDBRANCH   9  13
BRANCH  11  23
ATOM     23  C   UNL     1      -3.891  -0.373  -1.142  0.00  0.00    -0.016 A 
ATOM     24  C   UNL     1      -4.377  -0.781  -2.370  0.00  0.00    +0.010 A 
ATOM     25  C   UNL     1      -4.418   0.105  -3.430  0.00  0.00    +0.050 A 
ATOM     26  C   UNL     1      -3.972   1.406  -3.263  0.00  0.00    +0.162 A 
ATOM     27  C   UNL     1      -3.484   1.818  -2.027  0.00  0.00    +0.162 A 
ATOM     28  C   UNL     1      -3.450   0.926  -0.967  0.00  0.00    +0.055 A 
BRANCH  27  29
ATOM     29  O   UNL     1      -3.045   3.094  -1.858  0.00  0.00    -0.491 OA
ATOM     30  C   UNL     1      -2.484   3.424  -0.586  0.00  0.00    +0.277 C 
ENDBRANCH  27  29
BRANCH  26  31
ATOM     31  O   UNL     1      -4.012   2.279  -4.305  0.00  0.00    -0.491 OA
ATOM     32  C   UNL     1      -4.525   1.787  -5.545  0.00  0.00    +0.277 C 
ENDBRANCH  26  31
ENDBRANCH  11  23
BRANCH   1  33
ATOM     33  C   UNL     1      -1.397  -1.858  -0.409  0.00  0.00    +0.339 C 
ATOM     34  O   UNL     1      -0.738  -1.530   0.561  0.00  0.00    -0.245 OA
BRANCH  33  35
ATOM     35  O   UNL     1      -0.861  -1.785  -1.646  0.00  0.00    -0.462 OA
BRANCH  35  37
ATOM     36  C   UNL     1       0.915  -1.280  -3.206  0.00  0.00    +0.048 C 
ATOM     37  C   UNL     1       0.517  -1.417  -1.735  0.00  0.00    +0.229 C 
ENDBRANCH  35  37
ENDBRANCH  33  35
ENDBRANCH   1  33
TORSDOF 7
