REMARK  Name = ZINC28060631
REMARK  4 active torsions:
REMARK  status: ('A' for Active; 'I' for Inactive)
REMARK    1  A    between atoms: C_1  and  C_2
REMARK    2  A    between atoms: C_6  and  C_8
REMARK    3  A    between atoms: C_14  and  C_19
REMARK    4  A    between atoms: C_26  and  C_28
REMARK                            x       y       z     vdW  Elec       q    Type
REMARK                         _______ _______ _______ _____ _____    ______ ____
ROOT
ATOM      1  C   UNL     1       3.446   1.789   0.693  0.00  0.00    +0.234 C 
ATOM      2  C   UNL     1       3.394   3.243   0.283  0.00  0.00    +0.026 C 
ATOM      3  C   UNL     1       2.220   3.783  -0.052  0.00  0.00    +0.050 C 
ATOM      4  C   UNL     1       1.016   2.919  -0.034  0.00  0.00    +0.038 A 
ATOM      5  C   UNL     1      -0.265   3.458  -0.038  0.00  0.00    +0.016 A 
ATOM      6  C   UNL     1      -1.359   2.614  -0.025  0.00  0.00    -0.050 A 
ATOM      7  C   UNL     1      -1.182   1.241  -0.014  0.00  0.00    +0.007 A 
ATOM      8  C   UNL     1       0.090   0.696  -0.002  0.00  0.00    +0.046 A 
ATOM      9  C   UNL     1       1.193   1.529  -0.015  0.00  0.00    +0.131 A 
ATOM     10  O   UNL     1       2.457   1.035  -0.008  0.00  0.00    -0.479 OA
ATOM     11  C   UNL     1      -2.751   3.190  -0.030  0.00  0.00    +0.044 C 
ATOM     12  N   UNL     1       2.095   5.124  -0.432  0.00  0.00    -0.282 N 
ATOM     13  C   UNL     1       3.261   5.809  -0.733  0.00  0.00    +0.240 A 
ATOM     14  N   UNL     1       3.458   6.955  -1.320  0.00  0.00    -0.092 NA
ATOM     15  N   UNL     1       4.720   7.204  -1.401  0.00  0.00    -0.021 NA
ATOM     16  N   UNL     1       5.405   6.242  -0.871  0.00  0.00    -0.042 NA
ATOM     17  N   UNL     1       4.481   5.303  -0.413  0.00  0.00    -0.201 N 
ATOM     18  C   UNL     1       4.679   4.034   0.274  0.00  0.00    +0.181 C 
ATOM     19  H   UNL     1       1.101   5.591  -0.483  0.00  0.00    +0.155 HD
ENDROOT
BRANCH   1  25
ATOM     20  C   UNL     1       0.294   1.928   4.578  0.00  0.00    +0.044 C 
ATOM     21  C   UNL     1       1.688   1.747   4.034  0.00  0.00    -0.050 A 
ATOM     22  C   UNL     1       2.737   1.481   4.894  0.00  0.00    +0.003 A 
ATOM     23  C   UNL     1       4.015   1.315   4.395  0.00  0.00    +0.001 A 
ATOM     24  C   UNL     1       4.244   1.410   3.035  0.00  0.00    +0.007 A 
ATOM     25  C   UNL     1       3.196   1.680   2.175  0.00  0.00    -0.003 A 
ATOM     26  C   UNL     1       1.917   1.846   2.674  0.00  0.00    +0.011 A 
ENDBRANCH   1  25
BRANCH  18  27
ATOM     27  C   UNL     1       5.115   4.296   1.692  0.00  0.00    +0.019 A 
ATOM     28  C   UNL     1       6.259   3.924   2.316  0.00  0.00    +0.013 A 
ATOM     29  C   UNL     1       6.450   4.283   3.637  0.00  0.00    +0.008 A 
ATOM     30  C   UNL     1       5.482   4.987   4.273  0.00  0.00    +0.045 A 
ATOM     31  S   UNL     1       4.255   5.170   2.990  0.00  0.00    -0.099 S 
ENDBRANCH  18  27
TORSDOF 2
