REMARK  Name = ZINC43722440
REMARK  8 active torsions:
REMARK  status: ('A' for Active; 'I' for Inactive)
REMARK    1  A    between atoms: C_1  and  C_2
REMARK    2  A    between atoms: C_6  and  O_27
REMARK    3  A    between atoms: C_11  and  C_26
REMARK    4  A    between atoms: C_13  and  O_22
REMARK    5  A    between atoms: C_13  and  O_24
REMARK    6  A    between atoms: C_16  and  C_21
REMARK    7  A    between atoms: O_22  and  C_23
REMARK    8  A    between atoms: O_24  and  C_25
REMARK                            x       y       z     vdW  Elec       q    Type
REMARK                         _______ _______ _______ _____ _____    ______ ____
ROOT
ATOM      1  C   UNL     1       0.243   2.307  -0.538  0.00  0.00    +0.014 C 
ATOM      2  C   UNL     1       0.059   0.792  -0.667  0.00  0.00    -0.003 C 
ATOM      3  C   UNL     1      -1.443   0.505  -0.469  0.00  0.00    +0.009 C 
ATOM      4  C   UNL     1      -1.627   0.427   1.065  0.00  0.00    +0.003 C 
ATOM      5  C   UNL     1      -0.207   0.497   1.687  0.00  0.00    +0.035 C 
ATOM      6  C   UNL     1       0.681   0.029   0.517  0.00  0.00    +0.075 C 
ATOM      7  C   UNL     1       2.162   0.346   0.675  0.00  0.00    +0.025 C 
ATOM      8  C   UNL     1       2.806  -0.813   1.434  0.00  0.00    +0.007 C 
ATOM      9  C   UNL     1       4.326  -0.752   1.419  0.00  0.00    +0.008 C 
ATOM     10  C   UNL     1       4.834  -0.759  -0.028  0.00  0.00    -0.022 C 
ATOM     11  C   UNL     1       6.363  -0.708  -0.024  0.00  0.00    +0.072 C 
ATOM     12  C   UNL     1       6.944  -0.598  -1.427  0.00  0.00    +0.170 C 
ATOM     13  C   UNL     1       6.303   0.525  -2.233  0.00  0.00    +0.065 C 
ATOM     14  C   UNL     1       4.780   0.450  -2.206  0.00  0.00    +0.012 C 
ATOM     15  C   UNL     1       4.274   0.449  -0.762  0.00  0.00    -0.023 C 
ATOM     16  C   UNL     1       2.761   0.538  -0.712  0.00  0.00    +0.001 C 
ATOM     17  C   UNL     1       2.027  -0.295  -1.751  0.00  0.00    +0.005 C 
ATOM     18  C   UNL     1       0.621   0.296  -1.980  0.00  0.00    +0.010 C 
ATOM     19  C   UNL     1       4.808   1.735  -0.092  0.00  0.00    +0.012 C 
ATOM     20  C   UNL     1       4.387  -2.070  -0.688  0.00  0.00    +0.012 C 
ENDROOT
BRANCH  12  21
ATOM     21  O   UNL     1       6.827  -1.835  -2.133  0.00  0.00    -0.352 OA
ATOM     22  C   UNL     1       7.600  -2.899  -1.573  0.00  0.00    +0.197 C 
ENDBRANCH  12  21
BRANCH  12  23
ATOM     23  O   UNL     1       8.352  -0.305  -1.301  0.00  0.00    -0.352 OA
ATOM     24  C   UNL     1       9.040  -0.212  -2.550  0.00  0.00    +0.197 C 
ENDBRANCH  12  23
BRANCH   6  25
ATOM     25  O   UNL     1       0.490  -1.384   0.343  0.00  0.00    -0.388 OA
ATOM     26  H   UNL     1      -0.437  -1.651   0.280  0.00  0.00    +0.210 HD
ENDBRANCH   6  25
TORSDOF 3
