REMARK  Name = ZINC23251379
REMARK  4 active torsions:
REMARK  status: ('A' for Active; 'I' for Inactive)
REMARK    1  A    between atoms: C_1  and  N_2
REMARK    2  A    between atoms: C_5  and  C_7
REMARK    3  A    between atoms: C_16  and  N_20
REMARK    4  A    between atoms: N_23  and  C_26
REMARK                            x       y       z     vdW  Elec       q    Type
REMARK                         _______ _______ _______ _____ _____    ______ ____
ROOT
ATOM      1  C   UNL     1      -0.004   1.460   0.007  0.00  0.00    +0.172 C 
ATOM      2  N   UNL     1       0.017  -0.005   0.000  0.00  0.00    -0.270 N 
ATOM      3  C   UNL     1       0.034  -0.769  -1.104  0.00  0.00    +0.043 A 
ATOM      4  C   UNL     1       0.049  -2.062  -0.697  0.00  0.00    +0.007 A 
ATOM      5  C   UNL     1       0.041  -2.025   0.708  0.00  0.00    +0.151 A 
ATOM      6  N   UNL     1       0.027  -0.749   1.052  0.00  0.00    -0.166 NA
ATOM      7  C   UNL     1       0.066  -3.249  -1.621  0.00  0.00    +0.058 C 
ATOM      8  C   UNL     1      -0.342  -2.774  -3.022  0.00  0.00    +0.061 C 
ATOM      9  C   UNL     1       0.481  -1.540  -3.403  0.00  0.00    +0.025 C 
ATOM     10  C   UNL     1       0.041  -0.344  -2.550  0.00  0.00    +0.057 C 
ENDROOT
BRANCH   5  11
ATOM     11  C   UNL     1       0.053  -3.185   1.621  0.00  0.00    +0.267 C 
ATOM     12  O   UNL     1      -0.034  -4.312   1.173  0.00  0.00    -0.268 OA
ATOM     13  N   UNL     1       0.160  -2.995   2.951  0.00  0.00    -0.295 N 
ATOM     14  C   UNL     1       0.138  -1.635   3.491  0.00  0.00    +0.119 C 
ATOM     15  C   UNL     1      -1.123  -1.442   4.342  0.00  0.00    +0.088 C 
ATOM     16  S   UNL     1      -1.137  -2.703   5.652  0.00  0.00    -0.158 S 
ATOM     17  C   UNL     1      -0.946  -4.259   4.731  0.00  0.00    +0.088 C 
ATOM     18  C   UNL     1       0.290  -4.151   3.839  0.00  0.00    +0.119 C 
ENDBRANCH   5  11
BRANCH   8  19
ATOM     19  N   UNL     1      -0.093  -3.847  -3.994  0.00  0.00    -0.303 NA
ATOM     20  C   UNL     1       1.334  -4.196  -4.039  0.00  0.00    +0.066 C 
ATOM     21  C   UNL     1       1.542  -5.355  -5.017  0.00  0.00    -0.063 C 
ATOM     22  N   UNL     1       1.075  -4.959  -6.352  0.00  0.00    +0.384 N 
ATOM     23  C   UNL     1      -0.357  -4.637  -6.296  0.00  0.00    -0.063 C 
ATOM     24  C   UNL     1      -0.581  -3.472  -5.329  0.00  0.00    +0.066 C 
ATOM     25  H   UNL     1       1.590  -4.149  -6.662  0.00  0.00    -0.081 HD
BRANCH  22  26
ATOM     26  C   UNL     1       1.291  -6.065  -7.294  0.00  0.00    -0.062 C 
ATOM     27  C   UNL     1       2.782  -6.400  -7.354  0.00  0.00    -0.024 C 
ATOM     28  C   UNL     1       3.008  -7.552  -8.335  0.00  0.00    +0.005 C 
ATOM     29  C   UNL     1       2.521  -7.140  -9.726  0.00  0.00    -0.010 C 
ATOM     30  C   UNL     1       3.301  -5.910 -10.196  0.00  0.00    +0.007 C 
ATOM     31  C   UNL     1       3.076  -4.758  -9.214  0.00  0.00    -0.010 C 
ATOM     32  C   UNL     1       3.562  -5.170  -7.824  0.00  0.00    +0.005 C 
ATOM     33  C   UNL     1       1.584  -4.423  -9.154  0.00  0.00    +0.005 C 
ATOM     34  C   UNL     1       0.804  -5.653  -8.685  0.00  0.00    -0.024 C 
ATOM     35  C   UNL     1       1.029  -6.805  -9.666  0.00  0.00    +0.005 C 
ENDBRANCH  22  26
ENDBRANCH   8  19
TORSDOF 3
