REMARK  Name = ZINC63640256
REMARK  10 active torsions:
REMARK  status: ('A' for Active; 'I' for Inactive)
REMARK    1  A    between atoms: C_1  and  C_2
REMARK    2  A    between atoms: C_2  and  C_3
REMARK    3  A    between atoms: C_3  and  S_4
REMARK    4  A    between atoms: S_4  and  N_7
REMARK    5  A    between atoms: N_7  and  C_8
REMARK    6  A    between atoms: C_11  and  N_14
REMARK    7  A    between atoms: C_15  and  C_17
REMARK    8  A    between atoms: C_17  and  C_18
REMARK    9  A    between atoms: C_18  and  C_24
REMARK   10  A    between atoms: C_24  and  C_25
REMARK                            x       y       z     vdW  Elec       q    Type
REMARK                         _______ _______ _______ _____ _____    ______ ____
ROOT
ATOM      1  N   UNL     1       2.627  -7.598  -4.151  0.00  0.00    -0.285 N 
ATOM      2  C   UNL     1       3.073  -8.124  -5.309  0.00  0.00    +0.218 C 
ATOM      3  O   UNL     1       3.450  -7.395  -6.202  0.00  0.00    -0.275 OA
ATOM      4  H   UNL     1       2.350  -8.181  -3.428  0.00  0.00    +0.155 HD
ENDROOT
BRANCH   1   8
ATOM      5  C   UNL     1       2.443  -3.458  -3.678  0.00  0.00    +0.074 A 
ATOM      6  C   UNL     1       1.462  -4.265  -3.118  0.00  0.00    +0.028 A 
ATOM      7  C   UNL     1       1.523  -5.636  -3.275  0.00  0.00    +0.025 A 
ATOM      8  C   UNL     1       2.566  -6.206  -3.992  0.00  0.00    +0.033 A 
ATOM      9  C   UNL     1       3.547  -5.399  -4.552  0.00  0.00    +0.025 A 
ATOM     10  C   UNL     1       3.483  -4.029  -4.401  0.00  0.00    +0.028 A 
BRANCH   5  11
ATOM     11  N   UNL     1       2.382  -2.069  -3.519  0.00  0.00    -0.103 NA
BRANCH  11  12
ATOM     12  S   UNL     1       1.143  -1.389  -2.657  0.00  0.00    +0.062 S 
ATOM     13  O   UNL     1       1.311  -1.876  -1.333  0.00  0.00    -0.154 OA
ATOM     14  O   UNL     1      -0.029  -1.699  -3.399  0.00  0.00    -0.154 OA
BRANCH  12  15
ATOM     15  C   UNL     1       1.462   0.396  -2.711  0.00  0.00    +0.190 C 
BRANCH  15  17
ATOM     16  C   UNL     1       0.637   2.639  -1.983  0.00  0.00    +0.005 C 
ATOM     17  C   UNL     1       0.367   1.134  -1.938  0.00  0.00    +0.021 C 
ENDBRANCH  15  17
ENDBRANCH  12  15
ENDBRANCH  11  12
ENDBRANCH   5  11
ENDBRANCH   1   8
BRANCH   2  18
ATOM     18  C   UNL     1       3.102  -9.620  -5.494  0.00  0.00    +0.103 C 
BRANCH  18  19
ATOM     19  C   UNL     1       3.764  -9.955  -6.832  0.00  0.00    -0.011 C 
ATOM     20  C   UNL     1       3.779 -11.472  -7.028  0.00  0.00    +0.008 C 
ATOM     21  C   UNL     1       4.567 -12.126  -5.891  0.00  0.00    +0.001 C 
ATOM     22  C   UNL     1       6.003 -11.597  -5.896  0.00  0.00    +0.000 C 
ATOM     23  C   UNL     1       5.988 -10.079  -5.700  0.00  0.00    +0.001 C 
ATOM     24  C   UNL     1       5.200  -9.426  -6.837  0.00  0.00    +0.008 C 
BRANCH  19  25
ATOM     25  C   UNL     1       2.976  -9.302  -7.969  0.00  0.00    +0.132 C 
BRANCH  25  26
ATOM     26  C   UNL     1       1.597  -9.905  -8.036  0.00  0.00    +0.357 C 
ATOM     27  O   UNL     1       1.249 -10.723  -7.202  0.00  0.00    -0.246 OA
ATOM     28  O   UNL     1       0.830  -9.576  -8.925  0.00  0.00    -0.246 OA
ENDBRANCH  25  26
ENDBRANCH  19  25
ENDBRANCH  18  19
ENDBRANCH   2  18
TORSDOF 9
