REMARK  Name = ZINC35248940
REMARK  7 active torsions:
REMARK  status: ('A' for Active; 'I' for Inactive)
REMARK    1  A    between atoms: C_1  and  N_2
REMARK    2  A    between atoms: C_12  and  S_14
REMARK    3  A    between atoms: S_14  and  C_15
REMARK    4  A    between atoms: C_15  and  C_16
REMARK    5  A    between atoms: C_19  and  C_22
REMARK    6  A    between atoms: N_24  and  C_25
REMARK    7  A    between atoms: C_25  and  C_26
REMARK                            x       y       z     vdW  Elec       q    Type
REMARK                         _______ _______ _______ _____ _____    ______ ____
ROOT
ATOM      1  C   UNL     1       5.942  -7.499   3.345  0.00  0.00    -0.037 A 
ATOM      2  C   UNL     1       7.078  -6.945   3.910  0.00  0.00    +0.005 A 
ATOM      3  C   UNL     1       7.638  -7.511   5.037  0.00  0.00    +0.013 A 
ATOM      4  C   UNL     1       7.056  -8.644   5.607  0.00  0.00    +0.037 A 
ATOM      5  C   UNL     1       5.911  -9.198   5.033  0.00  0.00    +0.013 A 
ATOM      6  C   UNL     1       5.358  -8.619   3.909  0.00  0.00    +0.005 A 
ENDROOT
BRANCH   4   7
ATOM      7  C   UNL     1       7.651  -9.256   6.814  0.00  0.00    +0.244 C 
ATOM      8  O   UNL     1       8.649  -8.772   7.312  0.00  0.00    -0.270 OA
ATOM      9  N   UNL     1       7.088 -10.351   7.363  0.00  0.00    -0.307 N 
ATOM     10  H   UNL     1       6.291 -10.737   6.966  0.00  0.00    +0.149 HD
BRANCH   9  11
ATOM     11  C   UNL     1       7.677 -10.957   8.559  0.00  0.00    +0.139 C 
BRANCH  11  12
ATOM     12  C   UNL     1       6.863 -12.157   8.967  0.00  0.00    -0.030 A 
ATOM     13  C   UNL     1       5.802 -12.008   9.841  0.00  0.00    +0.008 A 
ATOM     14  C   UNL     1       5.054 -13.108  10.216  0.00  0.00    +0.038 A 
ATOM     15  C   UNL     1       5.368 -14.361   9.715  0.00  0.00    +0.123 A 
ATOM     16  C   UNL     1       6.431 -14.509   8.840  0.00  0.00    +0.038 A 
ATOM     17  C   UNL     1       7.174 -13.406   8.463  0.00  0.00    +0.008 A 
ATOM     18  F   UNL     1       4.638 -15.437  10.081  0.00  0.00    -0.205 F 
ENDBRANCH  11  12
ENDBRANCH   9  11
ENDBRANCH   4   7
BRANCH   1  19
ATOM     19  C   UNL     1       5.336  -6.876   2.114  0.00  0.00    +0.112 C 
BRANCH  19  20
ATOM     20  S   UNL     1       4.121  -5.622   2.607  0.00  0.00    -0.081 S 
BRANCH  20  32
ATOM     21  C   UNL     1      -0.036   1.440   0.364  0.00  0.00    -0.096 C 
ATOM     22  N   UNL     1      -0.007  -0.016   0.174  0.00  0.00    +0.380 N 
ATOM     23  C   UNL     1       0.826  -0.339  -0.991  0.00  0.00    -0.060 C 
ATOM     24  C   UNL     1       0.765  -1.846  -1.259  0.00  0.00    +0.088 C 
ATOM     25  N   UNL     1       1.144  -2.555  -0.027  0.00  0.00    -0.319 N 
ATOM     26  C   UNL     1       0.471  -2.176   1.225  0.00  0.00    +0.088 C 
ATOM     27  C   UNL     1       0.546  -0.653   1.376  0.00  0.00    -0.060 C 
ATOM     28  C   UNL     1       2.108  -3.550  -0.045  0.00  0.00    +0.127 A 
ATOM     29  C   UNL     1       2.589  -4.048  -1.258  0.00  0.00    +0.083 A 
ATOM     30  C   UNL     1       3.551  -5.040  -1.228  0.00  0.00    +0.135 A 
ATOM     31  N   UNL     1       3.986  -5.487  -0.058  0.00  0.00    -0.210 NA
ATOM     32  C   UNL     1       3.511  -4.995   1.078  0.00  0.00    +0.192 A 
ATOM     33  N   UNL     1       2.592  -4.040   1.091  0.00  0.00    -0.207 NA
ATOM     34 CL   UNL     1       4.183  -5.695  -2.707  0.00  0.00    -0.062 Cl
ATOM     35  H   UNL     1      -0.945  -0.352   0.018  0.00  0.00    -0.082 HD
ENDBRANCH  20  32
ENDBRANCH  19  20
ENDBRANCH   1  19
TORSDOF 6
