REMARK  Name = ZINC06552112
REMARK  2 active torsions:
REMARK  status: ('A' for Active; 'I' for Inactive)
REMARK    1  A    between atoms: C_1  and  N_2
REMARK    2  A    between atoms: C_10  and  C_12
REMARK                            x       y       z     vdW  Elec       q    Type
REMARK                         _______ _______ _______ _____ _____    ______ ____
ROOT
ATOM      1  C   UNL     1      -5.699  -0.201  -3.314  0.00  0.00    +0.127 C 
ATOM      2  N   UNL     1      -4.760   0.259  -2.288  0.00  0.00    -0.332 N 
ATOM      3  C   UNL     1      -5.189   0.428  -0.984  0.00  0.00    +0.131 A 
ATOM      4  C   UNL     1      -4.348   0.987   0.022  0.00  0.00    +0.051 A 
ATOM      5  C   UNL     1      -2.978   1.446  -0.137  0.00  0.00    -0.025 A 
ATOM      6  C   UNL     1      -2.372   1.943   0.966  0.00  0.00    -0.004 A 
ATOM      7  S   UNL     1      -3.583   1.826   2.259  0.00  0.00    -0.073 S 
ATOM      8  C   UNL     1      -4.898   1.112   1.324  0.00  0.00    +0.114 A 
ATOM      9  N   UNL     1      -6.123   0.742   1.632  0.00  0.00    -0.220 NA
ATOM     10  C   UNL     1      -6.861   0.225   0.646  0.00  0.00    +0.164 A 
ATOM     11  N   UNL     1      -6.411   0.080  -0.593  0.00  0.00    -0.212 NA
ATOM     12  C   UNL     1      -0.973   2.477   1.073  0.00  0.00    +0.043 C 
ATOM     13  C   UNL     1      -0.193   2.039  -0.175  0.00  0.00    +0.005 C 
ATOM     14  C   UNL     1      -1.040   2.337  -1.415  0.00  0.00    +0.005 C 
ATOM     15  C   UNL     1      -2.234   1.383  -1.469  0.00  0.00    +0.037 C 
ATOM     16  H   UNL     1      -3.838   0.446  -2.524  0.00  0.00    +0.147 HD
ENDROOT
BRANCH  10  17
ATOM     17  C   UNL     1      -8.247  -0.205   0.951  0.00  0.00    +0.037 A 
ATOM     18  C   UNL     1      -8.763  -0.076   2.244  0.00  0.00    +0.014 A 
ATOM     19  C   UNL     1     -10.064  -0.487   2.475  0.00  0.00    +0.020 A 
ATOM     20  C   UNL     1     -10.801  -1.018   1.432  0.00  0.00    +0.111 A 
ATOM     21  N   UNL     1     -10.286  -1.132   0.224  0.00  0.00    -0.263 NA
ATOM     22  C   UNL     1      -9.054  -0.750  -0.046  0.00  0.00    +0.122 A 
ENDBRANCH  10  17
TORSDOF 1
