REMARK  Name = ZINC32971935
REMARK  13 active torsions:
REMARK  status: ('A' for Active; 'I' for Inactive)
REMARK    1  A    between atoms: C_1  and  C_2
REMARK    2  A    between atoms: C_2  and  N_3
REMARK    3  A    between atoms: C_4  and  C_34
REMARK    4  A    between atoms: C_5  and  C_9
REMARK    5  A    between atoms: C_6  and  C_8
REMARK    6  A    between atoms: C_9  and  N_10
REMARK    7  A    between atoms: N_10  and  C_11
REMARK    8  A    between atoms: N_12  and  C_13
REMARK    9  A    between atoms: C_18  and  C_19
REMARK   10  A    between atoms: N_21  and  C_22
REMARK   11  A    between atoms: C_22  and  C_24
REMARK   12  A    between atoms: C_27  and  N_30
REMARK   13  A    between atoms: C_31  and  C_33
REMARK                            x       y       z     vdW  Elec       q    Type
REMARK                         _______ _______ _______ _____ _____    ______ ____
ROOT
ATOM      1  C   UNL     1      -6.732  -0.807   2.250  0.00  0.00    +0.216 C 
ATOM      2  N   UNL     1      -6.740  -1.814   3.172  0.00  0.00    -0.326 N 
ATOM      3  N   UNL     1      -7.011   0.433   2.621  0.00  0.00    -0.141 NA
ATOM      4  H   UNL     1      -7.393  -1.809   3.890  0.00  0.00    +0.169 HD
ENDROOT
BRANCH   2   5
ATOM      5  C   UNL     1      -5.807  -2.852   3.083  0.00  0.00    +0.046 A 
ATOM      6  C   UNL     1      -4.532  -2.600   2.594  0.00  0.00    +0.026 A 
ATOM      7  C   UNL     1      -3.612  -3.627   2.507  0.00  0.00    +0.003 A 
ATOM      8  C   UNL     1      -3.959  -4.904   2.906  0.00  0.00    +0.020 A 
ATOM      9  C   UNL     1      -5.229  -5.159   3.393  0.00  0.00    +0.046 A 
ATOM     10  C   UNL     1      -6.152  -4.134   3.488  0.00  0.00    -0.009 A 
ATOM     11  C   UNL     1      -7.533  -4.410   4.025  0.00  0.00    +0.047 C 
ATOM     12 CL   UNL     1      -5.661  -6.764   3.893  0.00  0.00    -0.083 Cl
ENDBRANCH   2   5
BRANCH   3  13
ATOM     13  C   UNL     1      -7.367   0.690   3.887  0.00  0.00    +0.270 C 
ATOM     14  O   UNL     1      -7.325  -0.196   4.723  0.00  0.00    -0.268 OA
BRANCH  13  15
ATOM     15  C   UNL     1      -7.810   2.048   4.270  0.00  0.00    +0.039 A 
ATOM     16  C   UNL     1      -7.965   3.034   3.294  0.00  0.00    +0.015 A 
ATOM     17  C   UNL     1      -8.378   4.298   3.653  0.00  0.00    +0.024 A 
ATOM     18  C   UNL     1      -8.640   4.592   4.987  0.00  0.00    +0.033 A 
ATOM     19  C   UNL     1      -8.487   3.612   5.962  0.00  0.00    +0.024 A 
ATOM     20  C   UNL     1      -8.080   2.345   5.608  0.00  0.00    +0.015 A 
BRANCH  18  21
ATOM     21  N   UNL     1      -9.058   5.873   5.348  0.00  0.00    -0.286 N 
ATOM     22  C   UNL     1      -9.850   6.583   4.519  0.00  0.00    +0.214 C 
ATOM     23  O   UNL     1     -10.280   6.072   3.507  0.00  0.00    -0.276 OA
ATOM     24  C   UNL     1     -10.199   8.011   4.850  0.00  0.00    +0.109 C 
ATOM     25  H   UNL     1      -8.779   6.254   6.196  0.00  0.00    +0.155 HD
ENDBRANCH  18  21
ENDBRANCH  13  15
ENDBRANCH   3  13
BRANCH   1  26
ATOM     26  N   UNL     1      -6.437  -1.079   0.946  0.00  0.00    -0.247 NA
BRANCH  26  27
ATOM     27  C   UNL     1      -6.616  -2.435   0.422  0.00  0.00    +0.184 C 
BRANCH  27  30
ATOM     28  N   UNL     1      -5.366  -2.569  -3.001  0.00  0.00    -0.268 N 
ATOM     29  C   UNL     1      -5.171  -2.647  -1.668  0.00  0.00    +0.041 A 
ATOM     30  C   UNL     1      -6.363  -2.437  -1.064  0.00  0.00    +0.017 A 
ATOM     31  C   UNL     1      -7.320  -2.222  -2.062  0.00  0.00    +0.065 A 
ATOM     32  N   UNL     1      -6.722  -2.295  -3.223  0.00  0.00    -0.176 NA
ATOM     33  C   UNL     1      -8.784  -1.948  -1.837  0.00  0.00    +0.068 C 
ATOM     34  C   UNL     1      -3.860  -2.921  -0.977  0.00  0.00    +0.065 C 
BRANCH  28  36
ATOM     35  C   UNL     1      -3.706  -1.377  -4.344  0.00  0.00    +0.029 C 
ATOM     36  C   UNL     1      -4.340  -2.734  -4.034  0.00  0.00    +0.140 C 
ENDBRANCH  28  36
ENDBRANCH  27  30
ENDBRANCH  26  27
ENDBRANCH   1  26
TORSDOF 8
