REMARK  Name = ZINC12940261
REMARK  2 active torsions:
REMARK  status: ('A' for Active; 'I' for Inactive)
REMARK    1  A    between atoms: C_8  and  C_11
REMARK    2  A    between atoms: N_13  and  C_14
REMARK                            x       y       z     vdW  Elec       q    Type
REMARK                         _______ _______ _______ _____ _____    ______ ____
ROOT
ATOM      1  C   UNL     1       3.482   7.016  -1.343  0.00  0.00    +0.258 C 
ATOM      2  O   UNL     1       4.117   7.855  -1.946  0.00  0.00    -0.271 OA
ATOM      3  N   UNL     1       3.270   7.155  -0.019  0.00  0.00    -0.282 N 
ATOM      4  H   UNL     1       2.699   6.526   0.450  0.00  0.00    +0.155 HD
ENDROOT
BRANCH   3   5
ATOM      5  C   UNL     1       3.874   8.209   0.680  0.00  0.00    +0.037 A 
ATOM      6  C   UNL     1       3.217   8.795   1.754  0.00  0.00    +0.027 A 
ATOM      7  C   UNL     1       3.811   9.835   2.446  0.00  0.00    +0.051 A 
ATOM      8  C   UNL     1       5.061  10.293   2.068  0.00  0.00    +0.167 A 
ATOM      9  C   UNL     1       5.723   9.705   0.991  0.00  0.00    +0.169 A 
ATOM     10  C   UNL     1       5.131   8.662   0.303  0.00  0.00    +0.073 A 
ATOM     11  O   UNL     1       6.929  10.337   0.831  0.00  0.00    -0.447 OA
ATOM     12  C   UNL     1       7.171  10.940   2.110  0.00  0.00    +0.254 C 
ATOM     13  O   UNL     1       5.859  11.289   2.572  0.00  0.00    -0.448 OA
ATOM     14  C   UNL     1       8.062  12.180   1.981  0.00  0.00    +0.093 C 
ATOM     15  C   UNL     1       8.914  12.163   3.278  0.00  0.00    +0.008 C 
ATOM     16  C   UNL     1       9.179  10.652   3.498  0.00  0.00    +0.008 C 
ATOM     17  C   UNL     1       7.862   9.969   3.066  0.00  0.00    +0.093 C 
ENDBRANCH   3   5
BRANCH   1  25
ATOM     18  C   UNL     1       0.051   4.319  -5.435  0.00  0.00    +0.000 A 
ATOM     19  C   UNL     1       1.259   4.289  -6.107  0.00  0.00    +0.004 A 
ATOM     20  C   UNL     1       2.402   4.778  -5.509  0.00  0.00    +0.046 A 
ATOM     21  C   UNL     1       2.351   5.296  -4.217  0.00  0.00    +0.125 A 
ATOM     22  C   UNL     1       1.134   5.310  -3.548  0.00  0.00    -0.002 A 
ATOM     23  C   UNL     1      -0.007   4.830  -4.150  0.00  0.00    +0.007 A 
ATOM     24  C   UNL     1       1.389   5.901  -2.175  0.00  0.00    +0.093 C 
ATOM     25  C   UNL     1       2.931   5.819  -2.072  0.00  0.00    +0.263 C 
ATOM     26  O   UNL     1       3.342   5.828  -3.450  0.00  0.00    -0.479 OA
ENDBRANCH   1  25
TORSDOF 2
