REMARK  Name = ZINC18199372
REMARK  1 active torsions:
REMARK  status: ('A' for Active; 'I' for Inactive)
REMARK    1  A    between atoms: C_6  and  C_7
REMARK                            x       y       z     vdW  Elec       q    Type
REMARK                         _______ _______ _______ _____ _____    ______ ____
ROOT
ATOM      1  C   UNL     1       2.490   1.047  -0.016  0.00  0.00    +0.086 C 
ATOM      2  C   UNL     1       3.254   1.432  -1.250  0.00  0.00    -0.011 A 
ATOM      3  C   UNL     1       2.918   0.872  -2.470  0.00  0.00    +0.056 A 
ATOM      4  C   UNL     1       3.616   1.221  -3.614  0.00  0.00    +0.167 A 
ATOM      5  C   UNL     1       4.660   2.141  -3.538  0.00  0.00    +0.168 A 
ATOM      6  C   UNL     1       4.997   2.702  -2.319  0.00  0.00    +0.073 A 
ATOM      7  C   UNL     1       4.295   2.346  -1.175  0.00  0.00    +0.039 A 
ATOM      8  N   UNL     1       4.636   2.902   0.060  0.00  0.00    -0.317 N 
ATOM      9  C   UNL     1       4.267   2.284   1.220  0.00  0.00    +0.016 C 
ATOM     10  C   UNL     1       3.259   1.384   1.236  0.00  0.00    +0.024 C 
ATOM     11  C   UNL     1       2.894   0.730   2.424  0.00  0.00    +0.162 C 
ATOM     12  O   UNL     1       1.981  -0.072   2.405  0.00  0.00    -0.292 OA
ATOM     13  C   UNL     1       3.609   1.001   3.718  0.00  0.00    +0.080 C 
ATOM     14  C   UNL     1       5.051   1.422   3.414  0.00  0.00    +0.014 C 
ATOM     15  C   UNL     1       5.014   2.636   2.484  0.00  0.00    +0.051 C 
ATOM     16  O   UNL     1       5.181   2.314  -4.788  0.00  0.00    -0.453 OA
ATOM     17  C   UNL     1       4.186   1.802  -5.694  0.00  0.00    +0.466 C 
ATOM     18  O   UNL     1       3.485   0.817  -4.912  0.00  0.00    -0.453 OA
ATOM     19  H   UNL     1       5.137   3.732   0.094  0.00  0.00    +0.152 HD
ENDROOT
BRANCH   1  25
ATOM     20  C   UNL     1       1.158   3.165   0.007  0.00  0.00    +0.007 A 
ATOM     21  C   UNL     1      -0.047   3.842   0.022  0.00  0.00    +0.040 A 
ATOM     22  C   UNL     1      -1.237   3.136   0.030  0.00  0.00    +0.137 A 
ATOM     23  C   UNL     1      -1.219   1.751   0.017  0.00  0.00    +0.053 A 
ATOM     24  C   UNL     1      -0.013   1.076   0.008  0.00  0.00    +0.022 A 
ATOM     25  C   UNL     1       1.175   1.783   0.000  0.00  0.00    -0.034 A 
ATOM     26 BR   UNL     1      -2.844   0.783   0.020  0.00  0.00    -0.047 Br
ATOM     27  F   UNL     1      -2.415   3.797   0.045  0.00  0.00    -0.204 F 
ENDBRANCH   1  25
TORSDOF 1
