REMARK  Name = ZINC13549047
REMARK  5 active torsions:
REMARK  status: ('A' for Active; 'I' for Inactive)
REMARK    1  A    between atoms: C_1  and  C_2
REMARK    2  A    between atoms: N_4  and  C_26
REMARK    3  A    between atoms: C_8  and  N_9
REMARK    4  A    between atoms: N_9  and  C_10
REMARK    5  A    between atoms: N_22  and  C_25
REMARK                            x       y       z     vdW  Elec       q    Type
REMARK                         _______ _______ _______ _____ _____    ______ ____
ROOT
ATOM      1  N   UNL     1       0.055  -1.439   3.485  0.00  0.00    -0.319 N 
ATOM      2  H   UNL     1      -0.018  -2.378   3.253  0.00  0.00    +0.152 HD
ENDROOT
BRANCH   1   3
ATOM      3  C   UNL     1       0.168  -1.060   4.814  0.00  0.00    +0.039 A 
ATOM      4  C   UNL     1       0.154   0.282   5.158  0.00  0.00    +0.024 A 
ATOM      5  C   UNL     1       0.266   0.688   6.476  0.00  0.00    +0.015 A 
ATOM      6  C   UNL     1       0.395  -0.253   7.493  0.00  0.00    +0.046 A 
ATOM      7  C   UNL     1       0.411  -1.628   7.166  0.00  0.00    +0.008 A 
ATOM      8  C   UNL     1       0.292  -2.042   5.824  0.00  0.00    +0.005 A 
ATOM      9  C   UNL     1       0.305  -3.414   5.530  0.00  0.00    +0.010 A 
ATOM     10  C   UNL     1       0.428  -4.333   6.547  0.00  0.00    +0.001 A 
ATOM     11  C   UNL     1       0.540  -3.935   7.873  0.00  0.00    +0.014 A 
ATOM     12  C   UNL     1       0.542  -2.586   8.197  0.00  0.00    +0.046 A 
ATOM     13  C   UNL     1       0.657  -2.116   9.586  0.00  0.00    +0.253 C 
ATOM     14  O   UNL     1       0.771  -2.922  10.489  0.00  0.00    -0.270 OA
ATOM     15  N   UNL     1       0.639  -0.798   9.862  0.00  0.00    -0.237 N 
ATOM     16  C   UNL     1       0.515   0.138   8.902  0.00  0.00    +0.253 C 
ATOM     17  O   UNL     1       0.504   1.316   9.206  0.00  0.00    -0.270 OA
ATOM     18  C   UNL     1       0.757  -0.368  11.257  0.00  0.00    +0.142 C 
ENDBRANCH   1   3
BRANCH   1  26
ATOM     19  C   UNL     1       0.028   1.500   0.007  0.00  0.00    +0.068 C 
ATOM     20  C   UNL     1       0.036  -0.007   0.001  0.00  0.00    +0.070 C 
ATOM     21  N   UNL     1       0.041  -0.769  -1.050  0.00  0.00    -0.176 NA
ATOM     22  N   UNL     1       0.047  -2.119  -0.698  0.00  0.00    -0.156 N 
ATOM     23  C   UNL     1       0.045  -2.248   0.644  0.00  0.00    +0.273 C 
ATOM     24  O   UNL     1       0.050  -3.288   1.281  0.00  0.00    -0.268 OA
ATOM     25  C   UNL     1       0.044  -0.881   1.183  0.00  0.00    +0.075 C 
ATOM     26  C   UNL     1       0.047  -0.500   2.513  0.00  0.00    +0.087 C 
BRANCH  22  27
ATOM     27  C   UNL     1       0.054  -3.184  -1.607  0.00  0.00    +0.060 A 
ATOM     28  C   UNL     1       0.053  -4.494  -1.144  0.00  0.00    +0.026 A 
ATOM     29  C   UNL     1       0.060  -5.543  -2.042  0.00  0.00    +0.017 A 
ATOM     30  C   UNL     1       0.067  -5.290  -3.402  0.00  0.00    +0.018 A 
ATOM     31  C   UNL     1       0.068  -3.987  -3.867  0.00  0.00    +0.017 A 
ATOM     32  C   UNL     1       0.055  -2.934  -2.973  0.00  0.00    +0.026 A 
ATOM     33 BR   UNL     1       0.076  -6.729  -4.629  0.00  0.00    -0.050 Br
ENDBRANCH  22  27
ENDBRANCH   1  26
TORSDOF 3
