REMARK  Name = ZINC00754376
REMARK  3 active torsions:
REMARK  status: ('A' for Active; 'I' for Inactive)
REMARK    1  A    between atoms: N_21  and  C_24
REMARK    2  A    between atoms: C_27  and  S_30
REMARK    3  A    between atoms: S_30  and  N_33
REMARK                            x       y       z     vdW  Elec       q    Type
REMARK                         _______ _______ _______ _____ _____    ______ ____
ROOT
ATOM      1  C   UNL     1       1.129   3.189   0.008  0.00  0.00    +0.000 A 
ATOM      2  C   UNL     1       1.172   1.807   0.001  0.00  0.00    +0.000 A 
ATOM      3  C   UNL     1      -0.013   1.076   0.008  0.00  0.00    +0.004 A 
ATOM      4  C   UNL     1      -1.186   1.756   0.017  0.00  0.00    -0.035 A 
ATOM      5  C   UNL     1      -1.250   3.146  -0.028  0.00  0.00    -0.035 A 
ATOM      6  C   UNL     1      -0.080   3.867  -0.007  0.00  0.00    +0.004 A 
ATOM      7  C   UNL     1      -2.614   3.823  -0.191  0.00  0.00    +0.062 C 
ATOM      8  C   UNL     1      -3.202   2.972  -1.366  0.00  0.00    -0.035 A 
ATOM      9  C   UNL     1      -3.683   3.503  -2.521  0.00  0.00    +0.004 A 
ATOM     10  C   UNL     1      -4.275   2.647  -3.445  0.00  0.00    +0.000 A 
ATOM     11  C   UNL     1      -4.359   1.293  -3.179  0.00  0.00    +0.000 A 
ATOM     12  C   UNL     1      -3.837   0.763  -2.008  0.00  0.00    +0.004 A 
ATOM     13  C   UNL     1      -3.236   1.605  -1.106  0.00  0.00    -0.035 A 
ATOM     14  C   UNL     1      -2.583   1.113   0.180  0.00  0.00    +0.062 C 
ATOM     15  C   UNL     1      -3.013   1.938   1.357  0.00  0.00    +0.100 C 
ATOM     16  C   UNL     1      -3.587   3.282   0.860  0.00  0.00    +0.100 C 
ATOM     17  C   UNL     1      -3.816   3.908   2.189  0.00  0.00    +0.231 C 
ATOM     18  O   UNL     1      -3.675   5.072   2.497  0.00  0.00    -0.274 OA
ATOM     19  N   UNL     1      -4.223   2.867   2.988  0.00  0.00    -0.210 N 
ATOM     20  C   UNL     1      -3.963   1.632   2.441  0.00  0.00    +0.231 C 
ATOM     21  O   UNL     1      -4.407   0.556   2.778  0.00  0.00    -0.274 OA
ENDROOT
BRANCH  19  22
ATOM     22  C   UNL     1      -4.842   3.046   4.234  0.00  0.00    +0.044 A 
ATOM     23  C   UNL     1      -5.066   4.326   4.722  0.00  0.00    +0.026 A 
ATOM     24  C   UNL     1      -5.680   4.499   5.947  0.00  0.00    +0.030 A 
ATOM     25  C   UNL     1      -6.061   3.398   6.692  0.00  0.00    +0.105 A 
ATOM     26  C   UNL     1      -5.835   2.122   6.211  0.00  0.00    +0.030 A 
ATOM     27  C   UNL     1      -5.226   1.943   4.984  0.00  0.00    +0.026 A 
BRANCH  25  28
ATOM     28  S   UNL     1      -6.837   3.623   8.258  0.00  0.00    +0.056 S 
ATOM     29  O   UNL     1      -7.429   4.915   8.236  0.00  0.00    -0.153 OA
ATOM     30  O   UNL     1      -7.590   2.444   8.511  0.00  0.00    -0.153 OA
BRANCH  28  31
ATOM     31  N   UNL     1      -5.636   3.672   9.397  0.00  0.00    -0.204 NA
ATOM     32  H   UNL     1      -4.709   3.581   9.128  0.00  0.00    +0.144 HD
ATOM     33  H   UNL     1      -5.860   3.790  10.333  0.00  0.00    +0.144 HD
ENDBRANCH  28  31
ENDBRANCH  25  28
ENDBRANCH  19  22
TORSDOF 3
