REMARK  Name = ZINC10327737
REMARK  5 active torsions:
REMARK  status: ('A' for Active; 'I' for Inactive)
REMARK    1  A    between atoms: C_1  and  C_2
REMARK    2  A    between atoms: N_9  and  C_10
REMARK    3  A    between atoms: N_17  and  C_32
REMARK    4  A    between atoms: N_20  and  C_23
REMARK    5  A    between atoms: C_23  and  C_24
REMARK                            x       y       z     vdW  Elec       q    Type
REMARK                         _______ _______ _______ _____ _____    ______ ____
ROOT
ATOM      1  C   UNL     1      -1.827  -4.290   6.333  0.00  0.00    +0.065 C 
ATOM      2  C   UNL     1      -2.321  -3.016   5.698  0.00  0.00    +0.041 A 
ATOM      3  C   UNL     1      -2.055  -2.607   4.461  0.00  0.00    +0.116 A 
ATOM      4  N   UNL     1      -2.689  -1.394   4.256  0.00  0.00    -0.277 N 
ATOM      5  C   UNL     1      -2.918  -0.374   3.345  0.00  0.00    +0.157 A 
ATOM      6  C   UNL     1      -3.732   0.554   3.992  0.00  0.00    +0.170 A 
ATOM      7  N   UNL     1      -3.964   0.096   5.219  0.00  0.00    -0.193 NA
ATOM      8  C   UNL     1      -3.348  -1.065   5.392  0.00  0.00    +0.223 A 
ATOM      9  N   UNL     1      -3.128  -2.068   6.301  0.00  0.00    -0.281 N 
ATOM     10  N   UNL     1      -4.123   1.693   3.304  0.00  0.00    -0.279 N 
ATOM     11  C   UNL     1      -3.717   1.885   2.034  0.00  0.00    +0.334 A 
ATOM     12  O   UNL     1      -4.070   2.889   1.445  0.00  0.00    -0.246 OA
ATOM     13  N   UNL     1      -2.933   0.996   1.403  0.00  0.00    -0.255 N 
ATOM     14  C   UNL     1      -2.524  -0.133   2.018  0.00  0.00    +0.283 A 
ATOM     15  O   UNL     1      -1.817  -0.933   1.431  0.00  0.00    -0.265 OA
ATOM     16  C   UNL     1      -4.979   2.686   3.958  0.00  0.00    +0.155 C 
ENDROOT
BRANCH   9  17
ATOM     17  C   UNL     1      -3.631  -2.123   7.607  0.00  0.00    +0.068 A 
ATOM     18  C   UNL     1      -2.905  -1.574   8.656  0.00  0.00    +0.028 A 
ATOM     19  C   UNL     1      -3.403  -1.630   9.943  0.00  0.00    +0.002 A 
ATOM     20  C   UNL     1      -4.624  -2.232  10.188  0.00  0.00    +0.002 A 
ATOM     21  C   UNL     1      -5.350  -2.779   9.147  0.00  0.00    +0.022 A 
ATOM     22  C   UNL     1      -4.860  -2.722   7.856  0.00  0.00    +0.065 A 
ATOM     23 CL   UNL     1      -5.775  -3.403   6.547  0.00  0.00    -0.081 Cl
ENDBRANCH   9  17
BRANCH  13  24
ATOM     24  C   UNL     1      -2.520   1.253   0.021  0.00  0.00    +0.169 C 
BRANCH  24  25
ATOM     25  C   UNL     1      -1.224   2.023   0.019  0.00  0.00    +0.026 A 
ATOM     26  C   UNL     1      -0.016   1.347   0.009  0.00  0.00    +0.130 A 
ATOM     27  C   UNL     1       1.173   2.056   0.002  0.00  0.00    +0.039 A 
ATOM     28  C   UNL     1       1.154   3.438   0.009  0.00  0.00    +0.004 A 
ATOM     29  C   UNL     1      -0.052   4.113   0.024  0.00  0.00    +0.020 A 
ATOM     30  C   UNL     1      -1.242   3.406   0.031  0.00  0.00    +0.049 A 
ATOM     31 CL   UNL     1      -2.756   4.255   0.049  0.00  0.00    -0.083 Cl
ATOM     32  F   UNL     1       0.002  -0.004   0.002  0.00  0.00    -0.205 F 
ENDBRANCH  24  25
ENDBRANCH  13  24
TORSDOF 3
