REMARK  Name = ZINC63351312
REMARK  4 active torsions:
REMARK  status: ('A' for Active; 'I' for Inactive)
REMARK    1  A    between atoms: C_1  and  C_2
REMARK    2  A    between atoms: C_2  and  C_32
REMARK    3  A    between atoms: N_20  and  N_23
REMARK    4  A    between atoms: C_24  and  C_25
REMARK                            x       y       z     vdW  Elec       q    Type
REMARK                         _______ _______ _______ _____ _____    ______ ____
ROOT
ATOM      1  C   UNL     1       0.029   1.649  -0.348  0.00  0.00    +0.034 C 
ATOM      2  C   UNL     1      -0.010   0.128  -0.196  0.00  0.00    +0.057 C 
ATOM      3  C   UNL     1       0.647  -0.511  -1.419  0.00  0.00    +0.129 C 
ATOM      4  C   UNL     1       2.150  -0.319  -1.235  0.00  0.00    -0.034 C 
ATOM      5  C   UNL     1       2.571   0.410  -2.259  0.00  0.00    -0.001 A 
ATOM      6  C   UNL     1       3.911   0.889  -2.636  0.00  0.00    +0.010 A 
ATOM      7  C   UNL     1       3.986   1.632  -3.771  0.00  0.00    +0.001 A 
ATOM      8  C   UNL     1       2.874   1.943  -4.561  0.00  0.00    +0.002 A 
ATOM      9  C   UNL     1       1.606   1.545  -4.290  0.00  0.00    +0.026 A 
ATOM     10  C   UNL     1       1.401   0.754  -3.122  0.00  0.00    +0.043 A 
ATOM     11  N   UNL     1       0.293   0.229  -2.638  0.00  0.00    -0.375 N 
ATOM     12  C   UNL     1       2.868  -0.888  -0.042  0.00  0.00    +0.065 C 
ATOM     13  C   UNL     1       2.030  -0.699   1.197  0.00  0.00    +0.168 C 
ATOM     14  N   UNL     1       0.666  -0.242   1.039  0.00  0.00    -0.281 N 
ATOM     15  C   UNL     1      -0.047  -0.102   2.205  0.00  0.00    +0.236 C 
ATOM     16  O   UNL     1      -1.219   0.210   2.200  0.00  0.00    -0.274 OA
ATOM     17  C   UNL     1       0.700  -0.353   3.498  0.00  0.00    +0.230 C 
ATOM     18  N   UNL     1       2.017   0.305   3.413  0.00  0.00    -0.183 N 
ATOM     19  C   UNL     1       2.720   0.123   2.256  0.00  0.00    +0.256 C 
ATOM     20  O   UNL     1       3.827   0.592   2.092  0.00  0.00    -0.272 OA
ATOM     21  C   UNL     1      -1.468  -0.328  -0.121  0.00  0.00    +0.034 C 
ATOM     22  H   UNL     1      -0.599   0.312  -3.010  0.00  0.00    +0.160 HD
ENDROOT
BRANCH  18  23
ATOM     23  N   UNL     1       2.522   1.079   4.466  0.00  0.00    -0.184 NA
ATOM     24  C   UNL     1       1.876   1.145   5.590  0.00  0.00    +0.140 C 
BRANCH  24  25
ATOM     25  C   UNL     1       2.340   2.055   6.654  0.00  0.00    +0.013 A 
ATOM     26  C   UNL     1       1.651   2.125   7.867  0.00  0.00    +0.011 A 
ATOM     27  C   UNL     1       2.089   2.978   8.858  0.00  0.00    +0.001 A 
ATOM     28  C   UNL     1       3.210   3.765   8.653  0.00  0.00    +0.001 A 
ATOM     29  C   UNL     1       3.898   3.702   7.454  0.00  0.00    +0.020 A 
ATOM     30  C   UNL     1       3.474   2.848   6.455  0.00  0.00    +0.050 A 
ATOM     31 CL   UNL     1       4.342   2.765   4.955  0.00  0.00    -0.083 Cl
ENDBRANCH  24  25
ENDBRANCH  18  23
TORSDOF 2
