REMARK  Name = ZINC25382061
REMARK  11 active torsions:
REMARK  status: ('A' for Active; 'I' for Inactive)
REMARK    1  A    between atoms: C_1  and  C_2
REMARK    2  A    between atoms: N_5  and  C_8
REMARK    3  A    between atoms: C_8  and  C_10
REMARK    4  A    between atoms: C_8  and  C_30
REMARK    5  A    between atoms: C_10  and  N_11
REMARK    6  A    between atoms: C_12  and  C_14
REMARK    7  A    between atoms: C_14  and  C_16
REMARK    8  A    between atoms: C_14  and  N_19
REMARK    9  A    between atoms: C_16  and  C_17
REMARK   10  A    between atoms: C_16  and  C_18
REMARK   11  A    between atoms: C_20  and  C_22
REMARK                            x       y       z     vdW  Elec       q    Type
REMARK                         _______ _______ _______ _____ _____    ______ ____
ROOT
ATOM      1  N   UNL     1       0.857   3.787   1.233  0.00  0.00    -0.315 N 
ATOM      2  C   UNL     1       1.285   5.051   1.423  0.00  0.00    +0.234 C 
ATOM      3  O   UNL     1       0.484   5.938   1.629  0.00  0.00    -0.274 OA
ATOM      4  H   UNL     1       1.583   2.983   1.047  0.00  0.00    +0.149 HD
ENDROOT
BRANCH   1   5
ATOM      5  C   UNL     1      -0.576   3.485   1.275  0.00  0.00    +0.094 C 
BRANCH   5   6
ATOM      6  C   UNL     1      -0.800   2.018   0.903  0.00  0.00    -0.013 C 
BRANCH   6  11
ATOM      7  C   UNL     1       0.611   0.892  -4.521  0.00  0.00    +0.007 C 
ATOM      8  C   UNL     1      -0.183   1.146  -3.237  0.00  0.00    -0.018 C 
ATOM      9  C   UNL     1       0.138   2.545  -2.706  0.00  0.00    -0.015 C 
ATOM     10  C   UNL     1      -0.611   2.771  -1.391  0.00  0.00    -0.078 C 
ATOM     11  N   UNL     1      -0.205   1.752  -0.414  0.00  0.00    +0.386 N 
ATOM     12  C   UNL     1      -0.547   0.402  -0.882  0.00  0.00    -0.078 C 
ATOM     13  C   UNL     1       0.204   0.106  -2.182  0.00  0.00    -0.015 C 
ATOM     14  H   UNL     1       0.888   1.803  -0.310  0.00  0.00    -0.081 HD
ENDBRANCH   6  11
BRANCH   6  15
ATOM     15  C   UNL     1      -2.278   1.732   0.854  0.00  0.00    -0.022 A 
ATOM     16  C   UNL     1      -3.063   1.133   1.783  0.00  0.00    +0.009 A 
ATOM     17  C   UNL     1      -4.411   0.978   1.522  0.00  0.00    +0.008 A 
ATOM     18  C   UNL     1      -4.907   1.418   0.340  0.00  0.00    +0.045 A 
ATOM     19  S   UNL     1      -3.450   2.086  -0.446  0.00  0.00    -0.103 S 
ENDBRANCH   6  15
ENDBRANCH   5   6
ENDBRANCH   1   5
BRANCH   2  20
ATOM     20  C   UNL     1       2.759   5.362   1.380  0.00  0.00    +0.162 C 
BRANCH  20  21
ATOM     21  N   UNL     1       2.963   6.793   1.613  0.00  0.00    -0.300 N 
ATOM     22  C   UNL     1       4.071   7.401   1.144  0.00  0.00    +0.250 C 
ATOM     23  O   UNL     1       4.900   6.761   0.526  0.00  0.00    -0.270 OA
ATOM     24  H   UNL     1       2.213   7.372   2.172  0.00  0.00    +0.150 HD
BRANCH  22  25
ATOM     25  C   UNL     1       4.277   8.843   1.379  0.00  0.00    +0.107 A 
ATOM     26  C   UNL     1       4.946   9.280   2.527  0.00  0.00    +0.138 A 
ATOM     27  C   UNL     1       5.139  10.633   2.737  0.00  0.00    +0.039 A 
ATOM     28  C   UNL     1       4.664  11.553   1.821  0.00  0.00    +0.006 A 
ATOM     29  C   UNL     1       3.996  11.130   0.686  0.00  0.00    +0.039 A 
ATOM     30  C   UNL     1       3.799   9.781   0.458  0.00  0.00    +0.138 A 
ATOM     31  F   UNL     1       3.147   9.370  -0.652  0.00  0.00    -0.205 F 
ATOM     32  F   UNL     1       5.406   8.383   3.426  0.00  0.00    -0.205 F 
ENDBRANCH  22  25
ENDBRANCH  20  21
BRANCH  20  33
ATOM     33  C   UNL     1       3.481   4.560   2.464  0.00  0.00    +0.012 C 
ATOM     34  C   UNL     1       4.978   4.875   2.420  0.00  0.00    +0.009 C 
ATOM     35  C   UNL     1       2.920   4.938   3.837  0.00  0.00    +0.009 C 
ENDBRANCH  20  33
ENDBRANCH   2  20
TORSDOF 8
