REMARK  Name = ZINC13963388
REMARK  8 active torsions:
REMARK  status: ('A' for Active; 'I' for Inactive)
REMARK    1  A    between atoms: C_1  and  O_2
REMARK    2  A    between atoms: O_2  and  C_3
REMARK    3  A    between atoms: C_3  and  C_5
REMARK    4  A    between atoms: C_5  and  N_6
REMARK    5  A    between atoms: N_15  and  C_16
REMARK    6  A    between atoms: C_16  and  C_18
REMARK    7  A    between atoms: N_23  and  S_25
REMARK    8  A    between atoms: S_25  and  C_28
REMARK                            x       y       z     vdW  Elec       q    Type
REMARK                         _______ _______ _______ _____ _____    ______ ____
ROOT
ATOM      1  C   UNL     1       4.355  -4.160  -0.065  0.00  0.00    +0.243 C 
ATOM      2  O   UNL     1       5.190  -3.276  -0.068  0.00  0.00    -0.273 OA
ENDROOT
BRANCH   1  12
ATOM      3  N   UNL     1       1.420  -2.073  -0.024  0.00  0.00    -0.310 N 
ATOM      4  C   UNL     1       1.218  -0.705  -0.014  0.00  0.00    +0.058 A 
ATOM      5  C   UNL     1       0.002  -0.004   0.002  0.00  0.00    +0.027 A 
ATOM      6  C   UNL     1      -0.017   1.370   0.010  0.00  0.00    +0.002 A 
ATOM      7  C   UNL     1       1.158   2.104   0.002  0.00  0.00    +0.001 A 
ATOM      8  C   UNL     1       2.371   1.439  -0.012  0.00  0.00    +0.017 A 
ATOM      9  C   UNL     1       2.390   0.064  -0.021  0.00  0.00    +0.039 A 
ATOM     10  S   UNL     1       3.679  -1.157  -0.041  0.00  0.00    -0.052 S 
ATOM     11  C   UNL     1       2.682  -2.576  -0.040  0.00  0.00    +0.167 A 
ATOM     12  N   UNL     1       3.062  -3.852  -0.051  0.00  0.00    -0.156 NA
BRANCH   3  13
ATOM     13  C   UNL     1       0.270  -2.982  -0.018  0.00  0.00    +0.244 C 
BRANCH  13  14
ATOM     14  C   UNL     1      -0.138  -3.284  -1.437  0.00  0.00    +0.327 C 
ATOM     15  O   UNL     1       0.469  -2.792  -2.358  0.00  0.00    -0.249 OA
BRANCH  14  17
ATOM     16  C   UNL     1      -1.512  -4.348  -3.067  0.00  0.00    +0.280 C 
ATOM     17  O   UNL     1      -1.176  -4.101  -1.677  0.00  0.00    -0.467 OA
ENDBRANCH  14  17
ENDBRANCH  13  14
ENDBRANCH   3  13
ENDBRANCH   1  12
BRANCH   1  18
ATOM     18  C   UNL     1       4.785  -5.604  -0.078  0.00  0.00    +0.093 C 
ATOM     19  C   UNL     1       4.252  -6.307   1.172  0.00  0.00    +0.015 C 
ATOM     20  C   UNL     1       4.660  -7.782   1.144  0.00  0.00    +0.018 C 
ATOM     21  C   UNL     1       6.189  -7.884   1.147  0.00  0.00    +0.109 C 
ATOM     22  N   UNL     1       6.718  -7.090   0.030  0.00  0.00    -0.175 NA
ATOM     23  C   UNL     1       6.315  -5.682  -0.089  0.00  0.00    +0.122 C 
BRANCH  22  24
ATOM     24  S   UNL     1       7.750  -7.768  -1.074  0.00  0.00    +0.067 S 
ATOM     25  O   UNL     1       8.495  -6.700  -1.643  0.00  0.00    -0.152 OA
ATOM     26  O   UNL     1       8.371  -8.869  -0.426  0.00  0.00    -0.152 OA
BRANCH  24  27
ATOM     27  C   UNL     1       6.760  -8.438  -2.369  0.00  0.00    +0.144 A 
ATOM     28  C   UNL     1       6.329  -7.844  -3.507  0.00  0.00    +0.038 A 
ATOM     29  C   UNL     1       5.557  -8.572  -4.394  0.00  0.00    +0.030 A 
ATOM     30  C   UNL     1       5.245  -9.857  -4.090  0.00  0.00    +0.080 A 
ATOM     31  S   UNL     1       6.059 -10.073  -2.516  0.00  0.00    -0.057 S 
ATOM     32 CL   UNL     1       4.299 -10.996  -4.997  0.00  0.00    -0.076 Cl
ENDBRANCH  24  27
ENDBRANCH  22  24
ENDBRANCH   1  18
TORSDOF 7
