REMARK  Name = ZINC15109339
REMARK  10 active torsions:
REMARK  status: ('A' for Active; 'I' for Inactive)
REMARK    1  A    between atoms: C_1  and  O_2
REMARK    2  A    between atoms: O_2  and  C_3
REMARK    3  A    between atoms: C_7  and  C_9
REMARK    4  A    between atoms: C_16  and  N_35
REMARK    5  A    between atoms: C_17  and  C_33
REMARK    6  A    between atoms: C_18  and  C_20
REMARK    7  A    between atoms: C_22  and  O_31
REMARK    8  A    between atoms: C_25  and  O_26
REMARK    9  A    between atoms: O_26  and  C_27
REMARK   10  A    between atoms: O_31  and  C_32
REMARK                            x       y       z     vdW  Elec       q    Type
REMARK                         _______ _______ _______ _____ _____    ______ ____
ROOT
ATOM      1  C   UNL     1      -2.552  -4.150   0.016  0.00  0.00    +0.100 A 
ATOM      2  C   UNL     1      -3.512  -4.932   0.666  0.00  0.00    +0.054 A 
ATOM      3  C   UNL     1      -3.224  -6.243   0.421  0.00  0.00    +0.223 A 
ATOM      4  N   UNL     1      -2.121  -6.284  -0.355  0.00  0.00    -0.246 N 
ATOM      5  H   UNL     1      -1.685  -7.085  -0.686  0.00  0.00    +0.192 HD
ATOM      6  N   UNL     1      -1.718  -4.963  -0.604  0.00  0.00    -0.171 NA
ATOM      7  O   UNL     1      -3.974  -7.261   0.912  0.00  0.00    -0.423 OA
ATOM      8  C   UNL     1      -5.181  -6.955   1.429  0.00  0.00    +0.200 C 
ATOM      9  C   UNL     1      -5.575  -5.697   1.726  0.00  0.00    +0.098 C 
ATOM     10  C   UNL     1      -4.685  -4.499   1.506  0.00  0.00    +0.105 C 
ENDROOT
BRANCH  10  11
ATOM     11  C   UNL     1      -4.195  -3.979   2.833  0.00  0.00    +0.014 A 
ATOM     12  C   UNL     1      -3.467  -4.804   3.672  0.00  0.00    +0.057 A 
ATOM     13  C   UNL     1      -3.016  -4.330   4.893  0.00  0.00    +0.166 A 
ATOM     14  C   UNL     1      -3.293  -3.022   5.278  0.00  0.00    +0.211 A 
ATOM     15  C   UNL     1      -4.024  -2.194   4.435  0.00  0.00    +0.211 A 
ATOM     16  C   UNL     1      -4.470  -2.674   3.209  0.00  0.00    +0.170 A 
ATOM     17  O   UNL     1      -4.161  -0.973   5.033  0.00  0.00    -0.449 OA
ATOM     18  C   UNL     1      -3.858  -1.191   6.424  0.00  0.00    +0.467 C 
ATOM     19  O   UNL     1      -2.970  -2.324   6.406  0.00  0.00    -0.449 OA
BRANCH  16  20
ATOM     20  O   UNL     1      -5.181  -1.863   2.379  0.00  0.00    -0.491 OA
ATOM     21  C   UNL     1      -6.602  -1.862   2.534  0.00  0.00    +0.277 C 
ENDBRANCH  16  20
BRANCH  13  22
ATOM     22  O   UNL     1      -2.301  -5.144   5.716  0.00  0.00    -0.491 OA
ATOM     23  C   UNL     1      -2.053  -6.474   5.257  0.00  0.00    +0.277 C 
ENDBRANCH  13  22
ENDBRANCH  10  11
BRANCH   1  28
ATOM     24  C   UNL     1      -1.200  -0.637   0.010  0.00  0.00    +0.121 A 
ATOM     25  C   UNL     1      -2.375   0.103   0.019  0.00  0.00    +0.045 A 
ATOM     26  C   UNL     1      -3.600  -0.537   0.027  0.00  0.00    +0.004 A 
ATOM     27  C   UNL     1      -3.662  -1.917   0.026  0.00  0.00    +0.010 A 
ATOM     28  C   UNL     1      -2.488  -2.667   0.017  0.00  0.00    +0.006 A 
ATOM     29  C   UNL     1      -1.254  -2.022   0.003  0.00  0.00    +0.055 A 
BRANCH  24  31
ATOM     30  C   UNL     1      -0.017   1.425   0.010  0.00  0.00    +0.277 C 
ATOM     31  O   UNL     1       0.002  -0.004   0.002  0.00  0.00    -0.495 OA
ENDBRANCH  24  31
ENDBRANCH   1  28
BRANCH   8  32
ATOM     32  N   UNL     1      -6.061  -7.981   1.668  0.00  0.00    -0.328 N 
ATOM     33  H   UNL     1      -5.807  -8.895   1.465  0.00  0.00    +0.145 HD
ATOM     34  H   UNL     1      -6.937  -7.792   2.040  0.00  0.00    +0.145 HD
ENDBRANCH   8  32
BRANCH   9  35
ATOM     35  C   UNL     1      -6.884  -5.494   2.268  0.00  0.00    +0.101 C 
ATOM     36  N   UNL     1      -7.923  -5.332   2.698  0.00  0.00    -0.191 NA
ENDBRANCH   9  35
TORSDOF 7
