REMARK  Name = ZINC20411223
REMARK  8 active torsions:
REMARK  status: ('A' for Active; 'I' for Inactive)
REMARK    1  A    between atoms: C_1  and  N_2
REMARK    2  A    between atoms: C_9  and  O_26
REMARK    3  A    between atoms: C_11  and  C_13
REMARK    4  A    between atoms: C_14  and  C_15
REMARK    5  A    between atoms: C_15  and  O_16
REMARK    6  A    between atoms: O_16  and  C_17
REMARK    7  A    between atoms: C_22  and  C_23
REMARK    8  A    between atoms: O_26  and  C_27
REMARK                            x       y       z     vdW  Elec       q    Type
REMARK                         _______ _______ _______ _____ _____    ______ ____
ROOT
ATOM      1  C   UNL     1      -5.738   7.211  -1.052  0.00  0.00    +0.106 C 
ATOM      2  N   UNL     1      -6.900   6.313  -1.084  0.00  0.00    -0.288 NA
ATOM      3  C   UNL     1      -8.154   7.076  -1.183  0.00  0.00    +0.090 C 
ATOM      4  C   UNL     1      -9.276   6.115  -1.579  0.00  0.00    +0.051 C 
ATOM      5  C   UNL     1      -9.268   4.912  -0.671  0.00  0.00    -0.033 A 
ATOM      6  C   UNL     1     -10.398   4.109  -0.630  0.00  0.00    +0.053 A 
ATOM      7  C   UNL     1     -10.435   2.989   0.182  0.00  0.00    +0.170 A 
ATOM      8  C   UNL     1      -9.330   2.667   0.964  0.00  0.00    +0.208 A 
ATOM      9  C   UNL     1      -8.202   3.473   0.922  0.00  0.00    +0.171 A 
ATOM     10  C   UNL     1      -8.171   4.598   0.104  0.00  0.00    +0.030 A 
ATOM     11  C   UNL     1      -6.925   5.444   0.097  0.00  0.00    +0.167 C 
ATOM     12  O   UNL     1      -9.610   1.531   1.669  0.00  0.00    -0.449 OA
ATOM     13  C   UNL     1     -11.042   1.392   1.621  0.00  0.00    +0.467 C 
ATOM     14  O   UNL     1     -11.409   2.056   0.397  0.00  0.00    -0.452 OA
ENDROOT
BRANCH  11  15
ATOM     15  C   UNL     1      -5.743   4.568   0.081  0.00  0.00    -0.075 C 
ATOM     16  C   UNL     1      -4.800   3.868   0.068  0.00  0.00    -0.060 C 
BRANCH  16  17
ATOM     17  C   UNL     1      -3.618   2.991   0.052  0.00  0.00    +0.317 C 
BRANCH  17  18
ATOM     18  O   UNL     1      -2.433   3.790   0.046  0.00  0.00    -0.479 OA
BRANCH  18  19
ATOM     19  C   UNL     1      -1.247   3.132   0.031  0.00  0.00    +0.132 A 
ATOM     20  C   UNL     1      -1.220   1.745   0.017  0.00  0.00    +0.047 A 
ATOM     21  C   UNL     1      -0.013   1.076   0.008  0.00  0.00    +0.019 A 
ATOM     22  C   UNL     1       1.182   1.781   0.000  0.00  0.00    +0.019 A 
ATOM     23  C   UNL     1       1.176   3.159   0.008  0.00  0.00    +0.030 A 
ATOM     24  C   UNL     1      -0.041   3.851   0.024  0.00  0.00    +0.057 A 
ATOM     25 BR   UNL     1       2.826   0.847  -0.020  0.00  0.00    -0.050 Br
BRANCH  24  26
ATOM     26  C   UNL     1      -0.056   5.319   0.032  0.00  0.00    +0.262 C 
ATOM     27  O   UNL     1       0.988   5.936   0.025  0.00  0.00    -0.296 OA
ENDBRANCH  24  26
ENDBRANCH  18  19
ENDBRANCH  17  18
ENDBRANCH  16  17
ENDBRANCH  11  15
BRANCH   9  28
ATOM     28  O   UNL     1      -7.120   3.162   1.685  0.00  0.00    -0.491 OA
ATOM     29  C   UNL     1      -7.072   3.718   3.000  0.00  0.00    +0.277 C 
ENDBRANCH   9  28
TORSDOF 6
