REMARK  Name = ZINC15497803
REMARK  3 active torsions:
REMARK  status: ('A' for Active; 'I' for Inactive)
REMARK    1  A    between atoms: C_1  and  S_2
REMARK    2  A    between atoms: S_2  and  N_5
REMARK    3  A    between atoms: C_14  and  C_21
REMARK                            x       y       z     vdW  Elec       q    Type
REMARK                         _______ _______ _______ _____ _____    ______ ____
ROOT
ATOM      1  N   UNL     1      -1.242  -1.563  -1.575  0.00  0.00    -0.180 NA
ATOM      2  C   UNL     1      -0.263  -1.105  -0.629  0.00  0.00    +0.110 C 
ATOM      3  C   UNL     1      -0.620   0.183   0.155  0.00  0.00    +0.036 C 
ATOM      4  C   UNL     1      -1.284   1.207  -0.798  0.00  0.00    +0.108 C 
ATOM      5  N   UNL     1      -0.648   1.173  -2.089  0.00  0.00    -0.313 N 
ATOM      6  C   UNL     1      -1.516   0.369  -2.948  0.00  0.00    +0.123 C 
ATOM      7  C   UNL     1      -1.176  -1.058  -2.988  0.00  0.00    +0.128 C 
ATOM      8  C   UNL     1      -0.491   2.450  -2.599  0.00  0.00    +0.133 A 
ATOM      9  C   UNL     1       0.793   2.916  -2.989  0.00  0.00    +0.055 A 
ATOM     10  C   UNL     1       2.083   2.235  -2.947  0.00  0.00    +0.002 A 
ATOM     11  C   UNL     1       3.182   2.894  -3.381  0.00  0.00    +0.056 A 
ATOM     12  S   UNL     1       2.545   4.484  -3.876  0.00  0.00    -0.076 S 
ATOM     13  C   UNL     1       0.832   4.231  -3.494  0.00  0.00    +0.114 A 
ATOM     14  N   UNL     1      -0.261   4.964  -3.589  0.00  0.00    -0.228 NA
ATOM     15  C   UNL     1      -1.426   4.477  -3.210  0.00  0.00    +0.224 A 
ATOM     16  N   UNL     1      -1.537   3.250  -2.733  0.00  0.00    -0.220 NA
ENDROOT
BRANCH  10  17
ATOM     17  C   UNL     1       2.187   0.846  -2.438  0.00  0.00    -0.017 A 
ATOM     18  C   UNL     1       2.797   0.595  -1.210  0.00  0.00    +0.009 A 
ATOM     19  C   UNL     1       2.887  -0.699  -0.739  0.00  0.00    +0.016 A 
ATOM     20  C   UNL     1       2.383  -1.748  -1.489  0.00  0.00    +0.018 A 
ATOM     21  C   UNL     1       1.780  -1.504  -2.711  0.00  0.00    +0.016 A 
ATOM     22  C   UNL     1       1.680  -0.214  -3.189  0.00  0.00    +0.009 A 
ATOM     23 BR   UNL     1       2.517  -3.519  -0.841  0.00  0.00    -0.050 Br
ENDBRANCH  10  17
BRANCH   1  25
ATOM     24  C   UNL     1      -1.710  -4.271  -1.417  0.00  0.00    +0.215 C 
ATOM     25  S   UNL     1      -2.422  -2.630  -1.116  0.00  0.00    +0.029 S 
ATOM     26  O   UNL     1      -2.583  -2.414   0.279  0.00  0.00    -0.158 OA
ATOM     27  O   UNL     1      -3.497  -2.390  -2.015  0.00  0.00    -0.158 OA
ENDBRANCH   1  25
TORSDOF 2
