REMARK  Name = ZINC47137075
REMARK  5 active torsions:
REMARK  status: ('A' for Active; 'I' for Inactive)
REMARK    1  A    between atoms: C_1  and  C_2
REMARK    2  A    between atoms: N_5  and  C_8
REMARK    3  A    between atoms: N_11  and  C_16
REMARK    4  A    between atoms: C_16  and  C_17
REMARK    5  A    between atoms: C_16  and  C_18
REMARK                            x       y       z     vdW  Elec       q    Type
REMARK                         _______ _______ _______ _____ _____    ______ ____
ROOT
ATOM      1  C   UNL     1      -1.076  -3.486   1.972  0.00  0.00    +0.074 A 
ATOM      2  C   UNL     1      -2.423  -3.901   1.894  0.00  0.00    +0.157 A 
ATOM      3  N   UNL     1      -2.893  -4.776   2.738  0.00  0.00    -0.174 NA
ATOM      4  N   UNL     1      -2.082  -5.324   3.737  0.00  0.00    -0.226 N 
ATOM      5  C   UNL     1      -0.790  -4.957   3.848  0.00  0.00    +0.288 A 
ATOM      6  O   UNL     1      -0.087  -5.440   4.722  0.00  0.00    -0.265 OA
ATOM      7  C   UNL     1      -0.256  -4.021   2.950  0.00  0.00    +0.129 A 
ATOM      8 CL   UNL     1       1.407  -3.536   3.067  0.00  0.00    -0.076 Cl
ENDROOT
BRANCH   1  13
ATOM      9  C   UNL     1      -0.800  -0.733  -2.764  0.00  0.00    +0.007 C 
ATOM     10  C   UNL     1      -0.376  -1.096  -1.339  0.00  0.00    -0.011 C 
ATOM     11  C   UNL     1       0.030  -2.571  -1.288  0.00  0.00    +0.022 C 
ATOM     12  C   UNL     1       0.487  -2.922   0.131  0.00  0.00    +0.105 C 
ATOM     13  N   UNL     1      -0.578  -2.556   1.075  0.00  0.00    -0.327 N 
ATOM     14  C   UNL     1      -1.105  -1.185   1.048  0.00  0.00    +0.105 C 
ATOM     15  C   UNL     1      -1.544  -0.853  -0.381  0.00  0.00    +0.022 C 
ENDBRANCH   1  13
BRANCH   4  16
ATOM     16  C   UNL     1      -2.641  -6.305   4.670  0.00  0.00    +0.105 C 
ATOM     17  C   UNL     1      -3.804  -5.673   5.438  0.00  0.00    +0.032 C 
ATOM     18  C   UNL     1      -3.146  -7.520   3.890  0.00  0.00    +0.032 C 
ENDBRANCH   4  16
TORSDOF 2
