REMARK  Name = ZINC37275190
REMARK  6 active torsions:
REMARK  status: ('A' for Active; 'I' for Inactive)
REMARK    1  A    between atoms: C_1  and  C_2
REMARK    2  A    between atoms: C_6  and  N_21
REMARK    3  A    between atoms: C_7  and  N_8
REMARK    4  A    between atoms: C_9  and  C_11
REMARK    5  A    between atoms: C_11  and  O_12
REMARK    6  A    between atoms: O_12  and  C_13
REMARK                            x       y       z     vdW  Elec       q    Type
REMARK                         _______ _______ _______ _____ _____    ______ ____
ROOT
ATOM      1  N   UNL     1      -0.250  -0.084   2.445  0.00  0.00    -0.281 N 
ATOM      2  C   UNL     1      -0.469  -0.797   3.567  0.00  0.00    +0.255 C 
ATOM      3  O   UNL     1      -0.639  -1.996   3.501  0.00  0.00    -0.272 OA
ATOM      4  H   UNL     1      -0.171   0.881   2.491  0.00  0.00    +0.155 HD
ENDROOT
BRANCH   1  11
ATOM      5  C   UNL     1       1.671  -2.166   2.196  0.00  0.00    +0.046 C 
ATOM      6  C   UNL     1       0.786  -1.759   1.046  0.00  0.00    -0.027 A 
ATOM      7  C   UNL     1       0.892  -2.407  -0.171  0.00  0.00    +0.005 A 
ATOM      8  C   UNL     1       0.083  -2.036  -1.229  0.00  0.00    +0.002 A 
ATOM      9  C   UNL     1      -0.838  -1.016  -1.076  0.00  0.00    +0.024 A 
ATOM     10  C   UNL     1      -0.951  -0.361   0.141  0.00  0.00    +0.046 A 
ATOM     11  C   UNL     1      -0.137  -0.738   1.210  0.00  0.00    +0.057 A 
BRANCH  10  12
ATOM     12  N   UNL     1      -1.881   0.672   0.299  0.00  0.00    -0.357 N 
ATOM     13  H   UNL     1      -2.519   0.862  -0.407  0.00  0.00    +0.142 HD
ATOM     14  H   UNL     1      -1.888   1.198   1.113  0.00  0.00    +0.142 HD
ENDBRANCH  10  12
ENDBRANCH   1  11
BRANCH   2  15
ATOM     15  C   UNL     1      -0.503  -0.104   4.905  0.00  0.00    +0.325 C 
BRANCH  15  16
ATOM     16  O   UNL     1      -0.749  -1.065   5.933  0.00  0.00    -0.481 OA
BRANCH  16  17
ATOM     17  C   UNL     1      -0.811  -0.602   7.210  0.00  0.00    +0.149 A 
ATOM     18  C   UNL     1       0.341  -0.533   7.981  0.00  0.00    +0.061 A 
ATOM     19  C   UNL     1       0.276  -0.061   9.278  0.00  0.00    +0.019 A 
ATOM     20  C   UNL     1      -0.936   0.342   9.808  0.00  0.00    +0.002 A 
ATOM     21  C   UNL     1      -2.085   0.275   9.042  0.00  0.00    +0.019 A 
ATOM     22  C   UNL     1      -2.025  -0.191   7.742  0.00  0.00    +0.061 A 
ATOM     23 BR   UNL     1      -3.596  -0.276   6.693  0.00  0.00    -0.046 Br
ATOM     24 BR   UNL     1       1.998  -1.086   7.257  0.00  0.00    -0.046 Br
ENDBRANCH  16  17
ENDBRANCH  15  16
ENDBRANCH   2  15
TORSDOF 5
