REMARK  Name = ZINC63557808
REMARK  9 active torsions:
REMARK  status: ('A' for Active; 'I' for Inactive)
REMARK    1  A    between atoms: C_1  and  O_2
REMARK    2  A    between atoms: O_2  and  C_3
REMARK    3  A    between atoms: C_6  and  O_31
REMARK    4  A    between atoms: C_7  and  N_9
REMARK    5  A    between atoms: C_10  and  C_12
REMARK    6  A    between atoms: N_17  and  C_19
REMARK    7  A    between atoms: C_19  and  C_20
REMARK    8  A    between atoms: C_20  and  C_21
REMARK    9  A    between atoms: O_31  and  C_32
REMARK                            x       y       z     vdW  Elec       q    Type
REMARK                         _______ _______ _______ _____ _____    ______ ____
ROOT
ATOM      1  C   UNL     1       0.714  -6.269   1.408  0.00  0.00    +0.101 C 
ATOM      2  C   UNL     1      -0.054  -6.707   2.677  0.00  0.00    +0.110 C 
ATOM      3  C   UNL     1      -0.791  -7.958   2.251  0.00  0.00    +0.216 C 
ATOM      4  O   UNL     1      -1.283  -8.766   3.010  0.00  0.00    -0.276 OA
ATOM      5  N   UNL     1      -0.821  -8.043   0.910  0.00  0.00    -0.300 N 
ATOM      6  C   UNL     1      -0.142  -6.900   0.287  0.00  0.00    +0.121 C 
ENDROOT
BRANCH   1   8
ATOM      7  N   UNL     1       1.385  -4.027   2.210  0.00  0.00    -0.282 N 
ATOM      8  C   UNL     1       0.741  -4.767   1.286  0.00  0.00    +0.222 C 
ATOM      9  O   UNL     1       0.182  -4.225   0.356  0.00  0.00    -0.275 OA
ATOM     10  H   UNL     1       1.899  -4.463   2.908  0.00  0.00    +0.155 HD
BRANCH   7  15
ATOM     11  C   UNL     1       0.170  -0.625   1.497  0.00  0.00    +0.122 A 
ATOM     12  C   UNL     1       1.176   0.139   2.068  0.00  0.00    +0.049 A 
ATOM     13  C   UNL     1       2.249  -0.476   2.685  0.00  0.00    +0.051 A 
ATOM     14  C   UNL     1       2.322  -1.859   2.735  0.00  0.00    +0.141 A 
ATOM     15  C   UNL     1       1.313  -2.629   2.162  0.00  0.00    +0.079 A 
ATOM     16  C   UNL     1       0.235  -2.009   1.548  0.00  0.00    +0.072 A 
BRANCH  11  18
ATOM     17  C   UNL     1      -0.888   1.412   0.875  0.00  0.00    +0.277 C 
ATOM     18  O   UNL     1      -0.885  -0.017   0.891  0.00  0.00    -0.495 OA
ENDBRANCH  11  18
BRANCH  14  19
ATOM     19  O   UNL     1       3.379  -2.463   3.342  0.00  0.00    -0.493 OA
ATOM     20  C   UNL     1       4.377  -1.611   3.908  0.00  0.00    +0.277 C 
ENDBRANCH  14  19
ENDBRANCH   7  15
ENDBRANCH   1   8
BRANCH   5  21
ATOM     21  C   UNL     1      -1.448  -9.137   0.165  0.00  0.00    +0.112 C 
BRANCH  21  22
ATOM     22  C   UNL     1      -2.912  -8.790  -0.114  0.00  0.00    +0.052 C 
BRANCH  22  23
ATOM     23  C   UNL     1      -3.558  -9.916  -0.880  0.00  0.00    -0.040 C 
ATOM     24  C   UNL     1      -4.280 -10.939  -0.369  0.00  0.00    +0.000 A 
ATOM     25  C   UNL     1      -4.664 -11.297   1.002  0.00  0.00    +0.030 A 
ATOM     26  C   UNL     1      -5.408 -12.409   1.206  0.00  0.00    +0.042 A 
ATOM     27  C   UNL     1      -5.820 -13.225   0.142  0.00  0.00    +0.022 A 
ATOM     28  C   UNL     1      -5.506 -12.961  -1.143  0.00  0.00    +0.027 A 
ATOM     29  C   UNL     1      -4.728 -11.817  -1.473  0.00  0.00    +0.043 A 
ATOM     30  N   UNL     1      -4.300 -11.355  -2.623  0.00  0.00    -0.380 N 
ATOM     31  C   UNL     1      -3.536 -10.126  -2.378  0.00  0.00    +0.144 C 
ATOM     32 CL   UNL     1      -5.864 -12.835   2.826  0.00  0.00    -0.084 Cl
ATOM     33  H   UNL     1      -4.463 -11.756  -3.490  0.00  0.00    +0.160 HD
ENDBRANCH  22  23
ENDBRANCH  21  22
ENDBRANCH   5  21
TORSDOF 7
