REMARK  Name = ZINC23339159
REMARK  6 active torsions:
REMARK  status: ('A' for Active; 'I' for Inactive)
REMARK    1  A    between atoms: C_1  and  N_2
REMARK    2  A    between atoms: C_3  and  C_5
REMARK    3  A    between atoms: N_8  and  C_10
REMARK    4  A    between atoms: C_10  and  C_11
REMARK    5  A    between atoms: C_19  and  N_22
REMARK    6  A    between atoms: N_25  and  C_28
REMARK                            x       y       z     vdW  Elec       q    Type
REMARK                         _______ _______ _______ _____ _____    ______ ____
ROOT
ATOM      1  C   UNL     1      -1.338   2.026  -0.457  0.00  0.00    +0.150 A 
ATOM      2  C   UNL     1      -2.595   1.418  -0.305  0.00  0.00    +0.007 A 
ATOM      3  C   UNL     1      -3.479   2.430  -0.123  0.00  0.00    +0.043 A 
ATOM      4  N   UNL     1      -2.782   3.578  -0.161  0.00  0.00    -0.267 N 
ATOM      5  N   UNL     1      -1.532   3.330  -0.352  0.00  0.00    -0.166 NA
ATOM      6  C   UNL     1      -4.958   2.227   0.079  0.00  0.00    +0.057 C 
ATOM      7  C   UNL     1      -5.316   0.804  -0.369  0.00  0.00    +0.025 C 
ATOM      8  C   UNL     1      -4.359  -0.197   0.284  0.00  0.00    +0.061 C 
ATOM      9  C   UNL     1      -2.960  -0.041  -0.327  0.00  0.00    +0.058 C 
ENDROOT
BRANCH   8  10
ATOM     10  N   UNL     1      -4.846  -1.563   0.050  0.00  0.00    -0.303 NA
ATOM     11  C   UNL     1      -4.951  -1.846  -1.388  0.00  0.00    +0.066 C 
ATOM     12  C   UNL     1      -5.383  -3.300  -1.589  0.00  0.00    -0.063 C 
ATOM     13  N   UNL     1      -6.671  -3.523  -0.916  0.00  0.00    +0.383 N 
ATOM     14  C   UNL     1      -6.565  -3.240   0.522  0.00  0.00    -0.063 C 
ATOM     15  C   UNL     1      -6.133  -1.786   0.723  0.00  0.00    +0.066 C 
ATOM     16  H   UNL     1      -7.404  -2.825  -1.346  0.00  0.00    -0.081 HD
BRANCH  13  17
ATOM     17  C   UNL     1      -7.157  -4.889  -1.150  0.00  0.00    -0.068 C 
ATOM     18  C   UNL     1      -7.239  -5.169  -2.664  0.00  0.00    -0.015 C 
ATOM     19  C   UNL     1      -8.512  -6.038  -2.821  0.00  0.00    -0.002 C 
ATOM     20  C   UNL     1      -9.485  -5.409  -1.793  0.00  0.00    -0.002 C 
ATOM     21  C   UNL     1      -8.585  -5.042  -0.595  0.00  0.00    -0.015 C 
ENDBRANCH  13  17
ENDBRANCH   8  10
BRANCH   1  24
ATOM     22  C   UNL     1       2.361   1.384  -1.046  0.00  0.00    +0.128 C 
ATOM     23  N   UNL     1       1.083   2.062  -0.816  0.00  0.00    -0.313 N 
ATOM     24  C   UNL     1      -0.048   1.342  -0.683  0.00  0.00    +0.264 C 
ATOM     25  O   UNL     1      -0.008   0.129  -0.754  0.00  0.00    -0.268 OA
ATOM     26  H   UNL     1       1.046   3.160  -0.751  0.00  0.00    +0.149 HD
ENDBRANCH   1  24
BRANCH   4  27
ATOM     27  C   UNL     1      -3.358   4.916  -0.004  0.00  0.00    +0.147 C 
BRANCH  27  28
ATOM     28  C   UNL     1      -3.350   5.303   1.477  0.00  0.00    +0.010 C 
ATOM     29  C   UNL     1      -4.279   4.368   2.253  0.00  0.00    +0.005 C 
ATOM     30  C   UNL     1      -4.271   4.755   3.734  0.00  0.00    +0.000 C 
ATOM     31  C   UNL     1      -4.756   6.198   3.886  0.00  0.00    +0.000 C 
ATOM     32  C   UNL     1      -3.827   7.133   3.109  0.00  0.00    +0.000 C 
ATOM     33  C   UNL     1      -3.835   6.746   1.629  0.00  0.00    +0.005 C 
ENDBRANCH  27  28
ENDBRANCH   4  27
TORSDOF 5
