REMARK  Name = ZINC62542996
REMARK  18 active torsions:
REMARK  status: ('A' for Active; 'I' for Inactive)
REMARK    1  A    between atoms: C_1  and  C_2
REMARK    2  A    between atoms: C_2  and  C_3
REMARK    3  A    between atoms: C_3  and  C_4
REMARK    4  A    between atoms: C_4  and  C_5
REMARK    5  A    between atoms: C_5  and  C_7
REMARK    6  A    between atoms: C_5  and  C_9
REMARK    7  A    between atoms: C_7  and  C_8
REMARK    8  A    between atoms: C_9  and  O_10
REMARK    9  A    between atoms: O_10  and  C_11
REMARK   10  A    between atoms: C_11  and  C_12
REMARK   11  A    between atoms: C_12  and  C_13
REMARK   12  A    between atoms: C_13  and  C_15
REMARK   13  A    between atoms: C_13  and  N_19
REMARK   14  A    between atoms: C_15  and  O_17
REMARK   15  A    between atoms: O_17  and  C_18
REMARK   16  A    between atoms: N_19  and  C_20
REMARK   17  A    between atoms: C_20  and  C_21
REMARK   18  A    between atoms: C_21  and  C_22
REMARK                            x       y       z     vdW  Elec       q    Type
REMARK                         _______ _______ _______ _____ _____    ______ ____
ROOT
ATOM      1  C   UNL     1       1.525  -6.420  -5.006  0.00  0.00    +0.058 C 
ENDROOT
BRANCH   1   2
ATOM      2  C   UNL     1       0.870  -5.721  -3.813  0.00  0.00    +0.162 C 
BRANCH   2   3
ATOM      3  O   UNL     1       1.340  -4.374  -3.734  0.00  0.00    -0.379 OA
BRANCH   3   4
ATOM      4  C   UNL     1       0.786  -3.628  -2.648  0.00  0.00    +0.163 C 
BRANCH   4   5
ATOM      5  C   UNL     1       1.357  -2.208  -2.660  0.00  0.00    +0.014 C 
BRANCH   5   6
ATOM      6  C   UNL     1       2.855  -2.258  -2.353  0.00  0.00    +0.002 C 
ATOM      7  C   UNL     1       3.587  -2.963  -3.496  0.00  0.00    +0.004 C 
ENDBRANCH   5   6
BRANCH   5   8
ATOM      8  C   UNL     1       0.646  -1.364  -1.601  0.00  0.00    +0.006 C 
BRANCH   8   9
ATOM      9  C   UNL     1       1.127   0.086  -1.698  0.00  0.00    +0.000 C 
BRANCH   9  11
ATOM     10  C   UNL     1       0.897   2.380  -0.735  0.00  0.00    +0.004 C 
ATOM     11  C   UNL     1       0.416   0.930  -0.638  0.00  0.00    -0.003 C 
ENDBRANCH   9  11
ENDBRANCH   8   9
ENDBRANCH   5   8
ENDBRANCH   4   5
ENDBRANCH   3   4
ENDBRANCH   2   3
ENDBRANCH   1   2
BRANCH   1  12
ATOM     12  C   UNL     1       1.022  -7.862  -5.091  0.00  0.00    +0.166 C 
BRANCH  12  13
ATOM     13  C   UNL     1       1.758  -8.587  -6.189  0.00  0.00    +0.324 C 
ATOM     14  O   UNL     1       1.145  -9.056  -7.119  0.00  0.00    -0.249 OA
BRANCH  13  15
ATOM     15  O   UNL     1       3.093  -8.712  -6.133  0.00  0.00    -0.467 OA
ATOM     16  C   UNL     1       3.725  -9.411  -7.208  0.00  0.00    +0.280 C 
ENDBRANCH  13  15
ENDBRANCH  12  13
BRANCH  12  17
ATOM     17  N   UNL     1      -0.417  -7.863  -5.383  0.00  0.00    -0.304 NA
ATOM     18  H   UNL     1      -0.867  -7.050  -4.988  0.00  0.00    +0.123 HD
BRANCH  17  19
ATOM     19  C   UNL     1      -1.051  -9.099  -4.905  0.00  0.00    +0.081 C 
BRANCH  19  20
ATOM     20  C   UNL     1      -2.547  -9.062  -5.227  0.00  0.00    +0.012 C 
ATOM     21  C   UNL     1      -3.207 -10.350  -4.729  0.00  0.00    +0.005 C 
ENDBRANCH  19  20
ENDBRANCH  17  19
ENDBRANCH  12  17
ENDBRANCH   1  12
TORSDOF 14
