REMARK  Name = ZINC38994290
REMARK  7 active torsions:
REMARK  status: ('A' for Active; 'I' for Inactive)
REMARK    1  A    between atoms: C_6  and  C_7
REMARK    2  A    between atoms: C_9  and  C_13
REMARK    3  A    between atoms: C_17  and  S_21
REMARK    4  A    between atoms: N_19  and  N_20
REMARK    5  A    between atoms: S_21  and  C_22
REMARK    6  A    between atoms: C_22  and  C_23
REMARK    7  A    between atoms: N_25  and  C_26
REMARK                            x       y       z     vdW  Elec       q    Type
REMARK                         _______ _______ _______ _____ _____    ______ ____
ROOT
ATOM      1  C   UNL     1      -3.282  -3.123   1.267  0.00  0.00    +0.185 C 
ATOM      2  N   UNL     1      -2.552  -4.415   1.345  0.00  0.00    -0.234 NA
ATOM      3  N   UNL     1      -3.397  -5.265   2.188  0.00  0.00    -0.228 NA
ATOM      4  C   UNL     1      -4.770  -4.726   2.099  0.00  0.00    +0.214 C 
ATOM      5  N   UNL     1      -4.706  -3.547   1.201  0.00  0.00    -0.197 NA
ATOM      6  H   UNL     1      -2.434  -4.819   0.428  0.00  0.00    +0.143 HD
ATOM      7  H   UNL     1      -3.365  -6.225   1.881  0.00  0.00    +0.143 HD
ENDROOT
BRANCH   1  10
ATOM      8  C   UNL     1      -1.311  -0.735  -0.010  0.00  0.00    +0.091 C 
ATOM      9  C   UNL     1      -1.394  -2.079  -0.010  0.00  0.00    +0.034 C 
ATOM     10  C   UNL     1      -2.887  -2.352   0.006  0.00  0.00    +0.187 C 
ATOM     11  N   UNL     1      -3.475  -1.002   0.013  0.00  0.00    -0.176 NA
ATOM     12  N   UNL     1      -2.553  -0.183   0.009  0.00  0.00    -0.154 NA
BRANCH   8  18
ATOM     13  C   UNL     1      -0.071   1.429  -0.017  0.00  0.00    +0.011 A 
ATOM     14  C   UNL     1       1.111   2.140  -0.029  0.00  0.00    +0.020 A 
ATOM     15  C   UNL     1       2.324   1.472  -0.048  0.00  0.00    +0.041 A 
ATOM     16  C   UNL     1       2.357   0.088  -0.055  0.00  0.00    +0.020 A 
ATOM     17  C   UNL     1       1.180  -0.632  -0.043  0.00  0.00    +0.011 A 
ATOM     18  C   UNL     1      -0.043   0.035  -0.024  0.00  0.00    +0.002 A 
ATOM     19 CL   UNL     1       3.807   2.373  -0.063  0.00  0.00    -0.084 Cl
ENDBRANCH   8  18
ENDBRANCH   1  10
BRANCH   5  20
ATOM     20  N   UNL     1      -5.588  -2.487   1.662  0.00  0.00    -0.264 NA
ATOM     21  H   UNL     1      -6.554  -2.775   1.617  0.00  0.00    +0.137 HD
ATOM     22  H   UNL     1      -5.342  -2.193   2.595  0.00  0.00    +0.137 HD
ENDBRANCH   5  20
BRANCH   4  23
ATOM     23  S   UNL     1      -5.886  -5.979   1.409  0.00  0.00    -0.115 S 
BRANCH  23  24
ATOM     24  C   UNL     1      -5.165  -6.364  -0.211  0.00  0.00    +0.168 C 
BRANCH  24  25
ATOM     25  C   UNL     1      -6.007  -7.407  -0.900  0.00  0.00    +0.227 C 
ATOM     26  O   UNL     1      -6.996  -7.846  -0.353  0.00  0.00    -0.275 OA
ATOM     27  N   UNL     1      -5.661  -7.850  -2.125  0.00  0.00    -0.285 N 
ATOM     28  H   UNL     1      -4.910  -7.451  -2.591  0.00  0.00    +0.155 HD
BRANCH  27  29
ATOM     29  C   UNL     1      -6.386  -8.886  -2.724  0.00  0.00    +0.033 A 
ATOM     30  C   UNL     1      -5.735  -9.821  -3.519  0.00  0.00    +0.025 A 
ATOM     31  C   UNL     1      -6.453 -10.843  -4.109  0.00  0.00    +0.022 A 
ATOM     32  C   UNL     1      -7.819 -10.936  -3.910  0.00  0.00    +0.041 A 
ATOM     33  C   UNL     1      -8.470 -10.006  -3.118  0.00  0.00    +0.022 A 
ATOM     34  C   UNL     1      -7.756  -8.985  -2.521  0.00  0.00    +0.025 A 
ATOM     35 CL   UNL     1      -8.718 -12.221  -4.654  0.00  0.00    -0.084 Cl
ENDBRANCH  27  29
ENDBRANCH  24  25
ENDBRANCH  23  24
ENDBRANCH   4  23
TORSDOF 7
