REMARK  Name = ZINC34681157
REMARK  4 active torsions:
REMARK  status: ('A' for Active; 'I' for Inactive)
REMARK    1  A    between atoms: C_1  and  C_2
REMARK    2  A    between atoms: C_2  and  N_3
REMARK    3  A    between atoms: N_6  and  C_7
REMARK    4  A    between atoms: C_20  and  C_22
REMARK                            x       y       z     vdW  Elec       q    Type
REMARK                         _______ _______ _______ _____ _____    ______ ____
ROOT
ATOM      1  C   UNL     1      -1.796  -3.285  -2.431  0.00  0.00    +0.051 A 
ATOM      2  C   UNL     1      -1.063  -4.351  -1.913  0.00  0.00    +0.028 A 
ATOM      3  C   UNL     1      -1.716  -5.548  -1.678  0.00  0.00    +0.043 A 
ATOM      4  C   UNL     1      -3.074  -5.646  -1.966  0.00  0.00    +0.099 A 
ATOM      5  N   UNL     1      -3.738  -4.613  -2.458  0.00  0.00    -0.348 N 
ATOM      6  C   UNL     1      -3.148  -3.455  -2.688  0.00  0.00    +0.107 A 
ATOM      7  N   UNL     1      -3.741  -6.846  -1.734  0.00  0.00    -0.315 N 
ATOM      8  C   UNL     1      -5.136  -6.969  -2.183  0.00  0.00    +0.108 C 
ATOM      9  C   UNL     1      -5.423  -8.317  -2.849  0.00  0.00    +0.038 C 
ATOM     10  C   UNL     1      -4.271  -8.718  -3.747  0.00  0.00    +0.109 C 
ATOM     11  N   UNL     1      -3.283  -9.422  -2.930  0.00  0.00    -0.296 N 
ATOM     12  C   UNL     1      -2.300  -8.782  -2.126  0.00  0.00    +0.127 C 
ATOM     13  C   UNL     1      -3.023  -7.917  -1.065  0.00  0.00    +0.125 C 
ATOM     14  C   UNL     1      -3.306 -10.769  -2.939  0.00  0.00    +0.247 C 
ATOM     15  O   UNL     1      -2.452 -11.396  -2.343  0.00  0.00    -0.270 OA
ATOM     16  H   UNL     1      -4.684  -4.708  -2.650  0.00  0.00    +0.167 HD
ENDROOT
BRANCH  14  17
ATOM     17  C   UNL     1      -4.370 -11.485  -3.673  0.00  0.00    +0.037 A 
ATOM     18  C   UNL     1      -4.038 -12.480  -4.595  0.00  0.00    +0.014 A 
ATOM     19  C   UNL     1      -5.036 -13.144  -5.277  0.00  0.00    +0.021 A 
ATOM     20  C   UNL     1      -6.364 -12.826  -5.050  0.00  0.00    +0.041 A 
ATOM     21  C   UNL     1      -6.700 -11.840  -4.137  0.00  0.00    +0.021 A 
ATOM     22  C   UNL     1      -5.712 -11.172  -3.445  0.00  0.00    +0.014 A 
ATOM     23 CL   UNL     1      -7.614 -13.666  -5.913  0.00  0.00    -0.084 Cl
ENDBRANCH  14  17
BRANCH   1  27
ATOM     24  N   UNL     1       0.667  -0.842  -3.451  0.00  0.00    -0.299 N 
ATOM     25  C   UNL     1       0.101  -2.018  -3.115  0.00  0.00    +0.304 C 
ATOM     26  O   UNL     1       0.743  -3.048  -3.200  0.00  0.00    -0.253 OA
ATOM     27  N   UNL     1      -1.175  -2.054  -2.684  0.00  0.00    -0.268 N 
ATOM     28  H   UNL     1       0.155  -0.021  -3.383  0.00  0.00    +0.150 HD
ATOM     29  H   UNL     1      -1.665  -1.227  -2.549  0.00  0.00    +0.156 HD
BRANCH  24  31
ATOM     30  C   UNL     1       2.447   0.641  -4.232  0.00  0.00    +0.024 C 
ATOM     31  C   UNL     1       2.054  -0.804  -3.920  0.00  0.00    +0.102 C 
ENDBRANCH  24  31
ENDBRANCH   1  27
TORSDOF 3
