REMARK  Name = ZINC08818460
REMARK  10 active torsions:
REMARK  status: ('A' for Active; 'I' for Inactive)
REMARK    1  A    between atoms: C_1  and  C_2
REMARK    2  A    between atoms: C_5  and  C_36
REMARK    3  A    between atoms: C_6  and  N_8
REMARK    4  A    between atoms: C_9  and  C_11
REMARK    5  A    between atoms: N_22  and  N_25
REMARK    6  A    between atoms: C_23  and  N_24
REMARK    7  A    between atoms: C_26  and  C_27
REMARK    8  A    between atoms: C_30  and  N_33
REMARK    9  A    between atoms: N_33  and  C_34
REMARK   10  A    between atoms: N_33  and  C_35
REMARK                            x       y       z     vdW  Elec       q    Type
REMARK                         _______ _______ _______ _____ _____    ______ ____
ROOT
ATOM      1  C   UNL     1      -6.340  -0.212  -0.670  0.00  0.00    +0.105 A 
ATOM      2  C   UNL     1      -6.422  -0.271   0.799  0.00  0.00    +0.124 A 
ATOM      3  C   UNL     1      -5.145   0.263   1.281  0.00  0.00    +0.183 A 
ATOM      4  N   UNL     1      -4.922   0.336   2.576  0.00  0.00    -0.224 NA
ATOM      5  C   UNL     1      -5.860  -0.076   3.439  0.00  0.00    +0.092 A 
ATOM      6  C   UNL     1      -5.630  -0.002   4.825  0.00  0.00    +0.030 A 
ATOM      7  C   UNL     1      -6.588  -0.422   5.694  0.00  0.00    +0.002 A 
ATOM      8  C   UNL     1      -7.802  -0.930   5.233  0.00  0.00    +0.002 A 
ATOM      9  C   UNL     1      -8.061  -1.017   3.900  0.00  0.00    +0.030 A 
ATOM     10  C   UNL     1      -7.094  -0.592   2.970  0.00  0.00    +0.090 A 
ATOM     11  N   UNL     1      -7.338  -0.674   1.656  0.00  0.00    -0.241 NA
ATOM     12  N   UNL     1      -4.400   0.597   0.166  0.00  0.00    -0.198 N 
ATOM     13  C   UNL     1      -5.095   0.328  -0.975  0.00  0.00    +0.134 A 
ENDROOT
BRANCH   1  15
ATOM     14  N   UNL     1      -7.357  -1.887  -2.049  0.00  0.00    -0.281 N 
ATOM     15  C   UNL     1      -7.338  -0.619  -1.593  0.00  0.00    +0.254 C 
ATOM     16  O   UNL     1      -8.177   0.178  -1.972  0.00  0.00    -0.270 OA
ATOM     17  H   UNL     1      -6.728  -2.538  -1.699  0.00  0.00    +0.155 HD
BRANCH  14  23
ATOM     18  C   UNL     1     -11.842  -1.466  -4.016  0.00  0.00    +0.044 C 
ATOM     19  C   UNL     1     -10.464  -2.077  -4.004  0.00  0.00    -0.049 A 
ATOM     20  C   UNL     1     -10.114  -3.011  -4.961  0.00  0.00    +0.004 A 
ATOM     21  C   UNL     1      -8.851  -3.574  -4.953  0.00  0.00    +0.005 A 
ATOM     22  C   UNL     1      -7.933  -3.199  -3.992  0.00  0.00    -0.029 A 
ATOM     23  C   UNL     1      -8.283  -2.265  -3.026  0.00  0.00    +0.037 A 
ATOM     24  C   UNL     1      -9.553  -1.702  -3.037  0.00  0.00    +0.027 A 
ATOM     25  C   UNL     1      -6.554  -3.808  -3.988  0.00  0.00    +0.045 C 
ENDBRANCH  14  23
ENDBRANCH   1  15
BRANCH  13  26
ATOM     26  N   UNL     1      -4.630   0.553  -2.246  0.00  0.00    -0.342 N 
ATOM     27  H   UNL     1      -3.746   0.931  -2.379  0.00  0.00    +0.144 HD
ATOM     28  H   UNL     1      -5.184   0.336  -3.011  0.00  0.00    +0.144 HD
ENDBRANCH  13  26
BRANCH  12  29
ATOM     29  N   UNL     1      -3.111   1.142   0.204  0.00  0.00    -0.171 NA
ATOM     30  C   UNL     1      -2.075   0.360   0.204  0.00  0.00    +0.141 C 
BRANCH  30  31
ATOM     31  C   UNL     1      -0.718   0.934   0.244  0.00  0.00    -0.005 A 
ATOM     32  C   UNL     1       0.399   0.094   0.245  0.00  0.00    +0.011 A 
ATOM     33  C   UNL     1       1.665   0.634   0.276  0.00  0.00    +0.024 A 
ATOM     34  C   UNL     1       1.834   2.015   0.312  0.00  0.00    +0.029 A 
ATOM     35  C   UNL     1       0.725   2.854   0.317  0.00  0.00    +0.024 A 
ATOM     36  C   UNL     1      -0.545   2.321   0.287  0.00  0.00    +0.011 A 
BRANCH  34  37
ATOM     37  N   UNL     1       3.118   2.558   0.343  0.00  0.00    -0.336 N 
ATOM     38  C   UNL     1       4.283   1.678   0.460  0.00  0.00    +0.129 C 
ATOM     39  C   UNL     1       3.301   4.009   0.257  0.00  0.00    +0.129 C 
ENDBRANCH  34  37
ENDBRANCH  30  31
ENDBRANCH  12  29
TORSDOF 6
