REMARK  Name = ZINC40259430
REMARK  3 active torsions:
REMARK  status: ('A' for Active; 'I' for Inactive)
REMARK    1  A    between atoms: C_4  and  C_8
REMARK    2  A    between atoms: C_8  and  C_10
REMARK    3  A    between atoms: C_8  and  O_21
REMARK                            x       y       z     vdW  Elec       q    Type
REMARK                         _______ _______ _______ _____ _____    ______ ____
ROOT
ATOM      1  C   UNL     1       3.712  -0.710  -0.038  0.00  0.00    +0.179 C 
ENDROOT
BRANCH   1   2
ATOM      2  C   UNL     1       4.204  -0.962  -1.440  0.00  0.00    +0.003 A 
ATOM      3  C   UNL     1       3.843  -2.122  -2.100  0.00  0.00    +0.057 A 
ATOM      4  C   UNL     1       4.293  -2.356  -3.390  0.00  0.00    +0.162 A 
ATOM      5  C   UNL     1       5.108  -1.421  -4.019  0.00  0.00    +0.163 A 
ATOM      6  C   UNL     1       5.468  -0.260  -3.351  0.00  0.00    +0.065 A 
ATOM      7  C   UNL     1       5.012  -0.030  -2.066  0.00  0.00    +0.028 A 
ATOM      8 BR   UNL     1       5.499   1.557  -1.161  0.00  0.00    -0.050 Br
ATOM      9  O   UNL     1       5.554  -1.627  -5.288  0.00  0.00    -0.485 OA
ATOM     10  C   UNL     1       5.479  -2.968  -5.786  0.00  0.00    +0.270 C 
ATOM     11  C   UNL     1       4.092  -3.529  -5.449  0.00  0.00    +0.270 C 
ATOM     12  O   UNL     1       3.932  -3.504  -4.026  0.00  0.00    -0.485 OA
ENDBRANCH   1   2
BRANCH   1  16
ATOM     13  C   UNL     1      -0.307   0.738  -0.179  0.00  0.00    +0.023 A 
ATOM     14  C   UNL     1       0.749   1.624  -0.277  0.00  0.00    +0.040 A 
ATOM     15  C   UNL     1       2.051   1.156  -0.232  0.00  0.00    +0.129 A 
ATOM     16  C   UNL     1       2.295  -0.200  -0.087  0.00  0.00    +0.022 A 
ATOM     17  C   UNL     1       1.238  -1.085   0.011  0.00  0.00    +0.029 A 
ATOM     18  C   UNL     1      -0.064  -0.616  -0.035  0.00  0.00    +0.041 A 
ATOM     19 CL   UNL     1      -1.391  -1.728   0.089  0.00  0.00    -0.084 Cl
ATOM     20  F   UNL     1       3.084   2.021  -0.328  0.00  0.00    -0.205 F 
ENDBRANCH   1  16
BRANCH   1  21
ATOM     21  O   UNL     1       3.753  -1.928   0.708  0.00  0.00    -0.382 OA
ATOM     22  H   UNL     1       3.208  -2.636   0.337  0.00  0.00    +0.211 HD
ENDBRANCH   1  21
TORSDOF 3
