REMARK  Name = ZINC59875264
REMARK  18 active torsions:
REMARK  status: ('A' for Active; 'I' for Inactive)
REMARK    1  A    between atoms: C_1  and  C_2
REMARK    2  A    between atoms: C_2  and  C_4
REMARK    3  A    between atoms: C_2  and  N_10
REMARK    4  A    between atoms: C_4  and  C_5
REMARK    5  A    between atoms: C_5  and  C_6
REMARK    6  A    between atoms: C_6  and  C_7
REMARK    7  A    between atoms: C_7  and  C_8
REMARK    8  A    between atoms: C_7  and  C_9
REMARK    9  A    between atoms: C_11  and  C_13
REMARK   10  A    between atoms: C_13  and  O_14
REMARK   11  A    between atoms: O_14  and  C_15
REMARK   12  A    between atoms: C_15  and  C_17
REMARK   13  A    between atoms: C_17  and  C_19
REMARK   14  A    between atoms: C_17  and  N_22
REMARK   15  A    between atoms: C_19  and  C_20
REMARK   16  A    between atoms: C_19  and  C_21
REMARK   17  A    between atoms: C_23  and  C_25
REMARK   18  A    between atoms: C_25  and  C_26
REMARK                            x       y       z     vdW  Elec       q    Type
REMARK                         _______ _______ _______ _____ _____    ______ ____
ROOT
ATOM      1  C   UNL     1      -5.169  -1.686   2.723  0.00  0.00    +0.328 C 
ATOM      2  O   UNL     1      -5.840  -2.014   1.773  0.00  0.00    -0.249 OA
ENDROOT
BRANCH   1   3
ATOM      3  O   UNL     1      -3.917  -1.239   2.538  0.00  0.00    -0.454 OA
BRANCH   3   4
ATOM      4  C   UNL     1      -3.442  -1.177   1.191  0.00  0.00    +0.327 C 
BRANCH   4   6
ATOM      5  N   UNL     1      -1.372  -0.511   0.012  0.00  0.00    -0.310 N 
ATOM      6  C   UNL     1      -2.029  -0.655   1.181  0.00  0.00    +0.251 C 
ATOM      7  O   UNL     1      -1.481  -0.365   2.224  0.00  0.00    -0.272 OA
ATOM      8  H   UNL     1      -1.810  -0.743  -0.822  0.00  0.00    +0.149 HD
BRANCH   5  10
ATOM      9  C   UNL     1      -0.019   1.526   0.010  0.00  0.00    +0.028 C 
ATOM     10  C   UNL     1       0.002  -0.004   0.002  0.00  0.00    +0.070 C 
BRANCH  10  11
ATOM     11  C   UNL     1       0.718  -0.497  -1.257  0.00  0.00    +0.022 C 
BRANCH  11  12
ATOM     12  C   UNL     1       0.849  -2.021  -1.205  0.00  0.00    +0.002 C 
BRANCH  12  13
ATOM     13  C   UNL     1       1.565  -2.514  -2.464  0.00  0.00    +0.003 C 
BRANCH  13  14
ATOM     14  C   UNL     1       1.696  -4.038  -2.412  0.00  0.00    -0.017 C 
ATOM     15  C   UNL     1       0.305  -4.671  -2.463  0.00  0.00    +0.007 C 
ATOM     16  C   UNL     1       2.521  -4.520  -3.607  0.00  0.00    +0.007 C 
ENDBRANCH  13  14
ENDBRANCH  12  13
ENDBRANCH  11  12
ENDBRANCH  10  11
ENDBRANCH   5  10
ENDBRANCH   4   6
ENDBRANCH   3   4
ENDBRANCH   1   3
BRANCH   1  17
ATOM     17  C   UNL     1      -5.738  -1.779   4.115  0.00  0.00    +0.184 C 
BRANCH  17  18
ATOM     18  N   UNL     1      -7.109  -2.291   4.049  0.00  0.00    -0.302 N 
ATOM     19  C   UNL     1      -7.984  -2.004   5.033  0.00  0.00    +0.218 C 
ATOM     20  O   UNL     1      -7.636  -1.321   5.973  0.00  0.00    -0.275 OA
ATOM     21  H   UNL     1      -7.387  -2.837   3.297  0.00  0.00    +0.150 HD
BRANCH  19  22
ATOM     22  C   UNL     1      -9.394  -2.531   4.965  0.00  0.00    +0.130 C 
BRANCH  22  23
ATOM     23  C   UNL     1     -10.162  -2.070   6.178  0.00  0.00    -0.039 A 
ATOM     24  C   UNL     1     -10.169  -2.841   7.325  0.00  0.00    +0.004 A 
ATOM     25  C   UNL     1     -10.873  -2.418   8.437  0.00  0.00    +0.000 A 
ATOM     26  C   UNL     1     -11.569  -1.225   8.402  0.00  0.00    +0.000 A 
ATOM     27  C   UNL     1     -11.561  -0.453   7.255  0.00  0.00    +0.000 A 
ATOM     28  C   UNL     1     -10.853  -0.874   6.144  0.00  0.00    +0.004 A 
ENDBRANCH  22  23
ENDBRANCH  19  22
ENDBRANCH  17  18
BRANCH  17  29
ATOM     29  C   UNL     1      -4.880  -2.727   4.955  0.00  0.00    +0.014 C 
ATOM     30  C   UNL     1      -3.448  -2.192   5.024  0.00  0.00    +0.009 C 
ATOM     31  C   UNL     1      -5.457  -2.821   6.368  0.00  0.00    +0.009 C 
ENDBRANCH  17  29
ENDBRANCH   1  17
TORSDOF 13
