REMARK  Name = ZINC01407238
REMARK  11 active torsions:
REMARK  status: ('A' for Active; 'I' for Inactive)
REMARK    1  A    between atoms: C_1  and  C_2
REMARK    2  A    between atoms: C_4  and  C_41
REMARK    3  A    between atoms: C_6  and  S_8
REMARK    4  A    between atoms: S_8  and  C_9
REMARK    5  A    between atoms: C_9  and  C_10
REMARK    6  A    between atoms: N_12  and  C_13
REMARK    7  A    between atoms: N_12  and  C_21
REMARK    8  A    between atoms: C_13  and  C_14
REMARK    9  A    between atoms: C_21  and  C_23
REMARK   10  A    between atoms: C_21  and  C_29
REMARK   11  A    between atoms: N_31  and  C_32
REMARK                            x       y       z     vdW  Elec       q    Type
REMARK                         _______ _______ _______ _____ _____    ______ ____
ROOT
ATOM      1  C   UNL     1       2.368   6.718   0.295  0.00  0.00    +0.227 C 
ATOM      2  O   UNL     1       2.021   7.700   0.916  0.00  0.00    -0.275 OA
ATOM      3  N   UNL     1       3.637   6.614  -0.147  0.00  0.00    -0.281 N 
ENDROOT
BRANCH   1   4
ATOM      4  C   UNL     1       1.381   5.614   0.017  0.00  0.00    +0.173 C 
BRANCH   4   5
ATOM      5  S   UNL     1      -0.224   6.046   0.734  0.00  0.00    -0.077 S 
BRANCH   5  11
ATOM      6  C   UNL     1      -0.559   1.482  -1.557  0.00  0.00    +0.066 C 
ATOM      7  C   UNL     1      -1.238   2.577  -0.775  0.00  0.00    +0.043 A 
ATOM      8  C   UNL     1      -2.575   2.464  -0.426  0.00  0.00    +0.046 A 
ATOM      9  C   UNL     1      -3.162   3.493   0.293  0.00  0.00    +0.043 A 
ATOM     10  N   UNL     1      -2.434   4.547   0.623  0.00  0.00    -0.227 NA
ATOM     11  C   UNL     1      -1.157   4.624   0.274  0.00  0.00    +0.189 A 
ATOM     12  N   UNL     1      -0.567   3.657  -0.414  0.00  0.00    -0.227 NA
ATOM     13  C   UNL     1      -4.612   3.413   0.695  0.00  0.00    +0.066 C 
ENDBRANCH   5  11
ENDBRANCH   4   5
ENDBRANCH   1   4
BRANCH   3  14
ATOM     14  C   UNL     1       4.088   5.380  -0.795  0.00  0.00    +0.145 C 
BRANCH  14  15
ATOM     15  C   UNL     1       3.940   5.514  -2.289  0.00  0.00    -0.012 A 
ATOM     16  C   UNL     1       2.829   4.990  -2.923  0.00  0.00    +0.006 A 
ATOM     17  C   UNL     1       2.691   5.117  -4.293  0.00  0.00    +0.000 A 
ATOM     18  C   UNL     1       3.668   5.759  -5.030  0.00  0.00    +0.001 A 
ATOM     19  C   UNL     1       4.781   6.278  -4.398  0.00  0.00    +0.020 A 
ATOM     20  C   UNL     1       4.918   6.156  -3.027  0.00  0.00    +0.046 A 
ATOM     21 CL   UNL     1       6.317   6.809  -2.232  0.00  0.00    -0.083 Cl
ENDBRANCH  14  15
ENDBRANCH   3  14
BRANCH   3  22
ATOM     22  C   UNL     1       4.565   7.736   0.020  0.00  0.00    +0.193 C 
BRANCH  22  23
ATOM     23  C   UNL     1       4.162   8.863  -0.896  0.00  0.00    -0.018 A 
ATOM     24  C   UNL     1       2.848   8.980  -1.310  0.00  0.00    +0.006 A 
ATOM     25  C   UNL     1       2.477  10.016  -2.147  0.00  0.00    +0.000 A 
ATOM     26  C   UNL     1       3.422  10.930  -2.576  0.00  0.00    +0.000 A 
ATOM     27  C   UNL     1       4.736  10.810  -2.165  0.00  0.00    +0.000 A 
ATOM     28  C   UNL     1       5.106   9.776  -1.326  0.00  0.00    +0.006 A 
ENDBRANCH  22  23
BRANCH  22  29
ATOM     29  C   UNL     1       4.526   8.211   1.449  0.00  0.00    +0.242 C 
ATOM     30  O   UNL     1       3.921   7.573   2.284  0.00  0.00    -0.273 OA
ATOM     31  N   UNL     1       5.164   9.346   1.800  0.00  0.00    -0.284 N 
ATOM     32  H   UNL     1       5.585   9.895   1.120  0.00  0.00    +0.155 HD
BRANCH  31  33
ATOM     33  C   UNL     1       5.219   9.731   3.146  0.00  0.00    +0.037 A 
ATOM     34  C   UNL     1       5.223  11.078   3.482  0.00  0.00    +0.027 A 
ATOM     35  C   UNL     1       5.273  11.460   4.809  0.00  0.00    +0.051 A 
ATOM     36  C   UNL     1       5.329  10.500   5.807  0.00  0.00    +0.166 A 
ATOM     37  C   UNL     1       5.331   9.148   5.472  0.00  0.00    +0.168 A 
ATOM     38  C   UNL     1       5.276   8.766   4.142  0.00  0.00    +0.072 A 
ATOM     39  O   UNL     1       5.391   8.414   6.621  0.00  0.00    -0.453 OA
ATOM     40  C   UNL     1       5.838   9.328   7.639  0.00  0.00    +0.466 C 
ATOM     41  O   UNL     1       5.388  10.612   7.167  0.00  0.00    -0.453 OA
ENDBRANCH  31  33
ENDBRANCH  22  29
ENDBRANCH   3  22
TORSDOF 9
