REMARK  Name = ZINC59303505
REMARK  9 active torsions:
REMARK  status: ('A' for Active; 'I' for Inactive)
REMARK    1  A    between atoms: C_1  and  C_2
REMARK    2  A    between atoms: C_5  and  N_9
REMARK    3  A    between atoms: C_6  and  C_8
REMARK    4  A    between atoms: N_12  and  N_13
REMARK    5  A    between atoms: C_14  and  C_15
REMARK    6  A    between atoms: C_17  and  C_31
REMARK    7  A    between atoms: N_18  and  C_21
REMARK    8  A    between atoms: C_19  and  C_20
REMARK    9  A    between atoms: C_24  and  C_28
REMARK                            x       y       z     vdW  Elec       q    Type
REMARK                         _______ _______ _______ _____ _____    ______ ____
ROOT
ATOM      1  C   UNL     1      -0.172  -8.922   1.300  0.00  0.00    +0.016 A 
ATOM      2  C   UNL     1      -0.248 -10.376   1.474  0.00  0.00    +0.032 A 
ATOM      3  C   UNL     1      -0.199 -10.608   2.798  0.00  0.00    +0.022 A 
ATOM      4  N   UNL     1      -0.100  -9.413   3.453  0.00  0.00    -0.317 N 
ATOM      5  C   UNL     1      -0.077  -8.390   2.553  0.00  0.00    +0.030 A 
ATOM      6  C   UNL     1       0.030  -6.924   2.885  0.00  0.00    +0.064 C 
ATOM      7  C   UNL     1      -0.246 -11.964   3.453  0.00  0.00    +0.064 C 
ENDROOT
BRANCH   4   8
ATOM      8  C   UNL     1      -0.026  -9.262   4.839  0.00  0.00    +0.048 A 
ATOM      9  C   UNL     1      -1.057  -8.624   5.523  0.00  0.00    +0.027 A 
ATOM     10  C   UNL     1      -0.989  -8.473   6.889  0.00  0.00    +0.018 A 
ATOM     11  C   UNL     1       0.118  -8.962   7.592  0.00  0.00    +0.082 A 
ATOM     12  C   UNL     1       1.153  -9.603   6.900  0.00  0.00    +0.057 A 
ATOM     13  C   UNL     1       1.074  -9.755   5.532  0.00  0.00    +0.047 A 
ATOM     14 CL   UNL     1       2.530 -10.212   7.765  0.00  0.00    -0.083 Cl
BRANCH  11  15
ATOM     15  C   UNL     1       0.195  -8.802   9.053  0.00  0.00    +0.388 C 
ATOM     16  O   UNL     1      -0.711  -8.241   9.655  0.00  0.00    -0.241 OA
ATOM     17  O   UNL     1       1.163  -9.230   9.665  0.00  0.00    -0.241 OA
ENDBRANCH  11  15
ENDBRANCH   4   8
BRANCH   1  19
ATOM     18  N   UNL     1      -0.108  -6.887   0.025  0.00  0.00    -0.186 NA
ATOM     19  C   UNL     1      -0.189  -8.182   0.025  0.00  0.00    +0.140 C 
BRANCH  18  23
ATOM     20  N   UNL     1       0.059  -4.170  -0.021  0.00  0.00    -0.268 N 
ATOM     21  C   UNL     1      -0.040  -4.838  -1.187  0.00  0.00    +0.323 C 
ATOM     22  O   UNL     1      -0.054  -4.228  -2.239  0.00  0.00    -0.251 OA
ATOM     23  N   UNL     1      -0.124  -6.184  -1.187  0.00  0.00    -0.191 N 
ATOM     24  H   UNL     1       0.135  -4.658   0.814  0.00  0.00    +0.156 HD
ATOM     25  H   UNL     1      -0.195  -6.665  -2.026  0.00  0.00    +0.179 HD
BRANCH  20  30
ATOM     26  C   UNL     1       0.025   1.503   0.005  0.00  0.00    +0.044 C 
ATOM     27  C   UNL     1       0.034  -0.004  -0.002  0.00  0.00    -0.050 A 
ATOM     28  C   UNL     1       0.632  -0.685  -1.046  0.00  0.00    +0.005 A 
ATOM     29  C   UNL     1       0.641  -2.066  -1.055  0.00  0.00    +0.024 A 
ATOM     30  C   UNL     1       0.051  -2.771  -0.014  0.00  0.00    +0.038 A 
ATOM     31  C   UNL     1      -0.549  -2.083   1.033  0.00  0.00    -0.029 A 
ATOM     32  C   UNL     1      -0.551  -0.702   1.039  0.00  0.00    +0.008 A 
ATOM     33  C   UNL     1      -1.191  -2.844   2.165  0.00  0.00    +0.045 C 
ENDBRANCH  20  30
ENDBRANCH  18  23
ENDBRANCH   1  19
TORSDOF 5
