REMARK  Name = ZINC29845612
REMARK  4 active torsions:
REMARK  status: ('A' for Active; 'I' for Inactive)
REMARK    1  A    between atoms: C_1  and  C_2
REMARK    2  A    between atoms: C_2  and  C_22
REMARK    3  A    between atoms: N_5  and  C_9
REMARK    4  A    between atoms: C_9  and  C_10
REMARK                            x       y       z     vdW  Elec       q    Type
REMARK                         _______ _______ _______ _____ _____    ______ ____
ROOT
ATOM      1  C   UNL     1      -6.812   5.682   3.938  0.00  0.00    +0.047 C 
ATOM      2  C   UNL     1      -5.425   5.232   3.476  0.00  0.00    +0.135 C 
ATOM      3  C   UNL     1      -5.540   4.127   2.446  0.00  0.00    +0.251 C 
ATOM      4  O   UNL     1      -6.040   3.033   2.597  0.00  0.00    -0.272 OA
ATOM      5  N   UNL     1      -4.967   4.612   1.326  0.00  0.00    -0.218 N 
ATOM      6  C   UNL     1      -4.519   5.860   1.502  0.00  0.00    +0.310 C 
ATOM      7  O   UNL     1      -3.969   6.509   0.634  0.00  0.00    -0.252 OA
ATOM      8  N   UNL     1      -4.744   6.316   2.747  0.00  0.00    -0.281 N 
ATOM      9  H   UNL     1      -4.525   7.267   3.254  0.00  0.00    +0.152 HD
ENDROOT
BRANCH   2  10
ATOM     10  C   UNL     1      -4.597   4.782   4.652  0.00  0.00    -0.015 A 
ATOM     11  C   UNL     1      -4.652   3.467   5.074  0.00  0.00    +0.007 A 
ATOM     12  C   UNL     1      -3.888   3.053   6.149  0.00  0.00    +0.020 A 
ATOM     13  C   UNL     1      -3.077   3.958   6.810  0.00  0.00    +0.041 A 
ATOM     14  C   UNL     1      -3.027   5.275   6.391  0.00  0.00    +0.020 A 
ATOM     15  C   UNL     1      -3.787   5.687   5.313  0.00  0.00    +0.007 A 
ATOM     16 CL   UNL     1      -2.123   3.440   8.165  0.00  0.00    -0.084 Cl
ENDBRANCH   2  10
BRANCH   5  17
ATOM     17  C   UNL     1      -4.856   3.866   0.069  0.00  0.00    +0.173 C 
BRANCH  17  18
ATOM     18  C   UNL     1      -3.559   3.099   0.053  0.00  0.00    +0.067 A 
ATOM     19  C   UNL     1      -3.574   1.718   0.046  0.00  0.00    +0.095 A 
ATOM     20  C   UNL     1      -2.357   1.028   0.031  0.00  0.00    +0.259 A 
ATOM     21  O   UNL     1      -2.336  -0.193   0.025  0.00  0.00    -0.267 OA
ATOM     22  N   UNL     1      -1.206   1.733   0.017  0.00  0.00    -0.267 N 
ATOM     23  C   UNL     1      -0.013   1.076   0.008  0.00  0.00    +0.116 A 
ATOM     24  C   UNL     1       1.154   1.761   0.001  0.00  0.00    +0.058 A 
ATOM     25  C   UNL     1       1.147   3.164   0.008  0.00  0.00    +0.025 A 
ATOM     26  C   UNL     1      -0.041   3.830   0.023  0.00  0.00    +0.048 A 
ATOM     27  C   UNL     1      -1.244   3.099   0.031  0.00  0.00    +0.141 A 
ATOM     28  N   UNL     1      -2.406   3.750   0.045  0.00  0.00    -0.232 NA
ATOM     29 CL   UNL     1       2.663   0.902  -0.018  0.00  0.00    -0.082 Cl
ENDBRANCH  17  18
ENDBRANCH   5  17
TORSDOF 3
