REMARK  Name = ZINC01637780
REMARK  6 active torsions:
REMARK  status: ('A' for Active; 'I' for Inactive)
REMARK    1  A    between atoms: C_4  and  C_7
REMARK    2  A    between atoms: C_7  and  C_8
REMARK    3  A    between atoms: N_10  and  N_11
REMARK    4  A    between atoms: N_18  and  N_19
REMARK    5  A    between atoms: C_20  and  C_22
REMARK    6  A    between atoms: N_28  and  C_29
REMARK                            x       y       z     vdW  Elec       q    Type
REMARK                         _______ _______ _______ _____ _____    ______ ____
ROOT
ATOM      1  N   UNL     1      -2.363   4.035   0.362  0.00  0.00    -0.232 N 
ATOM      2  C   UNL     1      -1.166   3.347   0.356  0.00  0.00    +0.238 A 
ATOM      3  N   UNL     1      -1.158   2.029   0.179  0.00  0.00    -0.180 NA
ATOM      4  C   UNL     1      -0.006   1.366   0.179  0.00  0.00    +0.225 A 
ATOM      5  N   UNL     1       1.139   2.022   0.345  0.00  0.00    -0.180 NA
ATOM      6  C   UNL     1       1.131   3.340   0.515  0.00  0.00    +0.238 A 
ATOM      7  N   UNL     1      -0.022   4.003   0.521  0.00  0.00    -0.179 NA
ATOM      8  N   UNL     1       2.319   4.021   0.687  0.00  0.00    -0.232 N 
ATOM      9  N   UNL     1       0.002  -0.004   0.002  0.00  0.00    -0.283 N 
ATOM     10  H   UNL     1      -3.198   3.556   0.241  0.00  0.00    +0.173 HD
ATOM     11  H   UNL     1       3.160   3.537   0.683  0.00  0.00    +0.173 HD
ATOM     12  H   UNL     1      -0.835  -0.493  -0.039  0.00  0.00    +0.155 HD
ENDROOT
BRANCH   9  13
ATOM     13  C   UNL     1       1.217  -0.686  -0.119  0.00  0.00    +0.034 A 
ATOM     14  C   UNL     1       2.300  -0.075  -0.737  0.00  0.00    +0.025 A 
ATOM     15  C   UNL     1       3.501  -0.749  -0.850  0.00  0.00    +0.022 A 
ATOM     16  C   UNL     1       3.621  -2.036  -0.358  0.00  0.00    +0.041 A 
ATOM     17  C   UNL     1       2.542  -2.650   0.254  0.00  0.00    +0.022 A 
ATOM     18  C   UNL     1       1.341  -1.979   0.374  0.00  0.00    +0.025 A 
ATOM     19 CL   UNL     1       5.129  -2.883  -0.508  0.00  0.00    -0.084 Cl
ENDBRANCH   9  13
BRANCH   1  22
ATOM     20  C   UNL     1      -3.540   6.096   0.549  0.00  0.00    +0.233 C 
ATOM     21  O   UNL     1      -4.584   5.498   0.398  0.00  0.00    -0.274 OA
ATOM     22  N   UNL     1      -2.371   5.424   0.543  0.00  0.00    -0.234 N 
ATOM     23  H   UNL     1      -1.536   5.902   0.663  0.00  0.00    +0.173 HD
BRANCH  20  24
ATOM     24  C   UNL     1      -3.549   7.590   0.743  0.00  0.00    +0.132 C 
BRANCH  24  28
ATOM     25  C   UNL     1      -7.575   9.014   0.648  0.00  0.00    +0.000 A 
ATOM     26  C   UNL     1      -7.006   8.630   1.848  0.00  0.00    +0.000 A 
ATOM     27  C   UNL     1      -5.703   8.168   1.879  0.00  0.00    +0.004 A 
ATOM     28  C   UNL     1      -4.969   8.092   0.710  0.00  0.00    -0.039 A 
ATOM     29  C   UNL     1      -5.536   8.483  -0.489  0.00  0.00    +0.004 A 
ATOM     30  C   UNL     1      -6.841   8.939  -0.520  0.00  0.00    +0.000 A 
ENDBRANCH  24  28
ENDBRANCH  20  24
ENDBRANCH   1  22
BRANCH   8  31
ATOM     31  N   UNL     1       2.311   5.410   0.867  0.00  0.00    -0.230 N 
ATOM     32  C   UNL     1       3.471   6.075   1.035  0.00  0.00    +0.260 C 
ATOM     33  O   UNL     1       4.524   5.469   1.030  0.00  0.00    -0.269 OA
ATOM     34  H   UNL     1       1.470   5.894   0.871  0.00  0.00    +0.173 HD
BRANCH  32  35
ATOM     35  C   UNL     1       3.462   7.544   1.225  0.00  0.00    +0.041 A 
ATOM     36  C   UNL     1       2.262   8.261   1.228  0.00  0.00    +0.033 A 
ATOM     37  C   UNL     1       2.299   9.629   1.414  0.00  0.00    +0.111 A 
ATOM     38  N   UNL     1       3.446  10.259   1.576  0.00  0.00    -0.263 NA
ATOM     39  C   UNL     1       4.600   9.622   1.575  0.00  0.00    +0.111 A 
ATOM     40  C   UNL     1       4.654   8.253   1.401  0.00  0.00    +0.033 A 
ENDBRANCH  32  35
ENDBRANCH   8  31
TORSDOF 6
