REMARK  Name = ZINC22433700
REMARK  12 active torsions:
REMARK  status: ('A' for Active; 'I' for Inactive)
REMARK    1  A    between atoms: C_1  and  C_2
REMARK    2  A    between atoms: C_2  and  N_3
REMARK    3  A    between atoms: N_6  and  C_9
REMARK    4  A    between atoms: C_12  and  C_29
REMARK    5  A    between atoms: C_14  and  N_15
REMARK    6  A    between atoms: C_16  and  C_18
REMARK    7  A    between atoms: C_18  and  C_19
REMARK    8  A    between atoms: C_18  and  C_20
REMARK    9  A    between atoms: C_18  and  O_21
REMARK   10  A    between atoms: O_21  and  C_22
REMARK   11  A    between atoms: C_29  and  O_31
REMARK   12  A    between atoms: O_31  and  C_32
REMARK                            x       y       z     vdW  Elec       q    Type
REMARK                         _______ _______ _______ _____ _____    ______ ____
ROOT
ATOM      1  C   UNL     1      -0.966   0.523  -1.140  0.00  0.00    +0.051 A 
ATOM      2  C   UNL     1      -1.833   1.163  -0.260  0.00  0.00    +0.026 A 
ATOM      3  C   UNL     1      -3.143   0.753  -0.160  0.00  0.00    +0.017 A 
ATOM      4  C   UNL     1      -3.607  -0.308  -0.943  0.00  0.00    +0.061 A 
ATOM      5  C   UNL     1      -2.737  -0.953  -1.828  0.00  0.00    +0.040 A 
ATOM      6  C   UNL     1      -1.424  -0.535  -1.929  0.00  0.00    +0.056 A 
ENDROOT
BRANCH   1  10
ATOM      7  N   UNL     1       2.618   2.535  -0.563  0.00  0.00    +0.382 N 
ATOM      8  C   UNL     1       1.905   2.743  -1.831  0.00  0.00    -0.060 C 
ATOM      9  C   UNL     1       0.437   2.346  -1.659  0.00  0.00    +0.086 C 
ATOM     10  N   UNL     1       0.358   0.941  -1.238  0.00  0.00    -0.332 N 
ATOM     11  C   UNL     1       1.071   0.733   0.030  0.00  0.00    +0.086 C 
ATOM     12  C   UNL     1       2.539   1.129  -0.142  0.00  0.00    -0.060 C 
ATOM     13  H   UNL     1       2.127   3.149   0.207  0.00  0.00    -0.082 HD
BRANCH   7  15
ATOM     14  C   UNL     1       4.059   4.493  -0.861  0.00  0.00    -0.017 C 
ATOM     15  C   UNL     1       4.016   2.976  -0.667  0.00  0.00    -0.082 C 
ENDBRANCH   7  15
ENDBRANCH   1  10
BRANCH   6  16
ATOM     16  N   UNL     1      -0.551  -1.175  -2.819  0.00  0.00    -0.281 N 
ATOM     17  C   UNL     1      -0.673  -2.498  -3.050  0.00  0.00    +0.261 C 
ATOM     18  O   UNL     1      -1.579  -3.121  -2.538  0.00  0.00    -0.271 OA
ATOM     19  H   UNL     1       0.234  -0.598  -3.330  0.00  0.00    +0.155 HD
BRANCH  17  20
ATOM     20  C   UNL     1       0.316  -3.202  -3.943  0.00  0.00    +0.180 C 
ATOM     21  C   UNL     1       0.276  -2.578  -5.339  0.00  0.00    +0.065 C 
ATOM     22  C   UNL     1       1.723  -3.057  -3.360  0.00  0.00    +0.065 C 
BRANCH  20  23
ATOM     23  O   UNL     1      -0.023  -4.587  -4.030  0.00  0.00    -0.477 OA
BRANCH  23  24
ATOM     24  C   UNL     1      -1.254  -4.892  -4.519  0.00  0.00    +0.122 A 
ATOM     25  C   UNL     1      -2.140  -3.877  -4.851  0.00  0.00    +0.047 A 
ATOM     26  C   UNL     1      -3.389  -4.189  -5.354  0.00  0.00    +0.019 A 
ATOM     27  C   UNL     1      -3.759  -5.512  -5.517  0.00  0.00    +0.018 A 
ATOM     28  C   UNL     1      -2.879  -6.525  -5.181  0.00  0.00    +0.019 A 
ATOM     29  C   UNL     1      -1.628  -6.218  -4.683  0.00  0.00    +0.047 A 
ATOM     30 BR   UNL     1      -5.471  -5.935  -6.199  0.00  0.00    -0.050 Br
ENDBRANCH  23  24
ENDBRANCH  20  23
ENDBRANCH  17  20
ENDBRANCH   6  16
BRANCH   4  31
ATOM     31  C   UNL     1      -5.010  -0.747  -0.836  0.00  0.00    +0.339 C 
ATOM     32  O   UNL     1      -5.412  -1.670  -1.517  0.00  0.00    -0.245 OA
BRANCH  31  33
ATOM     33  O   UNL     1      -5.847  -0.125   0.018  0.00  0.00    -0.464 OA
ATOM     34  C   UNL     1      -7.215  -0.610   0.071  0.00  0.00    +0.280 C 
ENDBRANCH  31  33
ENDBRANCH   4  31
TORSDOF 8
