REMARK  Name = ZINC35490539
REMARK  3 active torsions:
REMARK  status: ('A' for Active; 'I' for Inactive)
REMARK    1  A    between atoms: C_1  and  C_2
REMARK    2  A    between atoms: C_2  and  C_3
REMARK    3  A    between atoms: C_9  and  C_24
REMARK                            x       y       z     vdW  Elec       q    Type
REMARK                         _______ _______ _______ _____ _____    ______ ____
ROOT
ATOM      1  C   UNL     1      -1.412  -0.526   0.013  0.00  0.00    +0.103 A 
ATOM      2  N   UNL     1      -2.214  -0.819  -0.992  0.00  0.00    -0.145 NA
ATOM      3  N   UNL     1      -3.385  -1.252  -0.811  0.00  0.00    -0.125 NA
ATOM      4  C   UNL     1      -3.882  -1.439   0.404  0.00  0.00    +0.191 A 
ATOM      5  S   UNL     1      -2.478  -0.931   1.393  0.00  0.00    -0.035 S 
ATOM      6  N   UNL     1      -5.131  -1.901   0.797  0.00  0.00    -0.230 N 
ATOM      7  C   UNL     1      -6.224  -2.309  -0.101  0.00  0.00    +0.152 C 
ATOM      8  C   UNL     1      -7.350  -2.722   0.790  0.00  0.00    +0.072 A 
ATOM      9  C   UNL     1      -8.697  -3.211   0.481  0.00  0.00    +0.199 A 
ATOM     10  O   UNL     1      -9.052  -3.524  -0.642  0.00  0.00    -0.287 OA
ATOM     11  C   UNL     1      -9.588  -3.288   1.667  0.00  0.00    +0.064 A 
ATOM     12  C   UNL     1     -10.950  -3.543   1.511  0.00  0.00    +0.015 A 
ATOM     13  C   UNL     1     -11.758  -3.606   2.612  0.00  0.00    +0.001 A 
ATOM     14  C   UNL     1     -11.227  -3.418   3.880  0.00  0.00    +0.004 A 
ATOM     15  C   UNL     1      -9.884  -3.167   4.052  0.00  0.00    +0.047 A 
ATOM     16  C   UNL     1      -9.038  -3.100   2.945  0.00  0.00    +0.139 A 
ATOM     17  O   UNL     1      -7.721  -2.863   3.138  0.00  0.00    -0.450 OA
ATOM     18  C   UNL     1      -6.935  -2.569   2.083  0.00  0.00    +0.199 A 
ATOM     19  C   UNL     1      -5.553  -2.061   2.068  0.00  0.00    +0.289 C 
ATOM     20  O   UNL     1      -4.890  -1.819   3.057  0.00  0.00    -0.266 OA
ENDROOT
BRANCH   7  21
ATOM     21  C   UNL     1      -5.787  -3.468  -0.959  0.00  0.00    -0.021 A 
ATOM     22  C   UNL     1      -4.998  -4.468  -0.421  0.00  0.00    +0.006 A 
ATOM     23  C   UNL     1      -4.597  -5.531  -1.208  0.00  0.00    +0.001 A 
ATOM     24  C   UNL     1      -4.984  -5.595  -2.533  0.00  0.00    +0.015 A 
ATOM     25  C   UNL     1      -5.774  -4.596  -3.072  0.00  0.00    +0.018 A 
ATOM     26  C   UNL     1      -6.180  -3.534  -2.282  0.00  0.00    +0.021 A 
ATOM     27 BR   UNL     1      -6.304  -4.683  -4.885  0.00  0.00    -0.050 Br
ENDBRANCH   7  21
BRANCH   1  29
ATOM     28  C   UNL     1      -0.019   1.526   0.010  0.00  0.00    +0.011 C 
ATOM     29  C   UNL     1       0.002  -0.004   0.002  0.00  0.00    +0.061 C 
ENDBRANCH   1  29
TORSDOF 2
