REMARK  Name = ZINC25574111
REMARK  9 active torsions:
REMARK  status: ('A' for Active; 'I' for Inactive)
REMARK    1  A    between atoms: C_1  and  C_2
REMARK    2  A    between atoms: C_2  and  C_10
REMARK    3  A    between atoms: C_3  and  C_4
REMARK    4  A    between atoms: C_10  and  C_12
REMARK    5  A    between atoms: C_10  and  O_30
REMARK    6  A    between atoms: C_12  and  C_18
REMARK    7  A    between atoms: N_13  and  N_14
REMARK    8  A    between atoms: N_14  and  C_15
REMARK    9  A    between atoms: C_15  and  N_17
REMARK                            x       y       z     vdW  Elec       q    Type
REMARK                         _______ _______ _______ _____ _____    ______ ____
ROOT
ATOM      1  C   UNL     1       5.664   1.218  -0.335  0.00  0.00    +0.122 C 
ATOM      2  N   UNL     1       6.743   1.415  -1.032  0.00  0.00    -0.180 NA
ENDROOT
BRANCH   1   3
ATOM      3  C   UNL     1       4.791   2.352   0.006  0.00  0.00    +0.156 A 
ATOM      4  C   UNL     1       5.175   3.670  -0.348  0.00  0.00    +0.298 A 
ATOM      5  N   UNL     1       4.403   4.691  -0.048  0.00  0.00    -0.206 NA
ATOM      6  C   UNL     1       3.245   4.486   0.596  0.00  0.00    +0.095 A 
ATOM      7  C   UNL     1       2.405   5.562   0.926  0.00  0.00    +0.050 A 
ATOM      8  C   UNL     1       1.233   5.329   1.581  0.00  0.00    +0.043 A 
ATOM      9  C   UNL     1       0.850   4.033   1.926  0.00  0.00    +0.022 A 
ATOM     10  C   UNL     1       1.642   2.967   1.628  0.00  0.00    +0.031 A 
ATOM     11  C   UNL     1       2.859   3.170   0.952  0.00  0.00    +0.090 A 
ATOM     12  N   UNL     1       3.651   2.138   0.643  0.00  0.00    -0.238 NA
ATOM     13 CL   UNL     1       0.198   6.663   1.985  0.00  0.00    -0.083 Cl
ATOM     14  O   UNL     1       6.345   3.878  -1.000  0.00  0.00    -0.263 OA
ENDBRANCH   1   3
BRANCH   2  15
ATOM     15  N   UNL     1       7.507   0.324  -1.464  0.00  0.00    -0.218 N 
ATOM     16  H   UNL     1       7.149  -0.702  -1.289  0.00  0.00    +0.176 HD
BRANCH  15  17
ATOM     17  C   UNL     1       8.680   0.530  -2.095  0.00  0.00    +0.147 C 
ATOM     18  S   UNL     1       9.614  -0.805  -2.623  0.00  0.00    -0.017 S 
BRANCH  17  19
ATOM     19  N   UNL     1       9.118   1.786  -2.309  0.00  0.00    -0.339 N 
ATOM     20  H   UNL     1      10.076   1.954  -2.823  0.00  0.00    +0.144 HD
ATOM     21  H   UNL     1       8.519   2.643  -1.969  0.00  0.00    +0.144 HD
ENDBRANCH  17  19
ENDBRANCH  15  17
ENDBRANCH   2  15
BRANCH   1  22
ATOM     22  C   UNL     1       5.307  -0.172   0.124  0.00  0.00    +0.193 C 
BRANCH  22  24
ATOM     23  C   UNL     1       2.978  -0.247  -1.051  0.00  0.00    +0.042 C 
ATOM     24  C   UNL     1       4.367  -0.803  -0.870  0.00  0.00    -0.038 C 
ATOM     25  C   UNL     1       4.761  -1.848  -1.585  0.00  0.00    +0.010 C 
BRANCH  25  26
ATOM     26  C   UNL     1       3.903  -2.366  -2.672  0.00  0.00    -0.025 A 
ATOM     27  C   UNL     1       3.887  -3.731  -2.961  0.00  0.00    +0.008 A 
ATOM     28  C   UNL     1       3.079  -4.209  -3.972  0.00  0.00    +0.001 A 
ATOM     29  C   UNL     1       2.296  -3.336  -4.707  0.00  0.00    +0.000 A 
ATOM     30  C   UNL     1       2.312  -1.981  -4.429  0.00  0.00    +0.001 A 
ATOM     31  C   UNL     1       3.111  -1.491  -3.416  0.00  0.00    +0.008 A 
ENDBRANCH  25  26
ENDBRANCH  22  24
BRANCH  22  32
ATOM     32  O   UNL     1       4.673  -0.103   1.403  0.00  0.00    -0.381 OA
ATOM     33  H   UNL     1       5.209   0.330   2.260  0.00  0.00    +0.211 HD
ENDBRANCH  22  32
ENDBRANCH   1  22
TORSDOF 8
