REMARK  Name = ZINC67185659
REMARK  8 active torsions:
REMARK  status: ('A' for Active; 'I' for Inactive)
REMARK    1  A    between atoms: C_5  and  C_7
REMARK    2  A    between atoms: C_7  and  O_8
REMARK    3  A    between atoms: O_8  and  C_9
REMARK    4  A    between atoms: C_13  and  C_15
REMARK    5  A    between atoms: C_15  and  N_16
REMARK    6  A    between atoms: N_16  and  C_17
REMARK    7  A    between atoms: C_17  and  C_18
REMARK    8  A    between atoms: C_22  and  C_24
REMARK                            x       y       z     vdW  Elec       q    Type
REMARK                         _______ _______ _______ _____ _____    ______ ____
ROOT
ATOM      1  C   UNL     1      -3.091  -6.548  -0.016  0.00  0.00    -0.046 C 
ENDROOT
BRANCH   1   6
ATOM      2  C   UNL     1      -0.273  -4.030  -0.018  0.00  0.00    +0.121 A 
ATOM      3  C   UNL     1       0.838  -4.862  -0.028  0.00  0.00    +0.045 A 
ATOM      4  C   UNL     1       0.673  -6.233  -0.033  0.00  0.00    +0.004 A 
ATOM      5  C   UNL     1      -0.599  -6.777  -0.029  0.00  0.00    +0.002 A 
ATOM      6  C   UNL     1      -1.707  -5.951  -0.020  0.00  0.00    -0.061 A 
ATOM      7  C   UNL     1      -1.547  -4.579  -0.009  0.00  0.00    +0.047 A 
BRANCH   2   8
ATOM      8  O   UNL     1      -0.113  -2.680  -0.012  0.00  0.00    -0.487 OA
BRANCH   8   9
ATOM      9  C   UNL     1       1.228  -2.186  -0.022  0.00  0.00    +0.267 C 
BRANCH   9  14
ATOM     10  C   UNL     1      -0.017   1.378   0.010  0.00  0.00    +0.001 A 
ATOM     11  C   UNL     1       1.171   2.087   0.002  0.00  0.00    +0.003 A 
ATOM     12  C   UNL     1       2.377   1.414  -0.013  0.00  0.00    +0.039 A 
ATOM     13  C   UNL     1       2.397   0.029  -0.021  0.00  0.00    +0.130 A 
ATOM     14  C   UNL     1       1.208  -0.679  -0.013  0.00  0.00    +0.025 A 
ATOM     15  C   UNL     1       0.002  -0.004   0.002  0.00  0.00    +0.010 A 
ATOM     16  F   UNL     1       3.577  -0.630  -0.036  0.00  0.00    -0.205 F 
ENDBRANCH   9  14
ENDBRANCH   8   9
ENDBRANCH   2   8
ENDBRANCH   1   6
BRANCH   1  17
ATOM     17  N   UNL     1      -3.534  -6.748   1.370  0.00  0.00    +0.384 N 
ATOM     18  H   UNL     1      -2.896  -7.374   1.839  0.00  0.00    -0.085 HD
ATOM     19  H   UNL     1      -3.549  -5.861   1.850  0.00  0.00    -0.085 HD
BRANCH  17  20
ATOM     20  C   UNL     1      -4.883  -7.330   1.374  0.00  0.00    -0.046 C 
BRANCH  20  21
ATOM     21  C   UNL     1      -5.337  -7.535   2.796  0.00  0.00    -0.064 A 
ATOM     22  C   UNL     1      -5.066  -8.729   3.442  0.00  0.00    +0.002 A 
ATOM     23  C   UNL     1      -5.479  -8.925   4.747  0.00  0.00    +0.001 A 
ATOM     24  C   UNL     1      -6.166  -7.931   5.414  0.00  0.00    +0.013 A 
ATOM     25  C   UNL     1      -6.443  -6.726   4.768  0.00  0.00    +0.037 A 
ATOM     26  C   UNL     1      -6.018  -6.531   3.453  0.00  0.00    +0.014 A 
BRANCH  25  27
ATOM     27  C   UNL     1      -7.178  -5.656   5.476  0.00  0.00    +0.242 C 
ATOM     28  O   UNL     1      -7.418  -4.607   4.911  0.00  0.00    -0.270 OA
ATOM     29  N   UNL     1      -7.583  -5.845   6.748  0.00  0.00    -0.325 N 
ATOM     30  H   UNL     1      -7.392  -6.682   7.198  0.00  0.00    +0.145 HD
ATOM     31  H   UNL     1      -8.066  -5.144   7.212  0.00  0.00    +0.145 HD
ENDBRANCH  25  27
ENDBRANCH  20  21
ENDBRANCH  17  20
ENDBRANCH   1  17
TORSDOF 8
