REMARK  Name = ZINC14834186
REMARK  15 active torsions:
REMARK  status: ('A' for Active; 'I' for Inactive)
REMARK    1  A    between atoms: C_1  and  C_2
REMARK    2  A    between atoms: C_2  and  C_3
REMARK    3  A    between atoms: C_3  and  C_4
REMARK    4  A    between atoms: C_4  and  C_5
REMARK    5  A    between atoms: C_5  and  O_6
REMARK    6  A    between atoms: O_6  and  C_7
REMARK    7  A    between atoms: C_12  and  C_13
REMARK    8  A    between atoms: N_15  and  C_16
REMARK    9  A    between atoms: C_19  and  C_22
REMARK   10  A    between atoms: N_24  and  C_25
REMARK   11  A    between atoms: N_24  and  C_28
REMARK   12  A    between atoms: C_25  and  C_26
REMARK   13  A    between atoms: C_26  and  C_27
REMARK   14  A    between atoms: C_28  and  C_29
REMARK   15  A    between atoms: C_29  and  C_30
REMARK                            x       y       z     vdW  Elec       q    Type
REMARK                         _______ _______ _______ _____ _____    ______ ____
ROOT
ATOM      1  C   UNL     1      -6.215   2.133  -2.127  0.00  0.00    +0.252 C 
ATOM      2  O   UNL     1      -6.132   1.187  -1.368  0.00  0.00    -0.270 OA
ATOM      3  N   UNL     1      -5.115   2.848  -2.436  0.00  0.00    -0.281 N 
ATOM      4  H   UNL     1      -5.192   3.646  -2.981  0.00  0.00    +0.155 HD
ENDROOT
BRANCH   1  10
ATOM      5  C   UNL     1      -8.666   1.758  -2.391  0.00  0.00    +0.133 A 
ATOM      6  C   UNL     1      -9.888   2.111  -2.945  0.00  0.00    +0.046 A 
ATOM      7  C   UNL     1      -9.973   3.187  -3.806  0.00  0.00    +0.004 A 
ATOM      8  C   UNL     1      -8.841   3.921  -4.123  0.00  0.00    +0.001 A 
ATOM      9  C   UNL     1      -7.621   3.588  -3.578  0.00  0.00    +0.017 A 
ATOM     10  C   UNL     1      -7.520   2.498  -2.710  0.00  0.00    +0.079 A 
BRANCH   5  11
ATOM     11  O   UNL     1      -8.582   0.701  -1.545  0.00  0.00    -0.491 OA
BRANCH  11  12
ATOM     12  C   UNL     1      -9.792  -0.006  -1.267  0.00  0.00    +0.229 C 
BRANCH  12  13
ATOM     13  C   UNL     1      -9.500  -1.156  -0.300  0.00  0.00    +0.041 C 
BRANCH  13  14
ATOM     14  C   UNL     1     -10.796  -1.913  -0.003  0.00  0.00    +0.003 C 
BRANCH  14  16
ATOM     15  C   UNL     1     -11.800  -3.820   1.261  0.00  0.00    +0.004 C 
ATOM     16  C   UNL     1     -10.505  -3.063   0.963  0.00  0.00    -0.003 C 
ENDBRANCH  14  16
ENDBRANCH  13  14
ENDBRANCH  12  13
ENDBRANCH  11  12
ENDBRANCH   5  11
ENDBRANCH   1  10
BRANCH   3  17
ATOM     17  C   UNL     1      -3.866   2.440  -1.972  0.00  0.00    +0.034 A 
ATOM     18  C   UNL     1      -3.580   1.083  -1.847  0.00  0.00    +0.024 A 
ATOM     19  C   UNL     1      -2.348   0.677  -1.390  0.00  0.00    +0.015 A 
ATOM     20  C   UNL     1      -1.382   1.628  -1.049  0.00  0.00    +0.037 A 
ATOM     21  C   UNL     1      -1.674   2.990  -1.170  0.00  0.00    +0.015 A 
ATOM     22  C   UNL     1      -2.906   3.389  -1.634  0.00  0.00    +0.024 A 
BRANCH  20  23
ATOM     23  C   UNL     1      -0.059   1.196  -0.558  0.00  0.00    +0.247 C 
ATOM     24  O   UNL     1       0.060   0.127   0.008  0.00  0.00    -0.270 OA
ATOM     25  N   UNL     1       1.018   1.984  -0.741  0.00  0.00    -0.298 N 
BRANCH  25  26
ATOM     26  C   UNL     1       2.313   1.599  -0.175  0.00  0.00    +0.108 C 
BRANCH  26  27
ATOM     27  C   UNL     1       3.131   0.854  -1.232  0.00  0.00    +0.016 C 
ATOM     28  C   UNL     1       4.483   0.452  -0.640  0.00  0.00    +0.005 C 
ENDBRANCH  26  27
ENDBRANCH  25  26
BRANCH  25  29
ATOM     29  C   UNL     1       0.895   3.227  -1.507  0.00  0.00    +0.108 C 
BRANCH  29  30
ATOM     30  C   UNL     1       1.011   4.423  -0.561  0.00  0.00    +0.016 C 
ATOM     31  C   UNL     1       0.882   5.721  -1.361  0.00  0.00    +0.005 C 
ENDBRANCH  29  30
ENDBRANCH  25  29
ENDBRANCH  20  23
ENDBRANCH   3  17
TORSDOF 12
