REMARK  Name = ZINC31044924
REMARK  6 active torsions:
REMARK  status: ('A' for Active; 'I' for Inactive)
REMARK    1  A    between atoms: C_4  and  N_11
REMARK    2  A    between atoms: C_5  and  C_7
REMARK    3  A    between atoms: C_12  and  C_14
REMARK    4  A    between atoms: N_19  and  C_21
REMARK    5  A    between atoms: C_21  and  C_22
REMARK    6  A    between atoms: C_24  and  C_27
REMARK                            x       y       z     vdW  Elec       q    Type
REMARK                         _______ _______ _______ _____ _____    ______ ____
ROOT
ATOM      1  C   UNL     1       0.718  -0.513   1.254  0.00  0.00    +0.059 C 
ATOM      2  C   UNL     1       2.151   0.026   1.292  0.00  0.00    +0.009 C 
ATOM      3  C   UNL     1       2.114   1.556   1.245  0.00  0.00    -0.018 C 
ATOM      4  C   UNL     1       1.375   2.005  -0.018  0.00  0.00    -0.078 C 
ATOM      5  N   UNL     1       0.010   1.464  -0.006  0.00  0.00    +0.386 N 
ATOM      6  C   UNL     1       0.020  -0.004  -0.009  0.00  0.00    -0.065 C 
ATOM      7  H   UNL     1      -0.473   1.794   0.925  0.00  0.00    -0.081 HD
ENDROOT
BRANCH   1   9
ATOM      8  N   UNL     1       1.318  -2.692   2.261  0.00  0.00    -0.285 N 
ATOM      9  C   UNL     1       0.748  -2.020   1.241  0.00  0.00    +0.219 C 
ATOM     10  O   UNL     1       0.259  -2.628   0.313  0.00  0.00    -0.275 OA
ATOM     11  H   UNL     1       1.827  -2.141   3.066  0.00  0.00    +0.155 HD
BRANCH   8  15
ATOM     12  C   UNL     1       1.154  -6.853   2.364  0.00  0.00    +0.001 A 
ATOM     13  C   UNL     1       1.269  -6.197   1.152  0.00  0.00    +0.002 A 
ATOM     14  C   UNL     1       1.318  -4.817   1.114  0.00  0.00    +0.024 A 
ATOM     15  C   UNL     1       1.263  -4.089   2.296  0.00  0.00    +0.045 A 
ATOM     16  C   UNL     1       1.146  -4.751   3.511  0.00  0.00    +0.076 A 
ATOM     17  C   UNL     1       1.092  -6.131   3.542  0.00  0.00    +0.014 A 
BRANCH  16  18
ATOM     18  C   UNL     1       1.079  -3.965   4.795  0.00  0.00    +0.419 C 
ATOM     19  F   UNL     1       0.965  -4.845   5.875  0.00  0.00    -0.166 F 
ATOM     20  F   UNL     1       2.243  -3.202   4.936  0.00  0.00    -0.166 F 
ATOM     21  F   UNL     1      -0.033  -3.117   4.764  0.00  0.00    -0.166 F 
ENDBRANCH  16  18
ENDBRANCH   8  15
ENDBRANCH   1   9
BRANCH   5  22
ATOM     22  C   UNL     1      -0.773   1.987  -1.134  0.00  0.00    +0.022 C 
BRANCH  22  23
ATOM     23  C   UNL     1      -0.968   3.471  -0.965  0.00  0.00    +0.211 A 
ATOM     24  N   UNL     1      -0.179   4.416  -1.413  0.00  0.00    -0.193 NA
ATOM     25  C   UNL     1      -0.749   5.579  -1.027  0.00  0.00    +0.202 A 
ATOM     26  N   UNL     1      -1.841   5.276  -0.373  0.00  0.00    -0.056 NA
ATOM     27  O   UNL     1      -1.982   4.072  -0.334  0.00  0.00    -0.340 OA
BRANCH  25  28
ATOM     28  C   UNL     1      -0.233   6.945  -1.294  0.00  0.00    +0.023 A 
ATOM     29  C   UNL     1       0.954   7.117  -2.003  0.00  0.00    +0.013 A 
ATOM     30  C   UNL     1       1.426   8.389  -2.255  0.00  0.00    +0.021 A 
ATOM     31  C   UNL     1       0.729   9.493  -1.793  0.00  0.00    +0.041 A 
ATOM     32  C   UNL     1      -0.448   9.326  -1.083  0.00  0.00    +0.021 A 
ATOM     33  C   UNL     1      -0.931   8.059  -0.832  0.00  0.00    +0.013 A 
ATOM     34 CL   UNL     1       1.333  11.090  -2.106  0.00  0.00    -0.084 Cl
ENDBRANCH  25  28
ENDBRANCH  22  23
ENDBRANCH   5  22
TORSDOF 6
