REMARK  Name = ZINC40310673
REMARK  7 active torsions:
REMARK  status: ('A' for Active; 'I' for Inactive)
REMARK    1  A    between atoms: C_1  and  N_2
REMARK    2  A    between atoms: N_2  and  C_3
REMARK    3  A    between atoms: N_2  and  C_4
REMARK    4  A    between atoms: C_7  and  N_20
REMARK    5  A    between atoms: C_9  and  C_10
REMARK    6  A    between atoms: N_12  and  C_13
REMARK    7  A    between atoms: C_14  and  C_18
REMARK                            x       y       z     vdW  Elec       q    Type
REMARK                         _______ _______ _______ _____ _____    ______ ____
ROOT
ATOM      1  C   UNL     1       0.000  -0.693  -1.207  0.00  0.00    +0.042 A 
ATOM      2  C   UNL     1       1.201  -1.027  -1.821  0.00  0.00    +0.025 A 
ATOM      3  C   UNL     1       1.200  -1.710  -3.019  0.00  0.00    +0.024 A 
ATOM      4  C   UNL     1      -0.002  -2.070  -3.622  0.00  0.00    +0.025 A 
ATOM      5  C   UNL     1      -1.206  -1.745  -3.024  0.00  0.00    +0.037 A 
ATOM      6  C   UNL     1      -1.215  -1.058  -1.807  0.00  0.00    +0.060 A 
ENDROOT
BRANCH   6   7
ATOM      7  C   UNL     1      -2.493  -0.714  -1.159  0.00  0.00    +0.250 C 
ATOM      8  O   UNL     1      -2.497  -0.112  -0.103  0.00  0.00    -0.270 OA
ATOM      9  N   UNL     1      -3.658  -1.067  -1.739  0.00  0.00    -0.275 N 
ATOM     10  H   UNL     1      -3.655  -1.547  -2.582  0.00  0.00    +0.156 HD
BRANCH   9  11
ATOM     11  C   UNL     1      -4.861  -0.743  -1.130  0.00  0.00    +0.089 A 
ATOM     12  C   UNL     1      -6.144  -1.026  -1.573  0.00  0.00    +0.080 A 
ATOM     13  C   UNL     1      -7.232  -0.571  -0.739  0.00  0.00    +0.028 A 
ATOM     14  C   UNL     1      -6.876   0.083   0.384  0.00  0.00    +0.048 A 
ATOM     15  S   UNL     1      -5.098   0.075   0.316  0.00  0.00    -0.081 S 
BRANCH  12  16
ATOM     16  C   UNL     1      -6.379  -1.735  -2.795  0.00  0.00    +0.102 C 
ATOM     17  N   UNL     1      -6.566  -2.296  -3.765  0.00  0.00    -0.191 NA
ENDBRANCH  12  16
ENDBRANCH   9  11
ENDBRANCH   6   7
BRANCH   1  19
ATOM     18  C   UNL     1      -0.018   1.461   0.010  0.00  0.00    +0.129 C 
ATOM     19  N   UNL     1       0.002  -0.004   0.002  0.00  0.00    -0.335 N 
ATOM     20  C   UNL     1       0.024  -0.743   1.267  0.00  0.00    +0.129 C 
ENDBRANCH   1  19
BRANCH   4  21
ATOM     21  N   UNL     1       0.009  -2.763  -4.839  0.00  0.00    -0.358 N 
ATOM     22  H   UNL     1       0.852  -2.991  -5.260  0.00  0.00    +0.142 HD
ATOM     23  H   UNL     1      -0.828  -3.015  -5.261  0.00  0.00    +0.142 HD
ENDBRANCH   4  21
TORSDOF 5
