REMARK  Name = ZINC02381855
REMARK  7 active torsions:
REMARK  status: ('A' for Active; 'I' for Inactive)
REMARK    1  A    between atoms: C_1  and  O_2
REMARK    2  A    between atoms: O_2  and  C_3
REMARK    3  A    between atoms: C_6  and  N_11
REMARK    4  A    between atoms: C_7  and  O_9
REMARK    5  A    between atoms: O_9  and  C_10
REMARK    6  A    between atoms: C_12  and  C_14
REMARK    7  A    between atoms: C_15  and  N_33
REMARK                            x       y       z     vdW  Elec       q    Type
REMARK                         _______ _______ _______ _____ _____    ______ ____
ROOT
ATOM      1  C   UNL     1       3.925  -2.401   6.193  0.00  0.00    +0.097 A 
ATOM      2  C   UNL     1       4.644  -1.820   7.215  0.00  0.00    +0.054 A 
ATOM      3  C   UNL     1       5.336  -2.690   8.153  0.00  0.00    +0.031 A 
ATOM      4  C   UNL     1       6.133  -2.320   9.274  0.00  0.00    -0.030 A 
ATOM      5  C   UNL     1       6.695  -3.288  10.037  0.00  0.00    -0.005 A 
ATOM      6  C   UNL     1       6.496  -4.639   9.712  0.00  0.00    +0.103 A 
ATOM      7  N   UNL     1       5.760  -4.983   8.669  0.00  0.00    -0.337 N 
ATOM      8  C   UNL     1       5.192  -4.072   7.908  0.00  0.00    +0.089 A 
ATOM      9  S   UNL     1       4.153  -4.147   6.470  0.00  0.00    -0.064 S 
ATOM     10  N   UNL     1       7.079  -5.626  10.493  0.00  0.00    -0.312 N 
ATOM     11  C   UNL     1       6.416  -6.117  11.712  0.00  0.00    +0.134 C 
ATOM     12  C   UNL     1       6.377  -7.648  11.657  0.00  0.00    +0.178 C 
ATOM     13  O   UNL     1       7.694  -8.145  11.406  0.00  0.00    -0.377 OA
ATOM     14  C   UNL     1       8.243  -7.739  10.150  0.00  0.00    +0.178 C 
ATOM     15  C   UNL     1       8.376  -6.216  10.126  0.00  0.00    +0.134 C 
ATOM     16  C   UNL     1       7.534  -2.978  11.251  0.00  0.00    +0.039 C 
ATOM     17  C   UNL     1       8.012  -1.528  11.216  0.00  0.00    +0.005 C 
ATOM     18  C   UNL     1       6.799  -0.623  10.972  0.00  0.00    +0.005 C 
ATOM     19  C   UNL     1       6.311  -0.851   9.543  0.00  0.00    +0.036 C 
ATOM     20  H   UNL     1       5.636  -5.923   8.462  0.00  0.00    +0.168 HD
ENDROOT
BRANCH   1  22
ATOM     21  N   UNL     1       2.528  -2.504   4.253  0.00  0.00    -0.278 N 
ATOM     22  C   UNL     1       3.178  -1.765   5.173  0.00  0.00    +0.257 C 
ATOM     23  O   UNL     1       3.124  -0.549   5.126  0.00  0.00    -0.269 OA
ATOM     24  H   UNL     1       2.503  -3.470   4.336  0.00  0.00    +0.155 HD
BRANCH  21  28
ATOM     25  C   UNL     1       0.621  -0.636   1.043  0.00  0.00    +0.124 A 
ATOM     26  C   UNL     1       1.681  -0.010   1.683  0.00  0.00    +0.047 A 
ATOM     27  C   UNL     1       2.312  -0.628   2.745  0.00  0.00    +0.030 A 
ATOM     28  C   UNL     1       1.887  -1.877   3.175  0.00  0.00    +0.076 A 
ATOM     29  C   UNL     1       0.823  -2.507   2.534  0.00  0.00    +0.145 A 
ATOM     30  C   UNL     1       0.189  -1.882   1.472  0.00  0.00    +0.093 A 
BRANCH  25  32
ATOM     31  C   UNL     1       0.499   1.256  -0.391  0.00  0.00    +0.277 C 
ATOM     32  O   UNL     1       0.002  -0.026  -0.002  0.00  0.00    -0.495 OA
ENDBRANCH  25  32
BRANCH  29  33
ATOM     33  O   UNL     1       0.403  -3.731   2.953  0.00  0.00    -0.493 OA
ATOM     34  C   UNL     1      -0.694  -4.317   2.249  0.00  0.00    +0.277 C 
ENDBRANCH  29  33
ENDBRANCH  21  28
ENDBRANCH   1  22
BRANCH   2  35
ATOM     35  N   UNL     1       4.707  -0.440   7.346  0.00  0.00    -0.356 N 
ATOM     36  H   UNL     1       3.940   0.105   7.112  0.00  0.00    +0.142 HD
ATOM     37  H   UNL     1       5.519  -0.020   7.671  0.00  0.00    +0.142 HD
ENDBRANCH   2  35
TORSDOF 5
