REMARK  Name = ZINC35271618
REMARK  19 active torsions:
REMARK  status: ('A' for Active; 'I' for Inactive)
REMARK    1  A    between atoms: C_1  and  C_2
REMARK    2  A    between atoms: C_5  and  C_31
REMARK    3  A    between atoms: C_7  and  C_30
REMARK    4  A    between atoms: C_8  and  O_29
REMARK    5  A    between atoms: C_17  and  C_28
REMARK    6  A    between atoms: C_19  and  O_27
REMARK    7  A    between atoms: C_21  and  O_26
REMARK    8  A    between atoms: C_23  and  C_24
REMARK    9  A    between atoms: C_23  and  C_25
REMARK   10  A    between atoms: C_31  and  C_33
REMARK   11  A    between atoms: C_31  and  C_42
REMARK   12  A    between atoms: C_33  and  C_34
REMARK   13  A    between atoms: C_34  and  C_35
REMARK   14  A    between atoms: C_35  and  C_37
REMARK   15  A    between atoms: C_35  and  O_41
REMARK   16  A    between atoms: C_37  and  C_38
REMARK   17  A    between atoms: C_37  and  C_39
REMARK   18  A    between atoms: C_37  and  O_40
REMARK   19  A    between atoms: C_42  and  O_43
REMARK                            x       y       z     vdW  Elec       q    Type
REMARK                         _______ _______ _______ _____ _____    ______ ____
ROOT
ATOM      1  C   UNL     1       0.375   1.676   0.515  0.00  0.00    +0.016 C 
ATOM      2  C   UNL     1       0.168   0.280   1.114  0.00  0.00    -0.003 C 
ATOM      3  C   UNL     1      -1.211   0.232   1.778  0.00  0.00    +0.012 C 
ATOM      4  C   UNL     1      -0.968   1.037   3.087  0.00  0.00    +0.005 C 
ATOM      5  C   UNL     1       0.526   0.834   3.445  0.00  0.00    +0.003 C 
ATOM      6  C   UNL     1       1.109   0.005   2.306  0.00  0.00    +0.006 C 
ATOM      7  C   UNL     1       2.519   0.293   1.842  0.00  0.00    +0.126 C 
ATOM      8  C   UNL     1       2.849  -0.669   0.698  0.00  0.00    +0.063 C 
ATOM      9  C   UNL     1       1.677  -1.135  -0.127  0.00  0.00    -0.061 C 
ATOM     10  C   UNL     1       0.442  -0.739   0.045  0.00  0.00    -0.063 C 
ATOM     11  C   UNL     1      -0.742  -1.212  -0.757  0.00  0.00    +0.031 C 
ATOM     12  C   UNL     1      -0.403  -2.397  -1.663  0.00  0.00    +0.009 C 
ATOM     13  C   UNL     1       0.957  -2.096  -2.295  0.00  0.00    +0.008 C 
ATOM     14  C   UNL     1       2.013  -2.152  -1.211  0.00  0.00    -0.005 C 
ATOM     15  C   UNL     1       3.392  -1.848  -1.792  0.00  0.00    +0.045 C 
ATOM     16  C   UNL     1       3.700  -2.838  -2.915  0.00  0.00    +0.144 C 
ATOM     17  C   UNL     1       2.671  -2.711  -4.031  0.00  0.00    +0.149 C 
ATOM     18  C   UNL     1       1.240  -2.917  -3.532  0.00  0.00    -0.003 C 
ATOM     19  C   UNL     1       0.301  -2.429  -4.661  0.00  0.00    +0.014 C 
ATOM     20  C   UNL     1       0.965  -4.406  -3.330  0.00  0.00    +0.014 C 
ATOM     21  C   UNL     1       2.063  -3.518  -0.525  0.00  0.00    +0.016 C 
ATOM     22  C   UNL     1       1.015  -1.479   2.728  0.00  0.00    +0.015 C 
ENDROOT
BRANCH  17  23
ATOM     23  O   UNL     1       2.778  -1.415  -4.632  0.00  0.00    -0.389 OA
ATOM     24  H   UNL     1       3.645  -1.232  -5.020  0.00  0.00    +0.210 HD
ENDBRANCH  17  23
BRANCH  16  25
ATOM     25  O   UNL     1       5.000  -2.542  -3.446  0.00  0.00    -0.389 OA
ATOM     26  H   UNL     1       5.714  -2.604  -2.797  0.00  0.00    +0.210 HD
ENDBRANCH  16  25
BRANCH   7  27
ATOM     27  O   UNL     1       3.435   0.039   2.923  0.00  0.00    -0.391 OA
ATOM     28  H   UNL     1       4.351   0.278   2.726  0.00  0.00    +0.210 HD
ENDBRANCH   7  27
BRANCH   5  29
ATOM     29  C   UNL     1       1.236   2.167   3.634  0.00  0.00    +0.018 C 
BRANCH  29  30
ATOM     30  C   UNL     1       0.595   3.220   2.727  0.00  0.00    +0.008 C 
BRANCH  30  31
ATOM     31  C   UNL     1       1.169   4.598   3.061  0.00  0.00    +0.034 C 
BRANCH  31  32
ATOM     32  C   UNL     1       0.528   5.651   2.154  0.00  0.00    +0.146 C 
BRANCH  32  33
ATOM     33  C   UNL     1       1.008   7.043   2.569  0.00  0.00    +0.086 C 
ATOM     34  C   UNL     1       2.531   7.117   2.439  0.00  0.00    +0.043 C 
ATOM     35  C   UNL     1       0.367   8.095   1.663  0.00  0.00    +0.043 C 
BRANCH  33  36
ATOM     36  O   UNL     1       0.633   7.290   3.926  0.00  0.00    -0.387 OA
ATOM     37  H   UNL     1       0.906   8.157   4.257  0.00  0.00    +0.210 HD
ENDBRANCH  33  36
ENDBRANCH  32  33
BRANCH  32  38
ATOM     38  O   UNL     1       0.903   5.403   0.797  0.00  0.00    -0.389 OA
ATOM     39  H   UNL     1       1.857   5.434   0.641  0.00  0.00    +0.210 HD
ENDBRANCH  32  38
ENDBRANCH  31  32
ENDBRANCH  30  31
ENDBRANCH  29  30
BRANCH  29  40
ATOM     40  C   UNL     1       1.113   2.608   5.094  0.00  0.00    +0.159 C 
BRANCH  40  41
ATOM     41  O   UNL     1       1.679   1.608   5.943  0.00  0.00    -0.395 OA
ATOM     42  H   UNL     1       1.568   1.785   6.887  0.00  0.00    +0.209 HD
ENDBRANCH  40  41
ENDBRANCH  29  40
ENDBRANCH   5  29
TORSDOF 12
