REMARK  Name = ZINC15523053
REMARK  6 active torsions:
REMARK  status: ('A' for Active; 'I' for Inactive)
REMARK    1  A    between atoms: C_4  and  C_8
REMARK    2  A    between atoms: C_8  and  N_9
REMARK    3  A    between atoms: C_12  and  C_15
REMARK    4  A    between atoms: N_17  and  C_18
REMARK    5  A    between atoms: C_21  and  S_24
REMARK    6  A    between atoms: S_24  and  N_27
REMARK                            x       y       z     vdW  Elec       q    Type
REMARK                         _______ _______ _______ _____ _____    ______ ____
ROOT
ATOM      1  N   UNL     1       4.151  -0.974   1.333  0.00  0.00    +0.383 N 
ATOM      2  C   UNL     1       3.199  -1.868   2.004  0.00  0.00    -0.078 C 
ATOM      3  C   UNL     1       3.612  -2.056   3.465  0.00  0.00    -0.006 C 
ATOM      4  C   UNL     1       5.015  -2.668   3.518  0.00  0.00    +0.072 C 
ATOM      5  C   UNL     1       5.985  -1.764   2.753  0.00  0.00    -0.006 C 
ATOM      6  C   UNL     1       5.484  -1.587   1.318  0.00  0.00    -0.078 C 
ATOM      7  H   UNL     1       4.191  -0.096   1.830  0.00  0.00    -0.081 HD
ENDROOT
BRANCH   4   8
ATOM      8  C   UNL     1       5.460  -2.783   4.954  0.00  0.00    +0.220 C 
ATOM      9  O   UNL     1       4.729  -2.413   5.847  0.00  0.00    -0.275 OA
ATOM     10  N   UNL     1       6.671  -3.298   5.244  0.00  0.00    -0.285 N 
ATOM     11  H   UNL     1       7.229  -3.656   4.536  0.00  0.00    +0.155 HD
BRANCH  10  12
ATOM     12  C   UNL     1       7.125  -3.316   6.568  0.00  0.00    +0.034 A 
ATOM     13  C   UNL     1       8.472  -3.123   6.845  0.00  0.00    +0.025 A 
ATOM     14  C   UNL     1       8.916  -3.142   8.153  0.00  0.00    +0.030 A 
ATOM     15  C   UNL     1       8.021  -3.352   9.185  0.00  0.00    +0.105 A 
ATOM     16  C   UNL     1       6.679  -3.545   8.913  0.00  0.00    +0.030 A 
ATOM     17  C   UNL     1       6.228  -3.521   7.608  0.00  0.00    +0.025 A 
BRANCH  15  18
ATOM     18  S   UNL     1       8.592  -3.375  10.852  0.00  0.00    +0.056 S 
ATOM     19  O   UNL     1       7.646  -4.132  11.595  0.00  0.00    -0.153 OA
ATOM     20  O   UNL     1       9.971  -3.714  10.805  0.00  0.00    -0.153 OA
BRANCH  18  21
ATOM     21  N   UNL     1       8.505  -1.822  11.421  0.00  0.00    -0.204 NA
ATOM     22  H   UNL     1       8.182  -1.112  10.845  0.00  0.00    +0.144 HD
ATOM     23  H   UNL     1       8.779  -1.622  12.330  0.00  0.00    +0.144 HD
ENDBRANCH  18  21
ENDBRANCH  15  18
ENDBRANCH  10  12
ENDBRANCH   4   8
BRANCH   1  24
ATOM     24  C   UNL     1       3.707  -0.734  -0.046  0.00  0.00    -0.039 C 
BRANCH  24  28
ATOM     25  C   UNL     1      -0.017   1.364  -0.003  0.00  0.00    +0.004 A 
ATOM     26  C   UNL     1       1.173   2.068  -0.018  0.00  0.00    +0.038 A 
ATOM     27  C   UNL     1       2.379   1.390  -0.032  0.00  0.00    +0.126 A 
ATOM     28  C   UNL     1       2.394   0.005  -0.031  0.00  0.00    -0.010 A 
ATOM     29  C   UNL     1       1.204  -0.698  -0.016  0.00  0.00    +0.045 A 
ATOM     30  C   UNL     1      -0.002  -0.018  -0.002  0.00  0.00    +0.020 A 
ATOM     31 CL   UNL     1       1.221  -2.434  -0.015  0.00  0.00    -0.083 Cl
ATOM     32  F   UNL     1       3.542   2.079  -0.047  0.00  0.00    -0.205 F 
ENDBRANCH  24  28
ENDBRANCH   1  24
TORSDOF 6
