REMARK  Name = ZINC02256472
REMARK  12 active torsions:
REMARK  status: ('A' for Active; 'I' for Inactive)
REMARK    1  A    between atoms: C_1  and  C_2
REMARK    2  A    between atoms: C_2  and  N_57
REMARK    3  A    between atoms: C_3  and  C_4
REMARK    4  A    between atoms: C_3  and  N_57
REMARK    5  A    between atoms: C_5  and  C_6
REMARK    6  A    between atoms: C_5  and  N_57
REMARK    7  A    between atoms: C_6  and  C_7
REMARK    8  A    between atoms: C_7  and  N_8
REMARK    9  A    between atoms: C_9  and  C_30
REMARK   10  A    between atoms: C_15  and  C_23
REMARK   11  A    between atoms: C_17  and  C_21
REMARK   12  A    between atoms: C_18  and  N_20
REMARK                            x       y       z     vdW  Elec       q    Type
REMARK                         _______ _______ _______ _____ _____    ______ ____
ROOT
ATOM      1  N   UNL     1       0.049  -2.003  -3.068  0.00  0.00    -0.312 N 
ATOM      2  C   UNL     1      -1.246  -2.408  -3.001  0.00  0.00    +0.022 A 
ATOM      3  C   UNL     1      -1.993  -2.164  -1.903  0.00  0.00    +0.068 A 
ATOM      4  C   UNL     1      -1.425  -1.480  -0.807  0.00  0.00    +0.141 A 
ATOM      5  C   UNL     1      -0.110  -1.072  -0.884  0.00  0.00    +0.072 A 
ATOM      6  C   UNL     1       0.626  -1.348  -2.044  0.00  0.00    +0.259 A 
ATOM      7  O   UNL     1       1.791  -0.992  -2.126  0.00  0.00    -0.267 OA
ATOM      8  C   UNL     1       0.535  -0.339   0.260  0.00  0.00    +0.105 C 
ATOM      9  C   UNL     1      -0.282  -0.509   1.510  0.00  0.00    +0.098 C 
ATOM     10  C   UNL     1      -1.564  -0.941   1.458  0.00  0.00    +0.199 C 
ATOM     11  O   UNL     1      -2.168  -1.237   0.293  0.00  0.00    -0.441 OA
ATOM     12  C   UNL     1      -1.859  -3.139  -4.168  0.00  0.00    +0.064 C 
ENDROOT
BRANCH   8  13
ATOM     13  C   UNL     1       0.633   1.127  -0.078  0.00  0.00    -0.016 A 
ATOM     14  C   UNL     1      -0.514   1.857  -0.324  0.00  0.00    +0.006 A 
ATOM     15  C   UNL     1      -0.425   3.202  -0.633  0.00  0.00    +0.000 A 
ATOM     16  C   UNL     1       0.812   3.816  -0.696  0.00  0.00    +0.001 A 
ATOM     17  C   UNL     1       1.960   3.087  -0.449  0.00  0.00    +0.020 A 
ATOM     18  C   UNL     1       1.871   1.741  -0.140  0.00  0.00    +0.045 A 
ATOM     19 CL   UNL     1       3.312   0.824   0.170  0.00  0.00    -0.083 Cl
ENDBRANCH   8  13
BRANCH  10  20
ATOM     20  N   UNL     1      -2.269  -1.080   2.627  0.00  0.00    -0.328 N 
ATOM     21  H   UNL     1      -1.847  -0.870   3.475  0.00  0.00    +0.145 HD
ATOM     22  H   UNL     1      -3.188  -1.388   2.606  0.00  0.00    +0.145 HD
ENDBRANCH  10  20
BRANCH   9  23
ATOM     23  C   UNL     1       0.307  -0.210   2.781  0.00  0.00    +0.101 C 
ATOM     24  N   UNL     1       0.774   0.027   3.788  0.00  0.00    -0.191 NA
ENDBRANCH   9  23
BRANCH   1  25
ATOM     25  C   UNL     1       0.830  -2.285  -4.275  0.00  0.00    +0.123 C 
BRANCH  25  26
ATOM     26  C   UNL     1       0.680  -1.125  -5.262  0.00  0.00    +0.003 C 
BRANCH  26  27
ATOM     27  C   UNL     1       1.496  -1.419  -6.522  0.00  0.00    -0.077 C 
BRANCH  27  28
ATOM     28  N   UNL     1       1.357  -0.281  -7.456  0.00  0.00    +0.379 N 
ATOM     29  H   UNL     1       1.576   0.589  -6.956  0.00  0.00    -0.082 HD
BRANCH  28  31
ATOM     30  C   UNL     1       3.701  -0.047  -8.110  0.00  0.00    -0.017 C 
ATOM     31  C   UNL     1       2.300  -0.436  -8.584  0.00  0.00    -0.082 C 
ENDBRANCH  28  31
BRANCH  28  32
ATOM     32  C   UNL     1      -0.029  -0.209  -7.962  0.00  0.00    -0.082 C 
ATOM     33  C   UNL     1      -0.244   1.159  -8.612  0.00  0.00    -0.017 C 
ENDBRANCH  28  32
ENDBRANCH  27  28
ENDBRANCH  26  27
ENDBRANCH  25  26
ENDBRANCH   1  25
TORSDOF 9
