REMARK  Name = ZINC67124809
REMARK  4 active torsions:
REMARK  status: ('A' for Active; 'I' for Inactive)
REMARK    1  A    between atoms: C_1  and  C_2
REMARK    2  A    between atoms: C_8  and  S_12
REMARK    3  A    between atoms: S_12  and  N_15
REMARK    4  A    between atoms: N_15  and  C_16
REMARK                            x       y       z     vdW  Elec       q    Type
REMARK                         _______ _______ _______ _____ _____    ______ ____
ROOT
ATOM      1  S   UNL     1       0.077  -4.986   1.701  0.00  0.00    +0.094 S 
ATOM      2  O   UNL     1      -0.953  -4.406   2.489  0.00  0.00    -0.148 OA
ATOM      3  O   UNL     1       0.122  -6.376   1.409  0.00  0.00    -0.148 OA
ENDROOT
BRANCH   1  11
ATOM      4  C   UNL     1      -0.018   1.503   0.010  0.00  0.00    +0.045 C 
ATOM      5  C   UNL     1       0.002  -0.004   0.002  0.00  0.00    -0.032 A 
ATOM      6  C   UNL     1       0.006  -0.681  -1.184  0.00  0.00    +0.015 A 
ATOM      7  C   UNL     1       0.026  -2.088  -1.146  0.00  0.00    +0.003 A 
ATOM      8  C   UNL     1       0.031  -2.852  -2.324  0.00  0.00    +0.010 A 
ATOM      9  C   UNL     1       0.051  -4.211  -2.245  0.00  0.00    +0.003 A 
ATOM     10  C   UNL     1       0.065  -4.855  -1.009  0.00  0.00    +0.031 A 
ATOM     11  C   UNL     1       0.060  -4.146   0.152  0.00  0.00    +0.136 A 
ATOM     12  C   UNL     1       0.041  -2.741   0.112  0.00  0.00    +0.098 A 
ATOM     13  N   UNL     1       0.037  -2.018   1.236  0.00  0.00    -0.253 NA
ATOM     14  C   UNL     1       0.023  -0.708   1.204  0.00  0.00    +0.114 A 
ENDBRANCH   1  11
BRANCH   1  15
ATOM     15  N   UNL     1       1.509  -4.612   2.445  0.00  0.00    -0.095 NA
BRANCH  15  16
ATOM     16  C   UNL     1       1.802  -5.144   3.705  0.00  0.00    +0.112 A 
ATOM     17  C   UNL     1       0.895  -5.989   4.331  0.00  0.00    +0.030 A 
ATOM     18  C   UNL     1       1.187  -6.513   5.575  0.00  0.00    +0.005 A 
ATOM     19  C   UNL     1       2.379  -6.198   6.200  0.00  0.00    +0.041 A 
ATOM     20  C   UNL     1       3.287  -5.355   5.580  0.00  0.00    +0.160 A 
ATOM     21  C   UNL     1       3.003  -4.831   4.330  0.00  0.00    +0.183 A 
ATOM     22  F   UNL     1       3.890  -4.013   3.722  0.00  0.00    -0.200 F 
ATOM     23  F   UNL     1       4.451  -5.048   6.193  0.00  0.00    -0.202 F 
ENDBRANCH  15  16
ENDBRANCH   1  15
TORSDOF 3
