REMARK  Name = ZINC61881535
REMARK  5 active torsions:
REMARK  status: ('A' for Active; 'I' for Inactive)
REMARK    1  A    between atoms: C_1  and  C_2
REMARK    2  A    between atoms: C_7  and  C_22
REMARK    3  A    between atoms: N_9  and  S_10
REMARK    4  A    between atoms: S_10  and  C_13
REMARK    5  A    between atoms: C_17  and  N_20
REMARK                            x       y       z     vdW  Elec       q    Type
REMARK                         _______ _______ _______ _____ _____    ______ ____
ROOT
ATOM      1  S   UNL     1       1.736   0.536   2.148  0.00  0.00    +0.062 S 
ATOM      2  O   UNL     1       1.098   1.805   2.187  0.00  0.00    -0.153 OA
ATOM      3  O   UNL     1       1.969  -0.235   3.319  0.00  0.00    -0.153 OA
ENDROOT
BRANCH   1  10
ATOM      4  C   UNL     1       0.298   1.698   0.005  0.00  0.00    +0.026 C 
ATOM      5  C   UNL     1       0.164   0.174  -0.037  0.00  0.00    +0.077 C 
ATOM      6  C   UNL     1      -1.318  -0.212   0.006  0.00  0.00    +0.020 C 
ATOM      7  C   UNL     1      -1.441  -1.734   0.104  0.00  0.00    +0.003 C 
ATOM      8  C   UNL     1      -0.777  -2.220   1.395  0.00  0.00    +0.020 C 
ATOM      9  C   UNL     1       0.711  -1.856   1.367  0.00  0.00    +0.077 C 
ATOM     10  N   UNL     1       0.843  -0.412   1.126  0.00  0.00    -0.171 NA
ATOM     11  C   UNL     1       1.407  -2.629   0.245  0.00  0.00    +0.026 C 
ENDBRANCH   1  10
BRANCH   1  12
ATOM     12  C   UNL     1       3.307   0.785   1.389  0.00  0.00    +0.123 A 
ATOM     13  C   UNL     1       3.628   2.019   0.855  0.00  0.00    +0.049 A 
ATOM     14  C   UNL     1       4.860   2.219   0.258  0.00  0.00    +0.045 A 
ATOM     15  C   UNL     1       5.774   1.184   0.194  0.00  0.00    +0.044 A 
ATOM     16  C   UNL     1       5.455  -0.057   0.729  0.00  0.00    +0.042 A 
ATOM     17  C   UNL     1       4.218  -0.252   1.332  0.00  0.00    +0.065 A 
ATOM     18 BR   UNL     1       3.780  -1.938   2.069  0.00  0.00    -0.046 Br
ATOM     19 CL   UNL     1       5.258   3.771  -0.411  0.00  0.00    -0.083 Cl
BRANCH  16  20
ATOM     20  N   UNL     1       6.376  -1.105   0.665  0.00  0.00    -0.357 N 
ATOM     21  H   UNL     1       7.240  -0.967   0.246  0.00  0.00    +0.142 HD
ATOM     22  H   UNL     1       6.152  -1.972   1.039  0.00  0.00    +0.142 HD
ENDBRANCH  16  20
ENDBRANCH   1  12
TORSDOF 3
