REMARK  Name = ZINC64538641
REMARK  8 active torsions:
REMARK  status: ('A' for Active; 'I' for Inactive)
REMARK    1  A    between atoms: C_1  and  O_2
REMARK    2  A    between atoms: O_2  and  C_3
REMARK    3  A    between atoms: C_8  and  C_22
REMARK    4  A    between atoms: C_10  and  N_13
REMARK    5  A    between atoms: C_14  and  C_16
REMARK    6  A    between atoms: N_24  and  C_25
REMARK    7  A    between atoms: C_25  and  C_26
REMARK    8  A    between atoms: C_26  and  C_27
REMARK                            x       y       z     vdW  Elec       q    Type
REMARK                         _______ _______ _______ _____ _____    ______ ____
ROOT
ATOM      1  C   UNL     1      -1.448  -0.959   1.760  0.00  0.00    +0.121 A 
ATOM      2  C   UNL     1      -2.586  -0.152   1.620  0.00  0.00    +0.047 A 
ATOM      3  C   UNL     1      -3.710  -0.601   1.012  0.00  0.00    +0.029 A 
ATOM      4  C   UNL     1      -3.756  -1.923   0.497  0.00  0.00    +0.045 A 
ATOM      5  N   UNL     1      -4.713  -2.583  -0.124  0.00  0.00    -0.369 N 
ATOM      6  C   UNL     1      -4.235  -3.932  -0.445  0.00  0.00    +0.211 C 
ATOM      7  C   UNL     1      -2.818  -4.006   0.080  0.00  0.00    +0.051 C 
ATOM      8  C   UNL     1      -2.561  -2.770   0.645  0.00  0.00    +0.021 A 
ATOM      9  C   UNL     1      -1.418  -2.233   1.287  0.00  0.00    +0.057 A 
ATOM     10  H   UNL     1      -5.593  -2.233  -0.335  0.00  0.00    +0.161 HD
ENDROOT
BRANCH   7  11
ATOM     11  N   UNL     1      -1.971  -5.071   0.010  0.00  0.00    -0.282 N 
ATOM     12  C   UNL     1      -0.643  -4.870  -0.100  0.00  0.00    +0.248 C 
ATOM     13  O   UNL     1      -0.198  -3.739  -0.102  0.00  0.00    -0.270 OA
ATOM     14  H   UNL     1      -2.324  -5.974   0.040  0.00  0.00    +0.155 HD
BRANCH  12  15
ATOM     15  C   UNL     1       0.272  -6.024  -0.219  0.00  0.00    +0.037 A 
ATOM     16  C   UNL     1      -0.237  -7.324  -0.223  0.00  0.00    +0.013 A 
ATOM     17  C   UNL     1       0.623  -8.397  -0.334  0.00  0.00    +0.001 A 
ATOM     18  C   UNL     1       1.986  -8.187  -0.441  0.00  0.00    +0.000 A 
ATOM     19  C   UNL     1       2.497  -6.901  -0.438  0.00  0.00    +0.001 A 
ATOM     20  C   UNL     1       1.648  -5.819  -0.333  0.00  0.00    +0.013 A 
ENDBRANCH  12  15
ENDBRANCH   7  11
BRANCH   6  21
ATOM     21  C   UNL     1      -5.097  -4.963   0.236  0.00  0.00    +0.241 C 
ATOM     22  O   UNL     1      -5.798  -4.646   1.173  0.00  0.00    -0.273 OA
ATOM     23  N   UNL     1      -5.089  -6.240  -0.197  0.00  0.00    -0.313 N 
ATOM     24  H   UNL     1      -4.528  -6.494  -0.947  0.00  0.00    +0.149 HD
BRANCH  23  25
ATOM     25  C   UNL     1      -5.927  -7.243   0.465  0.00  0.00    +0.108 C 
BRANCH  25  26
ATOM     26  C   UNL     1      -5.732  -8.599  -0.216  0.00  0.00    +0.049 C 
BRANCH  26  27
ATOM     27  C   UNL     1      -6.594  -9.631   0.464  0.00  0.00    -0.072 C 
ATOM     28  C   UNL     1      -7.757  -9.882  -0.045  0.00  0.00    -0.028 C 
ATOM     29  C   UNL     1      -8.729 -10.873   0.525  0.00  0.00    +0.027 C 
ATOM     30  C   UNL     1      -8.012 -11.819   1.491  0.00  0.00    +0.004 C 
ATOM     31  C   UNL     1      -7.184 -10.976   2.469  0.00  0.00    +0.005 C 
ATOM     32  C   UNL     1      -6.048 -10.309   1.687  0.00  0.00    +0.030 C 
ENDBRANCH  26  27
ENDBRANCH  25  26
ENDBRANCH  23  25
ENDBRANCH   6  21
BRANCH   1  34
ATOM     33  C   UNL     1      -0.432   0.890   2.858  0.00  0.00    +0.277 C 
ATOM     34  O   UNL     1      -0.347  -0.454   2.379  0.00  0.00    -0.495 OA
ENDBRANCH   1  34
TORSDOF 7
