REMARK  Name = ZINC14917507
REMARK  9 active torsions:
REMARK  status: ('A' for Active; 'I' for Inactive)
REMARK    1  A    between atoms: C_1  and  C_2
REMARK    2  A    between atoms: C_2  and  O_3
REMARK    3  A    between atoms: O_3  and  C_4
REMARK    4  A    between atoms: C_9  and  N_10
REMARK    5  A    between atoms: C_11  and  C_13
REMARK    6  A    between atoms: C_13  and  C_15
REMARK    7  A    between atoms: C_13  and  N_56
REMARK    8  A    between atoms: N_18  and  S_21
REMARK    9  A    between atoms: S_21  and  C_24
REMARK                            x       y       z     vdW  Elec       q    Type
REMARK                         _______ _______ _______ _____ _____    ______ ____
ROOT
ATOM      1  C   UNL     1      -1.152   2.857  -1.098  0.00  0.00    -0.060 C 
ATOM      2  C   UNL     1      -1.938   3.171  -2.376  0.00  0.00    +0.091 C 
ATOM      3  N   UNL     1      -3.069   2.235  -2.470  0.00  0.00    -0.180 NA
ATOM      4  C   UNL     1      -2.795   0.797  -2.333  0.00  0.00    +0.091 C 
ATOM      5  C   UNL     1      -1.976   0.577  -1.056  0.00  0.00    -0.060 C 
ATOM      6  N   UNL     1      -0.768   1.429  -1.115  0.00  0.00    +0.389 N 
ATOM      7  H   UNL     1      -0.263   1.230  -1.986  0.00  0.00    -0.081 HD
ENDROOT
BRANCH   3   8
ATOM      8  S   UNL     1      -4.609   2.787  -2.725  0.00  0.00    +0.062 S 
ATOM      9  O   UNL     1      -5.481   1.875  -2.072  0.00  0.00    -0.153 OA
ATOM     10  O   UNL     1      -4.597   4.176  -2.426  0.00  0.00    -0.153 OA
BRANCH   8  11
ATOM     11  C   UNL     1      -4.934   2.646  -4.451  0.00  0.00    +0.125 A 
ATOM     12  C   UNL     1      -5.889   1.756  -4.904  0.00  0.00    +0.050 A 
ATOM     13  C   UNL     1      -6.148   1.649  -6.259  0.00  0.00    +0.043 A 
ATOM     14  C   UNL     1      -5.443   2.426  -7.161  0.00  0.00    +0.021 A 
ATOM     15  C   UNL     1      -4.484   3.312  -6.709  0.00  0.00    +0.023 A 
ATOM     16  C   UNL     1      -4.229   3.423  -5.353  0.00  0.00    +0.067 A 
ATOM     17 CL   UNL     1      -3.024   4.536  -4.785  0.00  0.00    -0.082 Cl
ATOM     18 CL   UNL     1      -7.353   0.536  -6.827  0.00  0.00    -0.083 Cl
ENDBRANCH   8  11
ENDBRANCH   3   8
BRANCH   6  19
ATOM     19  C   UNL     1       0.115   1.131   0.032  0.00  0.00    +0.017 C 
ATOM     20  C   UNL     1      -0.577   1.481   1.350  0.00  0.00    -0.004 C 
BRANCH  19  22
ATOM     21  N   UNL     1       2.355   1.825   0.818  0.00  0.00    -0.284 N 
ATOM     22  C   UNL     1       1.378   1.941  -0.104  0.00  0.00    +0.203 C 
ATOM     23  O   UNL     1       1.516   2.698  -1.042  0.00  0.00    -0.277 OA
ATOM     24  H   UNL     1       2.214   1.281   1.608  0.00  0.00    +0.155 HD
BRANCH  21  30
ATOM     25  C   UNL     1       4.386   2.778   1.728  0.00  0.00    +0.142 A 
ATOM     26  C   UNL     1       5.591   3.435   1.540  0.00  0.00    +0.047 A 
ATOM     27  C   UNL     1       5.986   3.803   0.268  0.00  0.00    +0.004 A 
ATOM     28  C   UNL     1       5.181   3.517  -0.820  0.00  0.00    +0.002 A 
ATOM     29  C   UNL     1       3.981   2.857  -0.641  0.00  0.00    +0.027 A 
ATOM     30  C   UNL     1       3.575   2.490   0.633  0.00  0.00    +0.076 A 
BRANCH  25  31
ATOM     31  O   UNL     1       3.996   2.414   2.979  0.00  0.00    -0.490 OA
BRANCH  31  33
ATOM     32  C   UNL     1       4.275   2.257   5.375  0.00  0.00    +0.048 C 
ATOM     33  C   UNL     1       4.878   2.742   4.055  0.00  0.00    +0.226 C 
ENDBRANCH  31  33
ENDBRANCH  25  31
ENDBRANCH  21  30
ENDBRANCH  19  22
ENDBRANCH   6  19
TORSDOF 7
