REMARK  Name = ZINC57313887
REMARK  11 active torsions:
REMARK  status: ('A' for Active; 'I' for Inactive)
REMARK    1  A    between atoms: C_1  and  C_2
REMARK    2  A    between atoms: C_5  and  N_25
REMARK    3  A    between atoms: C_7  and  N_8
REMARK    4  A    between atoms: N_8  and  C_9
REMARK    5  A    between atoms: C_9  and  N_11
REMARK    6  A    between atoms: C_12  and  C_14
REMARK    7  A    between atoms: C_15  and  C_16
REMARK    8  A    between atoms: C_19  and  C_22
REMARK    9  A    between atoms: C_22  and  C_23
REMARK   10  A    between atoms: C_22  and  C_24
REMARK   11  A    between atoms: C_26  and  C_28
REMARK                            x       y       z     vdW  Elec       q    Type
REMARK                         _______ _______ _______ _____ _____    ______ ____
ROOT
ATOM      1  N   UNL     1       0.075   0.008   2.428  0.00  0.00    -0.296 N 
ATOM      2  H   UNL     1       0.003   0.975   2.429  0.00  0.00    +0.154 HD
ENDROOT
BRANCH   1   9
ATOM      3  C   UNL     1      -1.797   0.816   0.445  0.00  0.00    +0.045 C 
ATOM      4  C   UNL     1      -0.847  -0.332   0.221  0.00  0.00    -0.029 A 
ATOM      5  C   UNL     1      -0.866  -1.020  -0.977  0.00  0.00    +0.007 A 
ATOM      6  C   UNL     1       0.003  -2.073  -1.186  0.00  0.00    +0.024 A 
ATOM      7  C   UNL     1       0.900  -2.443  -0.192  0.00  0.00    +0.036 A 
ATOM      8  C   UNL     1       0.923  -1.754   1.012  0.00  0.00    +0.046 A 
ATOM      9  C   UNL     1       0.052  -0.693   1.217  0.00  0.00    +0.037 A 
BRANCH   7  10
ATOM     10  N   UNL     1       1.779  -3.510  -0.404  0.00  0.00    -0.279 N 
ATOM     11  C   UNL     1       1.388  -4.569  -1.139  0.00  0.00    +0.284 C 
ATOM     12  O   UNL     1       0.241  -4.642  -1.540  0.00  0.00    -0.266 OA
ATOM     13  H   UNL     1       2.671  -3.487  -0.021  0.00  0.00    +0.155 HD
BRANCH  11  14
ATOM     14  C   UNL     1       2.345  -5.634  -1.458  0.00  0.00    +0.189 A 
ATOM     15  C   UNL     1       2.083  -6.754  -2.195  0.00  0.00    +0.054 A 
ATOM     16  C   UNL     1       3.277  -7.491  -2.246  0.00  0.00    +0.042 A 
ATOM     17  C   UNL     1       4.203  -6.797  -1.548  0.00  0.00    +0.196 A 
ATOM     18  O   UNL     1       3.639  -5.677  -1.079  0.00  0.00    -0.458 OA
ENDBRANCH  11  14
ENDBRANCH   7  10
ENDBRANCH   1   9
BRANCH   1  19
ATOM     19  C   UNL     1       0.198  -0.661   3.591  0.00  0.00    +0.141 C 
ATOM     20  S   UNL     1       0.459  -2.353   3.583  0.00  0.00    -0.018 S 
BRANCH  19  21
ATOM     21  N   UNL     1       0.114   0.002   4.762  0.00  0.00    -0.264 N 
ATOM     22  C   UNL     1       0.236  -0.666   5.925  0.00  0.00    +0.242 C 
ATOM     23  O   UNL     1       0.423  -1.869   5.920  0.00  0.00    -0.270 OA
ATOM     24  H   UNL     1      -0.034   0.961   4.766  0.00  0.00    +0.157 HD
BRANCH  22  25
ATOM     25  C   UNL     1       0.146   0.054   7.196  0.00  0.00    +0.068 C 
ATOM     26  C   UNL     1       0.269  -0.616   8.361  0.00  0.00    +0.013 C 
BRANCH  26  27
ATOM     27  C   UNL     1       0.177   0.109   9.639  0.00  0.00    -0.025 A 
ATOM     28  C   UNL     1      -0.042   1.490   9.650  0.00  0.00    +0.008 A 
ATOM     29  C   UNL     1      -0.126   2.161  10.851  0.00  0.00    +0.004 A 
ATOM     30  C   UNL     1       0.006   1.472  12.044  0.00  0.00    -0.045 A 
ATOM     31  C   UNL     1       0.223   0.105  12.041  0.00  0.00    +0.004 A 
ATOM     32  C   UNL     1       0.304  -0.582  10.848  0.00  0.00    +0.008 A 
BRANCH  30  33
ATOM     33  C   UNL     1      -0.087   2.214  13.352  0.00  0.00    +0.013 C 
ATOM     34  C   UNL     1      -1.247   1.651  14.176  0.00  0.00    +0.012 C 
ATOM     35  C   UNL     1       1.220   2.043  14.129  0.00  0.00    +0.012 C 
ENDBRANCH  30  33
ENDBRANCH  26  27
ENDBRANCH  22  25
ENDBRANCH  19  21
ENDBRANCH   1  19
TORSDOF 8
