REMARK  Name = ZINC06678611
REMARK  3 active torsions:
REMARK  status: ('A' for Active; 'I' for Inactive)
REMARK    1  A    between atoms: C_1  and  C_2
REMARK    2  A    between atoms: C_11  and  C_25
REMARK    3  A    between atoms: C_14  and  C_16
REMARK                            x       y       z     vdW  Elec       q    Type
REMARK                         _______ _______ _______ _____ _____    ______ ____
ROOT
ATOM      1  C   UNL     1       0.097   1.670   2.589  0.00  0.00    +0.068 C 
ATOM      2  C   UNL     1      -0.481   0.282   2.482  0.00  0.00    +0.066 A 
ATOM      3  C   UNL     1      -0.447  -0.538   1.334  0.00  0.00    +0.032 A 
ATOM      4  C   UNL     1      -1.066  -1.699   1.639  0.00  0.00    +0.125 A 
ATOM      5  N   UNL     1      -1.480  -1.605   2.941  0.00  0.00    -0.263 N 
ATOM      6  H   UNL     1      -1.972  -2.311   3.451  0.00  0.00    +0.190 HD
ATOM      7  N   UNL     1      -1.099  -0.358   3.434  0.00  0.00    -0.177 NA
ATOM      8  N   UNL     1      -1.304  -2.833   0.899  0.00  0.00    -0.270 N 
ATOM      9  C   UNL     1      -1.081  -3.190  -0.330  0.00  0.00    +0.231 C 
ATOM     10  O   UNL     1      -1.545  -4.267  -0.640  0.00  0.00    -0.274 OA
ATOM     11  C   UNL     1      -0.351  -2.493  -1.410  0.00  0.00    +0.130 C 
ATOM     12  S   UNL     1      -0.622  -0.716  -1.407  0.00  0.00    -0.135 S 
ATOM     13  C   UNL     1       0.200  -0.091   0.061  0.00  0.00    +0.112 C 
ATOM     14  C   UNL     1      -0.806  -3.059  -2.757  0.00  0.00    +0.029 C 
ATOM     15  H   UNL     1      -1.741  -3.528   1.415  0.00  0.00    +0.156 HD
ENDROOT
BRANCH  13  16
ATOM     16  C   UNL     1       0.191   1.415   0.017  0.00  0.00    -0.026 A 
ATOM     17  C   UNL     1      -1.002   2.092  -0.161  0.00  0.00    +0.009 A 
ATOM     18  C   UNL     1      -1.016   3.474  -0.196  0.00  0.00    +0.050 A 
ATOM     19  C   UNL     1       0.167   4.184  -0.065  0.00  0.00    +0.166 A 
ATOM     20  C   UNL     1       1.368   3.502   0.108  0.00  0.00    +0.167 A 
ATOM     21  C   UNL     1       1.374   2.117   0.148  0.00  0.00    +0.054 A 
ATOM     22  O   UNL     1       2.377   4.415   0.212  0.00  0.00    -0.453 OA
ATOM     23  C   UNL     1       1.838   5.644  -0.308  0.00  0.00    +0.466 C 
ATOM     24  O   UNL     1       0.423   5.525  -0.070  0.00  0.00    -0.453 OA
ENDBRANCH  13  16
TORSDOF 1
