REMARK  Name = ZINC40688816
REMARK  9 active torsions:
REMARK  status: ('A' for Active; 'I' for Inactive)
REMARK    1  A    between atoms: C_1  and  C_2
REMARK    2  A    between atoms: C_4  and  C_27
REMARK    3  A    between atoms: C_7  and  N_8
REMARK    4  A    between atoms: C_10  and  N_25
REMARK    5  A    between atoms: C_11  and  N_15
REMARK    6  A    between atoms: N_15  and  C_16
REMARK    7  A    between atoms: C_19  and  C_22
REMARK    8  A    between atoms: C_27  and  C_29
REMARK    9  A    between atoms: C_27  and  C_31
REMARK                            x       y       z     vdW  Elec       q    Type
REMARK                         _______ _______ _______ _____ _____    ______ ____
ROOT
ATOM      1  N   UNL     1       0.611  -0.881   2.732  0.00  0.00    -0.298 N 
ATOM      2  C   UNL     1       0.294  -1.523   3.924  0.00  0.00    +0.149 A 
ATOM      3  C   UNL     1       0.349  -0.833   5.137  0.00  0.00    +0.106 A 
ATOM      4  C   UNL     1       0.020  -1.524   6.304  0.00  0.00    +0.149 A 
ATOM      5  N   UNL     1      -0.330  -2.805   6.217  0.00  0.00    -0.219 NA
ATOM      6  C   UNL     1      -0.369  -3.419   5.053  0.00  0.00    +0.225 A 
ATOM      7  N   UNL     1      -0.071  -2.802   3.927  0.00  0.00    -0.219 NA
ATOM      8  H   UNL     1       0.786   0.073   2.726  0.00  0.00    +0.154 HD
ENDROOT
BRANCH   1  15
ATOM      9  C   UNL     1       0.033   0.468   0.295  0.00  0.00    +0.045 C 
ATOM     10  C   UNL     1       0.404  -0.993   0.330  0.00  0.00    -0.029 A 
ATOM     11  C   UNL     1       0.477  -1.715  -0.845  0.00  0.00    +0.011 A 
ATOM     12  C   UNL     1       0.817  -3.055  -0.815  0.00  0.00    -0.008 A 
ATOM     13  C   UNL     1       1.087  -3.677   0.392  0.00  0.00    +0.047 A 
ATOM     14  C   UNL     1       1.016  -2.959   1.571  0.00  0.00    +0.043 A 
ATOM     15  C   UNL     1       0.679  -1.611   1.542  0.00  0.00    +0.037 A 
ATOM     16 CL   UNL     1       1.513  -5.359   0.425  0.00  0.00    -0.083 Cl
BRANCH  12  17
ATOM     17  C   UNL     1       0.894  -3.840  -2.099  0.00  0.00    +0.153 C 
BRANCH  17  18
ATOM     18  C   UNL     1      -0.479  -3.938  -2.711  0.00  0.00    -0.026 A 
ATOM     19  C   UNL     1      -1.068  -2.819  -3.269  0.00  0.00    +0.006 A 
ATOM     20  C   UNL     1      -2.328  -2.908  -3.831  0.00  0.00    +0.020 A 
ATOM     21  C   UNL     1      -2.999  -4.118  -3.835  0.00  0.00    +0.041 A 
ATOM     22  C   UNL     1      -2.409  -5.238  -3.276  0.00  0.00    +0.020 A 
ATOM     23  C   UNL     1      -1.147  -5.149  -2.720  0.00  0.00    +0.006 A 
ATOM     24 CL   UNL     1      -4.582  -4.231  -4.540  0.00  0.00    -0.084 Cl
ENDBRANCH  17  18
BRANCH  17  25
ATOM     25  C   UNL     1       1.802  -3.159  -3.037  0.00  0.00    +0.075 C 
ATOM     26  N   UNL     1       2.503  -2.634  -3.760  0.00  0.00    -0.196 NA
ENDBRANCH  17  25
ENDBRANCH  12  17
ENDBRANCH   1  15
BRANCH   3  27
ATOM     27  N   UNL     1       0.725   0.519   5.182  0.00  0.00    -0.353 N 
ATOM     28  H   UNL     1       0.951   0.987   4.362  0.00  0.00    +0.143 HD
ATOM     29  H   UNL     1       0.758   0.985   6.031  0.00  0.00    +0.143 HD
ENDBRANCH   3  27
BRANCH   4  30
ATOM     30  N   UNL     1       0.059  -0.885   7.539  0.00  0.00    -0.298 N 
ATOM     31  H   UNL     1       0.319   0.048   7.594  0.00  0.00    +0.154 HD
BRANCH  30  32
ATOM     32  C   UNL     1      -0.275  -1.583   8.694  0.00  0.00    +0.032 A 
ATOM     33  C   UNL     1       0.059  -2.929   8.813  0.00  0.00    +0.024 A 
ATOM     34  C   UNL     1      -0.267  -3.618   9.946  0.00  0.00    +0.017 A 
ATOM     35  C   UNL     1      -0.939  -2.969  10.989  0.00  0.00    +0.063 A 
ATOM     36  C   UNL     1      -1.273  -1.615  10.866  0.00  0.00    +0.017 A 
ATOM     37  C   UNL     1      -0.939  -0.932   9.731  0.00  0.00    +0.024 A 
BRANCH  35  38
ATOM     38  C   UNL     1      -1.293  -3.708  12.211  0.00  0.00    +0.387 C 
ATOM     39  O   UNL     1      -1.000  -4.891  12.317  0.00  0.00    -0.241 OA
ATOM     40  O   UNL     1      -1.880  -3.139  13.121  0.00  0.00    -0.241 OA
ENDBRANCH  35  38
ENDBRANCH  30  32
ENDBRANCH   4  30
TORSDOF 8
