REMARK  Name = ZINC40046018
REMARK  8 active torsions:
REMARK  status: ('A' for Active; 'I' for Inactive)
REMARK    1  A    between atoms: C_1  and  C_2
REMARK    2  A    between atoms: C_2  and  C_3
REMARK    3  A    between atoms: C_17  and  C_19
REMARK    4  A    between atoms: C_22  and  O_27
REMARK    5  A    between atoms: C_23  and  O_25
REMARK    6  A    between atoms: O_25  and  C_26
REMARK    7  A    between atoms: C_31  and  C_38
REMARK    8  A    between atoms: C_33  and  C_37
REMARK                            x       y       z     vdW  Elec       q    Type
REMARK                         _______ _______ _______ _____ _____    ______ ____
ROOT
ATOM      1  C   UNL     1       0.731  -0.503   1.223  0.00  0.00    -0.047 A 
ATOM      2  C   UNL     1       2.103  -0.710   1.173  0.00  0.00    +0.007 A 
ATOM      3  C   UNL     1       2.787  -1.169   2.276  0.00  0.00    +0.047 A 
ATOM      4  C   UNL     1       2.104  -1.431   3.463  0.00  0.00    +0.139 A 
ATOM      5  C   UNL     1       0.717  -1.213   3.504  0.00  0.00    +0.065 A 
ATOM      6  C   UNL     1       0.040  -0.746   2.377  0.00  0.00    +0.019 A 
ATOM      7  C   UNL     1      -0.017  -1.474   4.768  0.00  0.00    +0.199 A 
ATOM      8  O   UNL     1      -1.233  -1.474   4.846  0.00  0.00    -0.287 OA
ATOM      9  C   UNL     1       0.861  -1.734   5.913  0.00  0.00    +0.072 A 
ATOM     10  C   UNL     1       2.204  -1.921   5.743  0.00  0.00    +0.199 A 
ATOM     11  O   UNL     1       2.795  -1.888   4.532  0.00  0.00    -0.450 OA
ATOM     12  C   UNL     1       2.810  -2.148   7.066  0.00  0.00    +0.289 C 
ATOM     13  O   UNL     1       3.992  -2.345   7.265  0.00  0.00    -0.266 OA
ATOM     14  N   UNL     1       1.862  -2.106   8.024  0.00  0.00    -0.232 N 
ATOM     15  C   UNL     1       0.567  -1.845   7.373  0.00  0.00    +0.152 C 
ATOM     16  C   UNL     1       2.069  -2.279   9.381  0.00  0.00    +0.169 A 
ATOM     17  N   UNL     1       3.193  -2.508  10.020  0.00  0.00    -0.224 NA
ATOM     18  C   UNL     1       3.248  -2.657  11.361  0.00  0.00    +0.083 A 
ATOM     19  C   UNL     1       4.385  -2.906  12.166  0.00  0.00    -0.024 A 
ATOM     20  C   UNL     1       4.266  -3.032  13.525  0.00  0.00    +0.009 A 
ATOM     21  C   UNL     1       3.036  -2.922  14.159  0.00  0.00    -0.049 A 
ATOM     22  C   UNL     1       1.904  -2.679  13.403  0.00  0.00    +0.020 A 
ATOM     23  C   UNL     1       2.013  -2.551  12.040  0.00  0.00    +0.041 A 
ATOM     24  S   UNL     1       0.876  -2.239  10.711  0.00  0.00    -0.052 S 
ATOM     25  C   UNL     1       2.935  -3.066  15.655  0.00  0.00    +0.044 C 
ATOM     26  C   UNL     1       5.741  -3.034  11.521  0.00  0.00    +0.046 C 
ENDROOT
BRANCH  15  27
ATOM     27  C   UNL     1      -0.021  -0.555   7.885  0.00  0.00    -0.018 A 
ATOM     28  C   UNL     1       0.806   0.515   8.171  0.00  0.00    +0.009 A 
ATOM     29  C   UNL     1       0.271   1.700   8.641  0.00  0.00    +0.049 A 
ATOM     30  C   UNL     1      -1.097   1.817   8.825  0.00  0.00    +0.158 A 
ATOM     31  C   UNL     1      -1.930   0.741   8.537  0.00  0.00    +0.162 A 
ATOM     32  C   UNL     1      -1.388  -0.443   8.062  0.00  0.00    +0.055 A 
BRANCH  31  33
ATOM     33  O   UNL     1      -3.273   0.851   8.716  0.00  0.00    -0.491 OA
ATOM     34  C   UNL     1      -4.066  -0.295   8.399  0.00  0.00    +0.277 C 
ENDBRANCH  31  33
BRANCH  30  35
ATOM     35  O   UNL     1      -1.625   2.982   9.287  0.00  0.00    -0.503 OA
ATOM     36  H   UNL     1      -1.864   3.609   8.591  0.00  0.00    +0.292 HD
ENDBRANCH  30  35
ENDBRANCH  15  27
BRANCH   1  38
ATOM     37  C   UNL     1      -0.019   1.526   0.010  0.00  0.00    +0.009 C 
ATOM     38  C   UNL     1       0.002  -0.004   0.002  0.00  0.00    +0.032 C 
ENDBRANCH   1  38
TORSDOF 4
