REMARK  Name = ZINC50460860
REMARK  5 active torsions:
REMARK  status: ('A' for Active; 'I' for Inactive)
REMARK    1  A    between atoms: C_3  and  N_13
REMARK    2  A    between atoms: C_4  and  C_9
REMARK    3  A    between atoms: C_6  and  C_7
REMARK    4  A    between atoms: C_14  and  C_16
REMARK    5  A    between atoms: C_19  and  N_21
REMARK                            x       y       z     vdW  Elec       q    Type
REMARK                         _______ _______ _______ _____ _____    ______ ____
ROOT
ATOM      1  C   UNL     1       0.076   1.255   0.637  0.00  0.00    +0.021 A 
ATOM      2  C   UNL     1       1.260   1.958   0.619  0.00  0.00    +0.025 A 
ATOM      3  C   UNL     1       2.381   1.418  -0.004  0.00  0.00    +0.045 A 
ATOM      4  C   UNL     1       2.310   0.168  -0.609  0.00  0.00    +0.077 A 
ATOM      5  C   UNL     1       1.130  -0.541  -0.595  0.00  0.00    +0.033 A 
ATOM      6  C   UNL     1       0.001  -0.002   0.031  0.00  0.00    +0.052 A 
ENDROOT
BRANCH   4   7
ATOM      7  C   UNL     1       3.527  -0.412  -1.282  0.00  0.00    +0.419 C 
ATOM      8  F   UNL     1       3.213  -1.668  -1.813  0.00  0.00    -0.166 F 
ATOM      9  F   UNL     1       3.941   0.439  -2.312  0.00  0.00    -0.166 F 
ATOM     10  F   UNL     1       4.558  -0.547  -0.346  0.00  0.00    -0.166 F 
ENDBRANCH   4   7
BRANCH   3  11
ATOM     11  N   UNL     1       3.579   2.133  -0.021  0.00  0.00    -0.285 N 
ATOM     12  C   UNL     1       3.560   3.478  -0.115  0.00  0.00    +0.219 C 
ATOM     13  O   UNL     1       2.503   4.072  -0.102  0.00  0.00    -0.275 OA
ATOM     14  H   UNL     1       4.425   1.663   0.035  0.00  0.00    +0.155 HD
BRANCH  12  15
ATOM     15  C   UNL     1       4.853   4.242  -0.237  0.00  0.00    +0.059 C 
ATOM     16  C   UNL     1       5.141   4.934  -1.571  0.00  0.00    -0.005 C 
ATOM     17  C   UNL     1       4.765   5.766  -0.342  0.00  0.00    -0.063 C 
BRANCH  17  18
ATOM     18  N   UNL     1       3.426   6.372  -0.317  0.00  0.00    +0.380 N 
ATOM     19  H   UNL     1       2.968   6.138   0.550  0.00  0.00    -0.090 HD
ATOM     20  H   UNL     1       3.509   7.374  -0.394  0.00  0.00    -0.090 HD
ATOM     21  H   UNL     1       2.883   6.019  -1.091  0.00  0.00    -0.090 HD
ENDBRANCH  17  18
ENDBRANCH  12  15
ENDBRANCH   3  11
BRANCH   6  22
ATOM     22  C   UNL     1      -1.228  -0.736   0.049  0.00  0.00    +0.099 C 
ATOM     23  N   UNL     1      -2.204  -1.318   0.063  0.00  0.00    -0.191 NA
ENDBRANCH   6  22
TORSDOF 5
