REMARK  Name = ZINC40796608
REMARK  10 active torsions:
REMARK  status: ('A' for Active; 'I' for Inactive)
REMARK    1  A    between atoms: C_1  and  C_2
REMARK    2  A    between atoms: N_4  and  C_5
REMARK    3  A    between atoms: C_8  and  N_11
REMARK    4  A    between atoms: C_13  and  N_24
REMARK    5  A    between atoms: C_14  and  N_18
REMARK    6  A    between atoms: N_18  and  N_19
REMARK    7  A    between atoms: N_19  and  C_20
REMARK    8  A    between atoms: C_20  and  C_21
REMARK    9  A    between atoms: C_20  and  C_22
REMARK   10  A    between atoms: C_20  and  C_23
REMARK                            x       y       z     vdW  Elec       q    Type
REMARK                         _______ _______ _______ _____ _____    ______ ____
ROOT
ATOM      1  N   UNL     1       0.274  -6.220  -1.570  0.00  0.00    -0.298 N 
ATOM      2  C   UNL     1       0.457  -6.819  -2.811  0.00  0.00    +0.149 A 
ATOM      3  C   UNL     1       0.625  -8.201  -2.913  0.00  0.00    +0.107 A 
ATOM      4  C   UNL     1       0.805  -8.751  -4.184  0.00  0.00    +0.158 A 
ATOM      5  N   UNL     1       0.808  -7.943  -5.242  0.00  0.00    -0.218 NA
ATOM      6  C   UNL     1       0.645  -6.643  -5.101  0.00  0.00    +0.225 A 
ATOM      7  N   UNL     1       0.468  -6.084  -3.921  0.00  0.00    -0.219 NA
ATOM      8  H   UNL     1       0.204  -6.768  -0.772  0.00  0.00    +0.154 HD
ENDROOT
BRANCH   1  12
ATOM      9  C   UNL     1       0.025  -2.069  -1.274  0.00  0.00    +0.033 A 
ATOM     10  C   UNL     1      -0.502  -2.719  -2.382  0.00  0.00    +0.025 A 
ATOM     11  C   UNL     1      -0.420  -4.094  -2.481  0.00  0.00    +0.025 A 
ATOM     12  C   UNL     1       0.191  -4.827  -1.471  0.00  0.00    +0.033 A 
ATOM     13  C   UNL     1       0.718  -4.176  -0.363  0.00  0.00    +0.025 A 
ATOM     14  C   UNL     1       0.640  -2.801  -0.267  0.00  0.00    +0.025 A 
BRANCH   9  18
ATOM     15  C   UNL     1       0.900   1.529  -0.587  0.00  0.00    +0.109 C 
ATOM     16  C   UNL     1       0.945   0.022  -0.607  0.00  0.00    +0.214 C 
ATOM     17  O   UNL     1       1.885  -0.563  -0.112  0.00  0.00    -0.276 OA
ATOM     18  N   UNL     1      -0.059  -0.674  -1.175  0.00  0.00    -0.286 N 
ATOM     19  H   UNL     1      -0.840  -0.210  -1.515  0.00  0.00    +0.155 HD
ENDBRANCH   9  18
ENDBRANCH   1  12
BRANCH   3  20
ATOM     20  N   UNL     1       0.616  -9.016  -1.770  0.00  0.00    -0.353 N 
ATOM     21  H   UNL     1       0.490  -8.620  -0.893  0.00  0.00    +0.143 HD
ATOM     22  H   UNL     1       0.734  -9.975  -1.856  0.00  0.00    +0.143 HD
ENDBRANCH   3  20
BRANCH   4  23
ATOM     23  N   UNL     1       0.978 -10.121  -4.342  0.00  0.00    -0.263 N 
ATOM     24  H   UNL     1       0.975 -10.703  -3.566  0.00  0.00    +0.168 HD
BRANCH  23  25
ATOM     25  N   UNL     1       1.153 -10.648  -5.590  0.00  0.00    -0.236 NA
ATOM     26  H   UNL     1       1.935 -10.216  -6.058  0.00  0.00    +0.145 HD
BRANCH  25  27
ATOM     27  C   UNL     1       1.316 -12.106  -5.528  0.00  0.00    +0.028 C 
ATOM     28  C   UNL     1       0.069 -12.733  -4.901  0.00  0.00    +0.029 C 
ATOM     29  C   UNL     1       1.509 -12.659  -6.941  0.00  0.00    +0.029 C 
ATOM     30  C   UNL     1       2.541 -12.447  -4.676  0.00  0.00    +0.029 C 
ENDBRANCH  25  27
ENDBRANCH  23  25
ENDBRANCH   4  23
TORSDOF 6
