REMARK  Name = ZINC08123753
REMARK  9 active torsions:
REMARK  status: ('A' for Active; 'I' for Inactive)
REMARK    1  A    between atoms: C_1  and  C_2
REMARK    2  A    between atoms: C_5  and  N_12
REMARK    3  A    between atoms: C_7  and  S_8
REMARK    4  A    between atoms: S_8  and  N_11
REMARK    5  A    between atoms: C_13  and  C_15
REMARK    6  A    between atoms: C_22  and  C_25
REMARK    7  A    between atoms: C_25  and  C_26
REMARK    8  A    between atoms: C_25  and  C_27
REMARK    9  A    between atoms: C_25  and  C_28
REMARK                            x       y       z     vdW  Elec       q    Type
REMARK                         _______ _______ _______ _____ _____    ______ ____
ROOT
ATOM      1  N   UNL     1       0.059  -4.169  -0.021  0.00  0.00    -0.281 N 
ATOM      2  C   UNL     1      -0.039  -4.838  -1.187  0.00  0.00    +0.255 C 
ATOM      3  O   UNL     1      -0.053  -4.227  -2.240  0.00  0.00    -0.269 OA
ATOM      4  H   UNL     1       0.148  -4.657   0.812  0.00  0.00    +0.155 HD
ENDROOT
BRANCH   2   5
ATOM      5  C   UNL     1      -0.130  -6.301  -1.187  0.00  0.00    +0.075 A 
ATOM      6  C   UNL     1      -0.230  -7.168  -2.260  0.00  0.00    +0.024 A 
ATOM      7  C   UNL     1      -0.300  -8.521  -1.965  0.00  0.00    -0.036 A 
ATOM      8  C   UNL     1      -0.263  -8.864  -0.645  0.00  0.00    -0.006 A 
ATOM      9  S   UNL     1      -0.131  -7.427   0.195  0.00  0.00    -0.088 S 
ATOM     10  C   UNL     1      -0.321 -10.251  -0.077  0.00  0.00    +0.043 C 
ATOM     11  C   UNL     1      -0.051 -11.252  -1.209  0.00  0.00    +0.009 C 
ATOM     12  C   UNL     1      -0.925 -10.884  -2.411  0.00  0.00    -0.001 C 
ATOM     13  C   UNL     1      -0.415  -9.592  -3.048  0.00  0.00    +0.040 C 
BRANCH  12  14
ATOM     14  C   UNL     1      -0.872 -12.013  -3.442  0.00  0.00    -0.035 C 
ATOM     15  C   UNL     1      -1.391 -13.307  -2.810  0.00  0.00    +0.011 C 
ATOM     16  C   UNL     1      -1.746 -11.647  -4.644  0.00  0.00    +0.011 C 
ATOM     17  C   UNL     1       0.572 -12.215  -3.904  0.00  0.00    +0.011 C 
ENDBRANCH  12  14
ENDBRANCH   2   5
BRANCH   1  22
ATOM     18  C   UNL     1      -0.040   1.502   0.012  0.00  0.00    +0.046 C 
ATOM     19  C   UNL     1      -0.014  -0.004   0.003  0.00  0.00    -0.024 A 
ATOM     20  C   UNL     1       0.749  -0.686   0.934  0.00  0.00    +0.007 A 
ATOM     21  C   UNL     1       0.775  -2.067   0.929  0.00  0.00    +0.024 A 
ATOM     22  C   UNL     1       0.035  -2.771  -0.013  0.00  0.00    +0.036 A 
ATOM     23  C   UNL     1      -0.730  -2.083  -0.946  0.00  0.00    +0.052 A 
ATOM     24  C   UNL     1      -0.756  -0.702  -0.932  0.00  0.00    +0.110 A 
BRANCH  24  25
ATOM     25  S   UNL     1      -1.731   0.172  -2.111  0.00  0.00    +0.056 S 
ATOM     26  O   UNL     1      -0.890   1.169  -2.675  0.00  0.00    -0.153 OA
ATOM     27  O   UNL     1      -2.386  -0.809  -2.903  0.00  0.00    -0.153 OA
BRANCH  25  28
ATOM     28  N   UNL     1      -2.915   0.970  -1.272  0.00  0.00    -0.204 NA
ATOM     29  H   UNL     1      -2.961   0.893  -0.306  0.00  0.00    +0.144 HD
ATOM     30  H   UNL     1      -3.562   1.515  -1.746  0.00  0.00    +0.144 HD
ENDBRANCH  25  28
ENDBRANCH  24  25
ENDBRANCH   1  22
TORSDOF 5
