REMARK  Name = ZINC32594608
REMARK  3 active torsions:
REMARK  status: ('A' for Active; 'I' for Inactive)
REMARK    1  A    between atoms: C_1  and  C_2
REMARK    2  A    between atoms: C_2  and  C_27
REMARK    3  A    between atoms: N_17  and  C_20
REMARK                            x       y       z     vdW  Elec       q    Type
REMARK                         _______ _______ _______ _____ _____    ______ ____
ROOT
ATOM      1  C   UNL     1      -0.019   1.526   0.010  0.00  0.00    +0.017 C 
ATOM      2  C   UNL     1       0.002  -0.004   0.002  0.00  0.00    +0.012 C 
ATOM      3  C   UNL     1       0.726  -0.492  -1.221  0.00  0.00    +0.031 A 
ATOM      4  C   UNL     1       2.000  -0.925  -1.350  0.00  0.00    +0.088 A 
ATOM      5  N   UNL     1       2.352  -1.325  -2.615  0.00  0.00    -0.311 N 
ATOM      6  H   UNL     1       3.246  -1.660  -2.787  0.00  0.00    +0.170 HD
ATOM      7  C   UNL     1       1.456  -1.253  -3.618  0.00  0.00    +0.289 A 
ATOM      8  O   UNL     1       1.604  -1.560  -4.787  0.00  0.00    -0.260 OA
ATOM      9  S   UNL     1       0.082  -0.637  -2.867  0.00  0.00    -0.030 S 
ATOM     10  S   UNL     1       3.113  -0.944   0.048  0.00  0.00    -0.093 S 
ATOM     11  C   UNL     1       2.176   0.076   1.216  0.00  0.00    +0.152 C 
ATOM     12  C   UNL     1       0.731  -0.508   1.223  0.00  0.00    +0.109 C 
ATOM     13  C   UNL     1       0.269  -0.077   2.579  0.00  0.00    +0.232 C 
ATOM     14  O   UNL     1      -0.867   0.184   2.913  0.00  0.00    -0.274 OA
ATOM     15  N   UNL     1       1.380  -0.039   3.361  0.00  0.00    -0.209 N 
ATOM     16  C   UNL     1       2.559  -0.108   2.659  0.00  0.00    +0.240 C 
ATOM     17  O   UNL     1       3.674  -0.291   3.098  0.00  0.00    -0.274 OA
ATOM     18  C   UNL     1      -1.432  -0.538   0.003  0.00  0.00    +0.017 C 
ENDROOT
BRANCH  15  19
ATOM     19  C   UNL     1       1.332   0.080   4.758  0.00  0.00    +0.044 A 
ATOM     20  C   UNL     1       0.108   0.159   5.407  0.00  0.00    +0.027 A 
ATOM     21  C   UNL     1       0.063   0.277   6.782  0.00  0.00    +0.040 A 
ATOM     22  C   UNL     1       1.239   0.315   7.514  0.00  0.00    +0.124 A 
ATOM     23  C   UNL     1       2.461   0.236   6.867  0.00  0.00    +0.040 A 
ATOM     24  C   UNL     1       2.510   0.113   5.493  0.00  0.00    +0.027 A 
ATOM     25  F   UNL     1       1.193   0.430   8.859  0.00  0.00    -0.205 F 
ENDBRANCH  15  19
TORSDOF 1
