REMARK  Name = ZINC33376735
REMARK  7 active torsions:
REMARK  status: ('A' for Active; 'I' for Inactive)
REMARK    1  A    between atoms: C_1  and  C_2
REMARK    2  A    between atoms: C_2  and  O_3
REMARK    3  A    between atoms: O_3  and  N_4
REMARK    4  A    between atoms: C_5  and  C_6
REMARK    5  A    between atoms: C_5  and  C_7
REMARK    6  A    between atoms: C_9  and  C_16
REMARK    7  A    between atoms: C_10  and  C_12
REMARK                            x       y       z     vdW  Elec       q    Type
REMARK                         _______ _______ _______ _____ _____    ______ ____
ROOT
ATOM      1  C   UNL     1      -1.794   2.314   3.566  0.00  0.00    +0.037 A 
ATOM      2  C   UNL     1      -2.526   2.815   2.520  0.00  0.00    +0.026 A 
ATOM      3  C   UNL     1      -3.639   3.580   2.829  0.00  0.00    +0.002 A 
ATOM      4  C   UNL     1      -3.942   3.790   4.146  0.00  0.00    +0.100 A 
ATOM      5  S   UNL     1      -2.694   2.924   4.980  0.00  0.00    -0.083 S 
ENDROOT
BRANCH   3   6
ATOM      6  C   UNL     1      -4.483   4.158   1.755  0.00  0.00    -0.017 A 
ATOM      7  C   UNL     1      -5.865   3.982   1.781  0.00  0.00    +0.008 A 
ATOM      8  C   UNL     1      -6.647   4.527   0.782  0.00  0.00    +0.001 A 
ATOM      9  C   UNL     1      -6.059   5.237  -0.249  0.00  0.00    +0.000 A 
ATOM     10  C   UNL     1      -4.687   5.410  -0.283  0.00  0.00    +0.001 A 
ATOM     11  C   UNL     1      -3.897   4.874   0.713  0.00  0.00    +0.008 A 
ENDBRANCH   3   6
BRANCH   4  12
ATOM     12  C   UNL     1      -5.087   4.577   4.730  0.00  0.00    +0.424 C 
ATOM     13  F   UNL     1      -6.189   3.734   4.912  0.00  0.00    -0.165 F 
ATOM     14  F   UNL     1      -4.703   5.115   5.963  0.00  0.00    -0.165 F 
ATOM     15  F   UNL     1      -5.434   5.614   3.857  0.00  0.00    -0.165 F 
ENDBRANCH   4  12
BRANCH   1  17
ATOM     16  N   UNL     1      -0.073   1.130   2.393  0.00  0.00    -0.089 NA
ATOM     17  C   UNL     1      -0.585   1.483   3.531  0.00  0.00    +0.091 C 
ATOM     18  C   UNL     1       0.062   1.040   4.818  0.00  0.00    +0.070 C 
BRANCH  16  19
ATOM     19  O   UNL     1      -0.682   1.547   1.184  0.00  0.00    -0.394 OA
BRANCH  19  21
ATOM     20  C   UNL     1      -0.753   1.593  -1.232  0.00  0.00    +0.051 C 
ATOM     21  C   UNL     1      -0.013   1.086   0.008  0.00  0.00    +0.259 C 
ENDBRANCH  19  21
ENDBRANCH  16  19
ENDBRANCH   1  17
TORSDOF 5
