REMARK  Name = ZINC13623989
REMARK  4 active torsions:
REMARK  status: ('A' for Active; 'I' for Inactive)
REMARK    1  A    between atoms: C_12  and  C_27
REMARK    2  A    between atoms: C_12  and  C_29
REMARK    3  A    between atoms: C_13  and  C_20
REMARK    4  A    between atoms: C_15  and  C_17
REMARK                            x       y       z     vdW  Elec       q    Type
REMARK                         _______ _______ _______ _____ _____    ______ ____
ROOT
ATOM      1  C   UNL     1       0.275   4.353  -0.706  0.00  0.00    +0.001 A 
ATOM      2  C   UNL     1       0.635   3.017  -0.743  0.00  0.00    +0.000 A 
ATOM      3  C   UNL     1      -0.322   2.031  -0.568  0.00  0.00    +0.006 A 
ATOM      4  C   UNL     1      -1.637   2.379  -0.363  0.00  0.00    -0.017 A 
ATOM      5  C   UNL     1      -2.011   3.728  -0.315  0.00  0.00    -0.019 A 
ATOM      6  C   UNL     1      -1.039   4.714  -0.493  0.00  0.00    +0.008 A 
ATOM      7  C   UNL     1      -3.419   4.105  -0.079  0.00  0.00    +0.023 C 
ATOM      8  C   UNL     1      -4.389   3.186  -0.267  0.00  0.00    +0.072 C 
ATOM      9  N   UNL     1      -3.967   1.924  -0.656  0.00  0.00    -0.314 N 
ATOM     10  C   UNL     1      -2.702   1.330  -0.175  0.00  0.00    +0.139 C 
ATOM     11  C   UNL     1      -2.434   0.103  -1.064  0.00  0.00    +0.174 C 
ATOM     12  C   UNL     1      -3.873  -0.346  -1.441  0.00  0.00    +0.084 C 
ATOM     13  C   UNL     1      -4.597   1.013  -1.613  0.00  0.00    +0.169 C 
ENDROOT
BRANCH  12  14
ATOM     14  C   UNL     1      -3.874  -1.125  -2.732  0.00  0.00    -0.039 A 
ATOM     15  C   UNL     1      -3.629  -0.478  -3.929  0.00  0.00    +0.005 A 
ATOM     16  C   UNL     1      -3.625  -1.193  -5.112  0.00  0.00    +0.015 A 
ATOM     17  C   UNL     1      -3.877  -2.553  -5.099  0.00  0.00    +0.018 A 
ATOM     18  C   UNL     1      -4.127  -3.198  -3.902  0.00  0.00    +0.015 A 
ATOM     19  C   UNL     1      -4.125  -2.484  -2.718  0.00  0.00    +0.005 A 
ATOM     20 BR   UNL     1      -3.879  -3.529  -6.718  0.00  0.00    -0.050 Br
ENDBRANCH  12  14
BRANCH  13  21
ATOM     21  C   UNL     1      -6.064   0.864  -1.302  0.00  0.00    +0.232 C 
ATOM     22  O   UNL     1      -6.485   1.169  -0.207  0.00  0.00    -0.274 OA
ATOM     23  N   UNL     1      -6.907   0.391  -2.241  0.00  0.00    -0.328 N 
ATOM     24  H   UNL     1      -7.978   0.282  -2.014  0.00  0.00    +0.145 HD
ATOM     25  H   UNL     1      -6.525   0.113  -3.234  0.00  0.00    +0.145 HD
ENDBRANCH  13  21
BRANCH  11  26
ATOM     26  C   UNL     1      -1.735  -0.950  -0.310  0.00  0.00    +0.087 C 
ATOM     27  N   UNL     1      -1.196  -1.762   0.273  0.00  0.00    -0.195 NA
ENDBRANCH  11  26
BRANCH  11  28
ATOM     28  C   UNL     1      -1.670   0.480  -2.265  0.00  0.00    +0.087 C 
ATOM     29  N   UNL     1      -1.081   0.772  -3.191  0.00  0.00    -0.195 NA
ENDBRANCH  11  28
TORSDOF 4
