REMARK  Name = ZINC43224724
REMARK  10 active torsions:
REMARK  status: ('A' for Active; 'I' for Inactive)
REMARK    1  A    between atoms: C_1  and  C_2
REMARK    2  A    between atoms: C_2  and  C_3
REMARK    3  A    between atoms: C_3  and  C_4
REMARK    4  A    between atoms: C_4  and  C_5
REMARK    5  A    between atoms: C_6  and  C_17
REMARK    6  A    between atoms: C_7  and  C_14
REMARK    7  A    between atoms: C_8  and  C_13
REMARK    8  A    between atoms: N_9  and  C_10
REMARK    9  A    between atoms: C_10  and  C_11
REMARK   10  A    between atoms: C_10  and  C_12
REMARK                            x       y       z     vdW  Elec       q    Type
REMARK                         _______ _______ _______ _____ _____    ______ ____
ROOT
ATOM      1  C   UNL     1       1.401  -2.795  -2.419  0.00  0.00    +0.028 A 
ATOM      2  C   UNL     1       0.777  -2.990  -3.609  0.00  0.00    +0.015 A 
ATOM      3  C   UNL     1       1.848  -3.120  -4.613  0.00  0.00    +0.065 A 
ATOM      4  C   UNL     1       3.025  -2.991  -3.930  0.00  0.00    +0.029 A 
ATOM      5  N   UNL     1       2.747  -2.792  -2.627  0.00  0.00    -0.344 N 
ATOM      6  C   UNL     1       4.403  -3.055  -4.535  0.00  0.00    +0.064 C 
ENDROOT
BRANCH   2   7
ATOM      7  C   UNL     1      -0.684  -3.058  -3.850  0.00  0.00    -0.015 A 
ATOM      8  C   UNL     1      -1.437  -4.093  -3.297  0.00  0.00    +0.009 A 
ATOM      9  C   UNL     1      -2.796  -4.152  -3.524  0.00  0.00    +0.016 A 
ATOM     10  C   UNL     1      -3.413  -3.185  -4.299  0.00  0.00    +0.018 A 
ATOM     11  C   UNL     1      -2.671  -2.155  -4.851  0.00  0.00    +0.016 A 
ATOM     12  C   UNL     1      -1.312  -2.084  -4.625  0.00  0.00    +0.009 A 
ATOM     13 BR   UNL     1      -5.277  -3.272  -4.606  0.00  0.00    -0.050 Br
ENDBRANCH   2   7
BRANCH   3  14
ATOM     14  C   UNL     1       1.684  -3.344  -6.058  0.00  0.00    +0.244 C 
ATOM     15  O   UNL     1       1.594  -2.396  -6.814  0.00  0.00    -0.270 OA
ATOM     16  N   UNL     1       1.633  -4.600  -6.544  0.00  0.00    -0.325 N 
ATOM     17  H   UNL     1       1.705  -5.357  -5.941  0.00  0.00    +0.145 HD
ATOM     18  H   UNL     1       1.525  -4.748  -7.497  0.00  0.00    +0.145 HD
ENDBRANCH   3  14
BRANCH   5  19
ATOM     19  C   UNL     1       3.753  -2.603  -1.579  0.00  0.00    +0.081 C 
ATOM     20  C   UNL     1       4.553  -3.896  -1.401  0.00  0.00    +0.030 C 
ATOM     21  C   UNL     1       4.699  -1.469  -1.979  0.00  0.00    +0.030 C 
ENDBRANCH   5  19
BRANCH   1  22
ATOM     22  C   UNL     1       0.717  -2.607  -1.089  0.00  0.00    +0.054 C 
BRANCH  22  23
ATOM     23  C   UNL     1       0.448  -1.118  -0.860  0.00  0.00    +0.006 C 
BRANCH  23  25
ATOM     24  C   UNL     1      -0.514   0.562   0.719  0.00  0.00    +0.004 C 
ATOM     25  C   UNL     1      -0.246  -0.927   0.489  0.00  0.00    -0.003 C 
ENDBRANCH  23  25
ENDBRANCH  22  23
ENDBRANCH   1  22
TORSDOF 6
