REMARK  Name = ZINC58988055
REMARK  9 active torsions:
REMARK  status: ('A' for Active; 'I' for Inactive)
REMARK    1  A    between atoms: C_1  and  C_2
REMARK    2  A    between atoms: N_8  and  C_9
REMARK    3  A    between atoms: C_9  and  C_10
REMARK    4  A    between atoms: N_12  and  C_13
REMARK    5  A    between atoms: C_17  and  N_19
REMARK    6  A    between atoms: C_20  and  C_22
REMARK    7  A    between atoms: C_23  and  C_24
REMARK    8  A    between atoms: C_29  and  O_30
REMARK    9  A    between atoms: O_30  and  C_31
REMARK                            x       y       z     vdW  Elec       q    Type
REMARK                         _______ _______ _______ _____ _____    ______ ____
ROOT
ATOM      1  C   UNL     1       1.114  -0.354   6.003  0.00  0.00    +0.035 A 
ATOM      2  C   UNL     1       2.281  -1.102   5.910  0.00  0.00    +0.026 A 
ATOM      3  C   UNL     1       2.930  -1.519   7.057  0.00  0.00    +0.042 A 
ATOM      4  C   UNL     1       2.419  -1.193   8.301  0.00  0.00    +0.145 A 
ATOM      5  C   UNL     1       1.251  -0.444   8.400  0.00  0.00    +0.071 A 
ATOM      6  C   UNL     1       0.602  -0.020   7.249  0.00  0.00    +0.049 A 
ATOM      7  F   UNL     1       3.056  -1.603   9.420  0.00  0.00    -0.204 F 
ENDROOT
BRANCH   1  10
ATOM      8  C   UNL     1       0.443  -0.725   3.751  0.00  0.00    +0.201 C 
ATOM      9  O   UNL     1       1.067  -1.765   3.748  0.00  0.00    -0.278 OA
ATOM     10  N   UNL     1       0.457   0.067   4.841  0.00  0.00    -0.287 N 
ATOM     11  H   UNL     1       0.013   0.929   4.820  0.00  0.00    +0.155 HD
BRANCH   8  12
ATOM     12  C   UNL     1      -0.349  -0.319   2.534  0.00  0.00    +0.019 C 
BRANCH  12  19
ATOM     13  C   UNL     1      -0.298   0.460  -0.163  0.00  0.00    -0.013 C 
ATOM     14  C   UNL     1      -0.876  -0.890   0.267  0.00  0.00    -0.071 C 
ATOM     15  C   UNL     1      -0.658  -1.916  -0.847  0.00  0.00    -0.016 C 
ATOM     16  C   UNL     1      -1.239  -3.265  -0.413  0.00  0.00    -0.003 C 
ATOM     17  C   UNL     1      -0.584  -3.691   0.904  0.00  0.00    -0.019 C 
ATOM     18  C   UNL     1      -0.805  -2.599   1.954  0.00  0.00    -0.078 C 
ATOM     19  N   UNL     1      -0.204  -1.342   1.491  0.00  0.00    +0.387 N 
ATOM     20  H   UNL     1       0.776  -1.489   1.301  0.00  0.00    -0.081 HD
ENDBRANCH  12  19
ENDBRANCH   8  12
ENDBRANCH   1  10
BRANCH   5  21
ATOM     21  N   UNL     1       0.735  -0.115   9.658  0.00  0.00    -0.280 N 
ATOM     22  C   UNL     1      -0.599  -0.045   9.841  0.00  0.00    +0.241 C 
ATOM     23  O   UNL     1      -1.352  -0.187   8.895  0.00  0.00    -0.270 OA
ATOM     24  H   UNL     1       1.336   0.063  10.398  0.00  0.00    +0.155 HD
BRANCH  22  25
ATOM     25  C   UNL     1      -1.141   0.200  11.177  0.00  0.00    +0.068 C 
ATOM     26  C   UNL     1      -2.477   0.270  11.361  0.00  0.00    +0.016 C 
BRANCH  26  27
ATOM     27  C   UNL     1      -3.021   0.517  12.703  0.00  0.00    +0.017 A 
ATOM     28  C   UNL     1      -2.160   0.686  13.792  0.00  0.00    +0.011 A 
ATOM     29  C   UNL     1      -2.678   0.917  15.048  0.00  0.00    +0.001 A 
ATOM     30  C   UNL     1      -4.049   0.983  15.237  0.00  0.00    +0.004 A 
ATOM     31  C   UNL     1      -4.912   0.818  14.171  0.00  0.00    +0.046 A 
ATOM     32  C   UNL     1      -4.410   0.590  12.899  0.00  0.00    +0.127 A 
BRANCH  32  33
ATOM     33  O   UNL     1      -5.256   0.434  11.850  0.00  0.00    -0.495 OA
ATOM     34  C   UNL     1      -6.655   0.522  12.127  0.00  0.00    +0.277 C 
ENDBRANCH  32  33
ENDBRANCH  26  27
ENDBRANCH  22  25
ENDBRANCH   5  21
TORSDOF 7
