REMARK  Name = ZINC25463225
REMARK  6 active torsions:
REMARK  status: ('A' for Active; 'I' for Inactive)
REMARK    1  A    between atoms: C_1  and  C_2
REMARK    2  A    between atoms: C_9  and  C_34
REMARK    3  A    between atoms: C_16  and  N_18
REMARK    4  A    between atoms: N_20  and  C_24
REMARK    5  A    between atoms: C_27  and  S_30
REMARK    6  A    between atoms: S_30  and  N_33
REMARK                            x       y       z     vdW  Elec       q    Type
REMARK                         _______ _______ _______ _____ _____    ______ ____
ROOT
ATOM      1  C   UNL     1      -1.691   2.689   2.687  0.00  0.00    +0.007 C 
ATOM      2  C   UNL     1      -1.007   1.947   1.537  0.00  0.00    -0.011 C 
ATOM      3  C   UNL     1      -1.986   0.946   0.918  0.00  0.00    +0.022 C 
ATOM      4  C   UNL     1      -1.316   0.251  -0.269  0.00  0.00    +0.107 C 
ATOM      5  N   UNL     1      -0.920   1.255  -1.265  0.00  0.00    -0.314 N 
ATOM      6  C   UNL     1       0.056   2.199  -0.708  0.00  0.00    +0.107 C 
ATOM      7  C   UNL     1      -0.573   2.952   0.467  0.00  0.00    +0.022 C 
ATOM      8  C   UNL     1      -0.430   0.652  -2.408  0.00  0.00    +0.142 A 
ATOM      9  C   UNL     1      -1.083   0.863  -3.633  0.00  0.00    +0.100 A 
ATOM     10  C   UNL     1      -0.530   0.206  -4.817  0.00  0.00    +0.016 A 
ATOM     11  C   UNL     1      -1.079   0.332  -6.088  0.00  0.00    +0.011 A 
ATOM     12  C   UNL     1      -0.494  -0.324  -7.157  0.00  0.00    +0.138 A 
ATOM     13  N   UNL     1       0.596  -1.076  -6.967  0.00  0.00    -0.216 NA
ATOM     14  C   UNL     1       1.163  -1.235  -5.786  0.00  0.00    +0.129 A 
ATOM     15  C   UNL     1       0.627  -0.601  -4.652  0.00  0.00    +0.063 A 
ATOM     16  C   UNL     1       1.186  -0.731  -3.367  0.00  0.00    +0.129 A 
ATOM     17  N   UNL     1       0.652  -0.112  -2.329  0.00  0.00    -0.216 NA
ATOM     18  N   UNL     1       2.289  -2.028  -5.664  0.00  0.00    -0.343 N 
ATOM     19  N   UNL     1      -1.203  -0.059  -8.326  0.00  0.00    -0.224 N 
ATOM     20  C   UNL     1      -2.254   0.750  -8.117  0.00  0.00    +0.230 C 
ATOM     21  O   UNL     1      -3.041   1.143  -8.953  0.00  0.00    -0.275 OA
ATOM     22  C   UNL     1      -2.269   1.079  -6.640  0.00  0.00    +0.136 C 
ATOM     23  H   UNL     1       2.764  -2.162  -4.681  0.00  0.00    +0.144 HD
ATOM     24  H   UNL     1       2.711  -2.525  -6.550  0.00  0.00    +0.144 HD
ENDROOT
BRANCH  19  25
ATOM     25  C   UNL     1      -0.859  -0.580  -9.580  0.00  0.00    +0.043 A 
ATOM     26  C   UNL     1       0.250  -1.406  -9.710  0.00  0.00    +0.026 A 
ATOM     27  C   UNL     1       0.584  -1.921 -10.947  0.00  0.00    +0.030 A 
ATOM     28  C   UNL     1      -0.177  -1.606 -12.058  0.00  0.00    +0.105 A 
ATOM     29  C   UNL     1      -1.279  -0.779 -11.933  0.00  0.00    +0.030 A 
ATOM     30  C   UNL     1      -1.621  -0.265 -10.697  0.00  0.00    +0.026 A 
BRANCH  28  31
ATOM     31  S   UNL     1       0.257  -2.259 -13.636  0.00  0.00    +0.056 S 
ATOM     32  O   UNL     1       1.006  -3.442 -13.393  0.00  0.00    -0.153 OA
ATOM     33  O   UNL     1      -0.929  -2.256 -14.417  0.00  0.00    -0.153 OA
BRANCH  31  34
ATOM     34  N   UNL     1       1.294  -1.179 -14.344  0.00  0.00    -0.204 NA
ATOM     35  H   UNL     1       1.590  -1.552 -15.336  0.00  0.00    +0.144 HD
ATOM     36  H   UNL     1       2.188  -1.062 -13.714  0.00  0.00    +0.144 HD
ENDBRANCH  31  34
ENDBRANCH  28  31
ENDBRANCH  19  25
BRANCH  16  37
ATOM     37  N   UNL     1       2.309  -1.510  -3.190  0.00  0.00    -0.343 N 
ATOM     38  H   UNL     1       2.753  -1.617  -2.188  0.00  0.00    +0.144 HD
ATOM     39  H   UNL     1       2.763  -2.025  -4.050  0.00  0.00    +0.144 HD
ENDBRANCH  16  37
BRANCH   9  40
ATOM     40  C   UNL     1      -2.247   1.691  -3.720  0.00  0.00    +0.103 C 
ATOM     41  N   UNL     1      -3.171   2.348  -3.789  0.00  0.00    -0.191 NA
ENDBRANCH   9  40
TORSDOF 5
