REMARK  Name = ZINC32635034
REMARK  6 active torsions:
REMARK  status: ('A' for Active; 'I' for Inactive)
REMARK    1  A    between atoms: C_1  and  C_2
REMARK    2  A    between atoms: C_2  and  C_3
REMARK    3  A    between atoms: C_2  and  C_4
REMARK    4  A    between atoms: C_2  and  C_5
REMARK    5  A    between atoms: C_5  and  N_7
REMARK    6  A    between atoms: N_9  and  C_20
REMARK                            x       y       z     vdW  Elec       q    Type
REMARK                         _______ _______ _______ _____ _____    ______ ____
ROOT
ATOM      1  N   UNL     1       1.094  -1.768  -1.344  0.00  0.00    -0.158 NA
ATOM      2  C   UNL     1       1.493  -2.212  -2.530  0.00  0.00    +0.154 C 
ATOM      3  N   UNL     1       1.934  -1.460  -3.617  0.00  0.00    -0.275 N 
ATOM      4  C   UNL     1       2.528  -2.218  -4.669  0.00  0.00    +0.116 C 
ATOM      5  C   UNL     1       2.818  -1.684  -6.067  0.00  0.00    +0.190 C 
ATOM      6  S   UNL     1       3.441  -3.265  -6.814  0.00  0.00    -0.028 S 
ATOM      7  O   UNL     1       4.849  -3.339  -6.637  0.00  0.00    -0.174 OA
ATOM      8  O   UNL     1       2.890  -3.412  -8.116  0.00  0.00    -0.174 OA
ATOM      9  C   UNL     1       2.625  -4.473  -5.673  0.00  0.00    +0.182 C 
ATOM     10  C   UNL     1       1.695  -3.538  -4.883  0.00  0.00    +0.097 C 
ATOM     11  S   UNL     1       1.591  -3.920  -3.089  0.00  0.00    -0.086 S 
ENDROOT
BRANCH   3  12
ATOM     12  C   UNL     1       1.804  -0.068  -3.672  0.00  0.00    +0.056 A 
ATOM     13  C   UNL     1       2.805   0.745  -3.156  0.00  0.00    +0.025 A 
ATOM     14  C   UNL     1       2.674   2.119  -3.212  0.00  0.00    +0.003 A 
ATOM     15  C   UNL     1       1.549   2.686  -3.782  0.00  0.00    +0.021 A 
ATOM     16  C   UNL     1       0.549   1.880  -4.297  0.00  0.00    +0.061 A 
ATOM     17  C   UNL     1       0.676   0.503  -4.249  0.00  0.00    +0.081 A 
ATOM     18 CL   UNL     1      -0.574  -0.508  -4.902  0.00  0.00    -0.080 Cl
ATOM     19 CL   UNL     1      -0.862   2.597  -5.011  0.00  0.00    -0.082 Cl
ENDBRANCH   3  12
BRANCH   1  20
ATOM     20  C   UNL     1       0.956  -0.461  -1.135  0.00  0.00    +0.244 C 
ATOM     21  O   UNL     1       0.269   0.205  -1.885  0.00  0.00    -0.273 OA
BRANCH  20  23
ATOM     22  C   UNL     1       1.329   1.689   0.042  0.00  0.00    +0.020 C 
ATOM     23  C   UNL     1       1.651   0.194   0.031  0.00  0.00    +0.041 C 
ATOM     24  C   UNL     1       3.162  -0.002  -0.101  0.00  0.00    +0.020 C 
ATOM     25  C   UNL     1       1.166  -0.442   1.335  0.00  0.00    +0.020 C 
ENDBRANCH  20  23
ENDBRANCH   1  20
TORSDOF 3
