REMARK  Name = ZINC65371281
REMARK  4 active torsions:
REMARK  status: ('A' for Active; 'I' for Inactive)
REMARK    1  A    between atoms: C_1  and  C_2
REMARK    2  A    between atoms: C_5  and  C_31
REMARK    3  A    between atoms: C_6  and  C_8
REMARK    4  A    between atoms: C_12  and  C_14
REMARK                            x       y       z     vdW  Elec       q    Type
REMARK                         _______ _______ _______ _____ _____    ______ ____
ROOT
ATOM      1  C   UNL     1      -1.171  -1.495   3.899  0.00  0.00    +0.044 C 
ATOM      2  C   UNL     1      -1.231  -0.482   2.752  0.00  0.00    +0.105 C 
ATOM      3  C   UNL     1      -2.357   0.488   2.994  0.00  0.00    +0.218 C 
ATOM      4  O   UNL     1      -2.988   0.923   2.054  0.00  0.00    -0.275 OA
ATOM      5  N   UNL     1      -2.670   0.877   4.245  0.00  0.00    -0.285 N 
ATOM      6  C   UNL     1      -1.922   0.414   5.335  0.00  0.00    +0.040 A 
ATOM      7  C   UNL     1      -1.178  -0.754   5.212  0.00  0.00    -0.020 A 
ATOM      8  C   UNL     1      -0.448  -1.230   6.283  0.00  0.00    +0.032 A 
ATOM      9  C   UNL     1      -0.454  -0.538   7.484  0.00  0.00    +0.076 A 
ATOM     10  C   UNL     1      -1.194   0.637   7.610  0.00  0.00    +0.144 A 
ATOM     11  C   UNL     1      -1.926   1.114   6.533  0.00  0.00    +0.071 A 
ATOM     12  O   UNL     1      -1.189   1.307   8.793  0.00  0.00    -0.481 OA
ATOM     13  C   UNL     1      -1.081   0.516   9.979  0.00  0.00    +0.325 C 
ATOM     14  C   UNL     1       0.017  -0.504   9.810  0.00  0.00    +0.255 C 
ATOM     15  O   UNL     1       0.660  -0.871  10.770  0.00  0.00    -0.272 OA
ATOM     16  N   UNL     1       0.281  -1.006   8.584  0.00  0.00    -0.280 N 
ATOM     17  H   UNL     1      -3.415   1.480   4.391  0.00  0.00    +0.155 HD
ATOM     18  H   UNL     1       0.969  -1.680   8.466  0.00  0.00    +0.155 HD
ENDROOT
BRANCH   1  23
ATOM     19  C   UNL     1       0.059  -3.518   4.715  0.00  0.00    +0.080 C 
ATOM     20  N   UNL     1       1.055  -3.366   5.544  0.00  0.00    -0.153 NA
ATOM     21  N   UNL     1       1.776  -2.204   5.291  0.00  0.00    -0.161 NA
ATOM     22  C   UNL     1       1.300  -1.534   4.293  0.00  0.00    +0.118 C 
ATOM     23  C   UNL     1       0.110  -2.323   3.784  0.00  0.00    +0.091 C 
BRANCH  19  29
ATOM     24  C   UNL     1      -4.025  -5.625   2.780  0.00  0.00    +0.044 C 
ATOM     25  C   UNL     1      -2.878  -5.645   3.757  0.00  0.00    -0.050 A 
ATOM     26  C   UNL     1      -2.735  -6.708   4.632  0.00  0.00    +0.003 A 
ATOM     27  C   UNL     1      -1.686  -6.736   5.533  0.00  0.00    +0.004 A 
ATOM     28  C   UNL     1      -0.773  -5.703   5.566  0.00  0.00    -0.042 A 
ATOM     29  C   UNL     1      -0.910  -4.625   4.686  0.00  0.00    +0.002 A 
ATOM     30  C   UNL     1      -1.971  -4.607   3.774  0.00  0.00    +0.013 A 
ATOM     31  C   UNL     1       0.369  -5.735   6.549  0.00  0.00    +0.044 C 
ENDBRANCH  19  29
ENDBRANCH   1  23
TORSDOF 2
