REMARK  Name = ZINC09762729
REMARK  14 active torsions:
REMARK  status: ('A' for Active; 'I' for Inactive)
REMARK    1  A    between atoms: C_1  and  C_2
REMARK    2  A    between atoms: C_2  and  O_3
REMARK    3  A    between atoms: O_3  and  C_4
REMARK    4  A    between atoms: C_4  and  C_6
REMARK    5  A    between atoms: C_7  and  C_23
REMARK    6  A    between atoms: C_8  and  C_19
REMARK    7  A    between atoms: C_10  and  N_11
REMARK    8  A    between atoms: C_12  and  C_14
REMARK    9  A    between atoms: C_14  and  N_48
REMARK   10  A    between atoms: C_15  and  C_16
REMARK   11  A    between atoms: C_15  and  C_17
REMARK   12  A    between atoms: C_15  and  C_18
REMARK   13  A    between atoms: C_15  and  N_48
REMARK   14  A    between atoms: N_21  and  C_22
REMARK                            x       y       z     vdW  Elec       q    Type
REMARK                         _______ _______ _______ _____ _____    ______ ____
ROOT
ATOM      1  C   UNL     1       0.757   3.687   0.015  0.00  0.00    +0.091 A 
ATOM      2  C   UNL     1       1.039   2.329   0.005  0.00  0.00    -0.015 A 
ATOM      3  C   UNL     1      -0.018   1.460   0.010  0.00  0.00    +0.079 A 
ATOM      4  S   UNL     1      -1.425   2.554   0.021  0.00  0.00    -0.068 S 
ATOM      5  C   UNL     1      -0.588   4.072   0.030  0.00  0.00    +0.087 A 
ATOM      6  C   UNL     1       2.460   1.828  -0.011  0.00  0.00    +0.046 C 
ENDROOT
BRANCH   3   7
ATOM      7  C   UNL     1       0.002  -0.004   0.002  0.00  0.00    +0.251 C 
ATOM      8  O   UNL     1       1.064  -0.598  -0.011  0.00  0.00    -0.270 OA
ATOM      9  N   UNL     1      -1.156  -0.694   0.009  0.00  0.00    -0.314 N 
ATOM     10  C   UNL     1      -1.136  -2.159   0.001  0.00  0.00    +0.128 C 
ATOM     11  H   UNL     1      -2.002  -0.220   0.020  0.00  0.00    +0.149 HD
ENDBRANCH   3   7
BRANCH   5  12
ATOM     12  N   UNL     1      -1.118   5.347   0.042  0.00  0.00    -0.281 N 
ATOM     13  C   UNL     1      -2.454   5.522   0.055  0.00  0.00    +0.201 C 
ATOM     14  O   UNL     1      -3.191   4.559   0.057  0.00  0.00    -0.278 OA
ATOM     15  H   UNL     1      -0.528   6.118   0.040  0.00  0.00    +0.155 HD
BRANCH  13  16
ATOM     16  C   UNL     1      -3.033   6.913   0.068  0.00  0.00    +0.016 C 
BRANCH  16  17
ATOM     17  N   UNL     1      -4.505   6.825   0.082  0.00  0.00    +0.388 N 
ATOM     18  H   UNL     1      -4.806   6.314   0.920  0.00  0.00    -0.084 HD
ATOM     19  H   UNL     1      -4.822   6.323  -0.756  0.00  0.00    -0.084 HD
BRANCH  17  20
ATOM     20  C   UNL     1      -5.099   8.175   0.095  0.00  0.00    -0.076 C 
ATOM     21  C   UNL     1      -4.661   8.942  -1.155  0.00  0.00    -0.011 C 
ATOM     22  C   UNL     1      -6.624   8.051   0.109  0.00  0.00    -0.011 C 
ATOM     23  C   UNL     1      -4.637   8.928   1.344  0.00  0.00    -0.011 C 
ENDBRANCH  17  20
ENDBRANCH  16  17
ENDBRANCH  13  16
ENDBRANCH   5  12
BRANCH   1  24
ATOM     24  C   UNL     1       1.832   4.685   0.010  0.00  0.00    +0.342 C 
ATOM     25  O   UNL     1       2.268   5.105  -1.045  0.00  0.00    -0.245 OA
BRANCH  24  26
ATOM     26  O   UNL     1       2.337   5.138   1.176  0.00  0.00    -0.461 OA
BRANCH  26  28
ATOM     27  C   UNL     1       3.840   6.515   2.507  0.00  0.00    +0.048 C 
ATOM     28  C   UNL     1       3.399   6.125   1.095  0.00  0.00    +0.229 C 
ENDBRANCH  26  28
ENDBRANCH  24  26
ENDBRANCH   1  24
TORSDOF 8
