REMARK  Name = ZINC57653109
REMARK  8 active torsions:
REMARK  status: ('A' for Active; 'I' for Inactive)
REMARK    1  A    between atoms: C_1  and  C_2
REMARK    2  A    between atoms: C_4  and  N_11
REMARK    3  A    between atoms: C_5  and  O_9
REMARK    4  A    between atoms: O_9  and  C_10
REMARK    5  A    between atoms: N_11  and  C_12
REMARK    6  A    between atoms: C_12  and  C_13
REMARK    7  A    between atoms: N_15  and  C_16
REMARK    8  A    between atoms: N_15  and  C_22
REMARK                            x       y       z     vdW  Elec       q    Type
REMARK                         _______ _______ _______ _____ _____    ______ ____
ROOT
ATOM      1  C   UNL     1       0.043  -3.022  -4.851  0.00  0.00    +0.237 C 
ATOM      2  O   UNL     1       0.220  -4.208  -4.665  0.00  0.00    -0.274 OA
ATOM      3  N   UNL     1      -0.096  -2.551  -6.106  0.00  0.00    -0.265 N 
ENDROOT
BRANCH   3   4
ATOM      4  C   UNL     1      -0.169  -1.107  -6.341  0.00  0.00    +0.104 C 
ATOM      5  C   UNL     1      -1.444  -0.774  -7.135  0.00  0.00    +0.047 C 
ATOM      6  C   UNL     1      -1.373   0.679  -7.662  0.00  0.00    +0.168 C 
ATOM      7  S   UNL     1       0.436   0.959  -7.835  0.00  0.00    -0.029 S 
ATOM      8  O   UNL     1       0.830   2.000  -6.952  0.00  0.00    -0.174 OA
ATOM      9  O   UNL     1       0.759   1.053  -9.216  0.00  0.00    -0.174 OA
ATOM     10  C   UNL     1       1.057  -0.648  -7.182  0.00  0.00    +0.188 C 
ENDBRANCH   3   4
BRANCH   3  11
ATOM     11  C   UNL     1      -0.169  -3.440  -7.184  0.00  0.00    +0.037 A 
ATOM     12  C   UNL     1      -0.148  -2.958  -8.486  0.00  0.00    +0.023 A 
ATOM     13  C   UNL     1      -0.221  -3.839  -9.548  0.00  0.00    +0.002 A 
ATOM     14  C   UNL     1      -0.315  -5.198  -9.315  0.00  0.00    +0.000 A 
ATOM     15  C   UNL     1      -0.337  -5.681  -8.019  0.00  0.00    +0.002 A 
ATOM     16  C   UNL     1      -0.258  -4.806  -6.954  0.00  0.00    +0.023 A 
ENDBRANCH   3  11
BRANCH   1  17
ATOM     17  C   UNL     1      -0.022  -2.077  -3.679  0.00  0.00    +0.198 C 
BRANCH  17  18
ATOM     18  N   UNL     1       0.036  -2.842  -2.431  0.00  0.00    -0.333 N 
ATOM     19  H   UNL     1       0.104  -3.809  -2.458  0.00  0.00    +0.147 HD
BRANCH  18  23
ATOM     20  C   UNL     1      -0.259   1.363   0.099  0.00  0.00    +0.045 C 
ATOM     21  C   UNL     1      -0.152  -0.140   0.057  0.00  0.00    -0.030 A 
ATOM     22  C   UNL     1      -0.107  -0.795  -1.160  0.00  0.00    +0.031 A 
ATOM     23  C   UNL     1      -0.009  -2.177  -1.200  0.00  0.00    +0.070 A 
ATOM     24  C   UNL     1       0.045  -2.903  -0.011  0.00  0.00    +0.142 A 
ATOM     25  C   UNL     1       0.000  -2.241   1.204  0.00  0.00    +0.067 A 
ATOM     26  C   UNL     1      -0.092  -0.860   1.236  0.00  0.00    +0.047 A 
ATOM     27 CL   UNL     1      -0.141  -0.032   2.761  0.00  0.00    -0.083 Cl
BRANCH  24  28
ATOM     28  O   UNL     1       0.141  -4.260  -0.045  0.00  0.00    -0.493 OA
ATOM     29  C   UNL     1       0.192  -4.938   1.211  0.00  0.00    +0.277 C 
ENDBRANCH  24  28
ENDBRANCH  18  23
ENDBRANCH  17  18
ENDBRANCH   1  17
TORSDOF 6
