REMARK  Name = ZINC33810640
REMARK  9 active torsions:
REMARK  status: ('A' for Active; 'I' for Inactive)
REMARK    1  A    between atoms: C_1  and  C_2
REMARK    2  A    between atoms: C_5  and  C_8
REMARK    3  A    between atoms: C_8  and  S_9
REMARK    4  A    between atoms: S_9  and  C_10
REMARK    5  A    between atoms: C_20  and  C_22
REMARK    6  A    between atoms: C_25  and  O_31
REMARK    7  A    between atoms: C_26  and  N_28
REMARK    8  A    between atoms: C_35  and  C_37
REMARK    9  A    between atoms: C_35  and  C_38
REMARK                            x       y       z     vdW  Elec       q    Type
REMARK                         _______ _______ _______ _____ _____    ______ ____
ROOT
ATOM      1  C   UNL     1       1.632  -6.614  -0.043  0.00  0.00    +0.194 A 
ATOM      2  N   UNL     1       0.422  -7.155  -0.045  0.00  0.00    -0.183 NA
ATOM      3  C   UNL     1       0.269  -8.479  -0.051  0.00  0.00    +0.280 A 
ATOM      4  O   UNL     1      -0.969  -9.033  -0.053  0.00  0.00    -0.265 OA
ATOM      5  C   UNL     1       1.397  -9.274  -0.056  0.00  0.00    +0.075 A 
ATOM      6  C   UNL     1       2.664  -8.682  -0.055  0.00  0.00    +0.165 A 
ATOM      7  N   UNL     1       2.735  -7.346  -0.053  0.00  0.00    -0.202 NA
ATOM      8  N   UNL     1       3.788  -9.435  -0.061  0.00  0.00    -0.232 NA
ATOM      9  C   UNL     1       3.824 -10.741  -0.067  0.00  0.00    +0.052 C 
ATOM     10  C   UNL     1       2.645 -11.514  -0.068  0.00  0.00    +0.028 C 
ATOM     11  C   UNL     1       1.314 -10.783  -0.063  0.00  0.00    +0.093 C 
ATOM     12  C   UNL     1       2.668 -12.854  -0.075  0.00  0.00    +0.162 C 
ATOM     13  O   UNL     1       1.504 -13.535  -0.076  0.00  0.00    -0.292 OA
ATOM     14  C   UNL     1       3.967 -13.615  -0.081  0.00  0.00    +0.086 C 
ATOM     15  C   UNL     1       5.038 -12.779  -0.788  0.00  0.00    -0.023 C 
ATOM     16  C   UNL     1       5.168 -11.433  -0.072  0.00  0.00    +0.062 C 
ATOM     17  C   UNL     1       4.629 -12.548  -2.244  0.00  0.00    +0.011 C 
ATOM     18  C   UNL     1       6.378 -13.517  -0.740  0.00  0.00    +0.011 C 
ENDROOT
BRANCH  11  19
ATOM     19  C   UNL     1       0.541 -11.218   1.155  0.00  0.00    -0.033 A 
ATOM     20  C   UNL     1       1.000 -10.891   2.418  0.00  0.00    +0.008 A 
ATOM     21  C   UNL     1       0.294 -11.289   3.536  0.00  0.00    +0.048 A 
ATOM     22  C   UNL     1      -0.878 -12.017   3.392  0.00  0.00    +0.147 A 
ATOM     23  C   UNL     1      -1.337 -12.344   2.124  0.00  0.00    +0.168 A 
ATOM     24  C   UNL     1      -0.630 -11.939   1.009  0.00  0.00    +0.041 A 
BRANCH  23  25
ATOM     25  N   UNL     1      -2.587 -13.121   1.966  0.00  0.00    +0.060 N 
ATOM     26  O   UNL     1      -2.987 -13.405   0.862  0.00  0.00    -0.126 OA
ATOM     27  O   UNL     1      -3.208 -13.471   2.943  0.00  0.00    -0.126 OA
ENDBRANCH  23  25
BRANCH  22  28
ATOM     28  O   UNL     1      -1.575 -12.410   4.490  0.00  0.00    -0.504 OA
ATOM     29  H   UNL     1      -2.241 -11.772   4.783  0.00  0.00    +0.292 HD
ENDBRANCH  22  28
ENDBRANCH  11  19
BRANCH   1  30
ATOM     30  S   UNL     1       1.777  -4.858  -0.034  0.00  0.00    -0.081 S 
BRANCH  30  31
ATOM     31  C   UNL     1       0.059  -4.275  -0.021  0.00  0.00    +0.112 C 
BRANCH  31  36
ATOM     32  C   UNL     1      -0.018   1.503   0.010  0.00  0.00    +0.044 C 
ATOM     33  C   UNL     1       0.002  -0.004   0.002  0.00  0.00    -0.050 A 
ATOM     34  C   UNL     1       0.006  -0.689  -1.199  0.00  0.00    +0.003 A 
ATOM     35  C   UNL     1       0.025  -2.071  -1.206  0.00  0.00    +0.005 A 
ATOM     36  C   UNL     1       0.040  -2.768  -0.013  0.00  0.00    -0.037 A 
ATOM     37  C   UNL     1       0.037  -2.084   1.188  0.00  0.00    +0.005 A 
ATOM     38  C   UNL     1       0.023  -0.702   1.195  0.00  0.00    +0.003 A 
ENDBRANCH  31  36
ENDBRANCH  30  31
ENDBRANCH   1  30
TORSDOF 6
