REMARK  Name = ZINC39164444
REMARK  3 active torsions:
REMARK  status: ('A' for Active; 'I' for Inactive)
REMARK    1  A    between atoms: C_10  and  C_13
REMARK    2  A    between atoms: C_13  and  C_14
REMARK    3  A    between atoms: N_16  and  C_17
REMARK                            x       y       z     vdW  Elec       q    Type
REMARK                         _______ _______ _______ _____ _____    ______ ____
ROOT
ATOM      1  C   UNL     1       3.414  -2.080  -2.397  0.00  0.00    +0.119 C 
ENDROOT
BRANCH   1  11
ATOM      2  C   UNL     1      -0.017   1.377   0.010  0.00  0.00    +0.002 A 
ATOM      3  C   UNL     1       1.166   2.094   0.002  0.00  0.00    +0.001 A 
ATOM      4  C   UNL     1       2.377   1.426  -0.008  0.00  0.00    +0.016 A 
ATOM      5  C   UNL     1       2.401   0.041  -0.015  0.00  0.00    +0.030 A 
ATOM      6  C   UNL     1       1.213  -0.690  -0.015  0.00  0.00    +0.047 A 
ATOM      7  C   UNL     1       0.002  -0.004   0.002  0.00  0.00    +0.024 A 
ATOM      8  N   UNL     1       1.205  -2.081  -0.044  0.00  0.00    -0.284 N 
ATOM      9  C   UNL     1       2.221  -2.873  -0.370  0.00  0.00    +0.231 C 
ATOM     10  O   UNL     1       2.083  -4.071  -0.238  0.00  0.00    -0.274 OA
ATOM     11  C   UNL     1       3.534  -2.357  -0.897  0.00  0.00    +0.146 C 
ATOM     12  S   UNL     1       3.943  -0.819  -0.017  0.00  0.00    -0.110 S 
ATOM     13  H   UNL     1       0.373  -2.517   0.199  0.00  0.00    +0.155 HD
ENDBRANCH   1  11
BRANCH   1  14
ATOM     14  C   UNL     1       4.760  -1.682  -2.944  0.00  0.00    +0.215 C 
ATOM     15  O   UNL     1       5.722  -1.625  -2.207  0.00  0.00    -0.276 OA
ATOM     16  N   UNL     1       4.896  -1.388  -4.252  0.00  0.00    -0.306 N 
ATOM     17  H   UNL     1       4.127  -1.434  -4.842  0.00  0.00    +0.150 HD
BRANCH  16  18
ATOM     18  C   UNL     1       6.205  -1.001  -4.784  0.00  0.00    +0.120 C 
ATOM     19  C   UNL     1       6.416   0.457  -4.455  0.00  0.00    +0.001 C 
ATOM     20  C   UNL     1       6.644   1.335  -5.429  0.00  0.00    +0.028 C 
ATOM     21  C   UNL     1       6.695   0.905  -6.829  0.00  0.00    +0.094 C 
ATOM     22  N   UNL     1       6.894   1.523  -7.974  0.00  0.00    -0.149 NA
ATOM     23  N   UNL     1       6.851   0.728  -8.978  0.00  0.00    -0.156 NA
ATOM     24  C   UNL     1       6.618  -0.519  -8.644  0.00  0.00    +0.144 C 
ATOM     25  C   UNL     1       6.492  -0.517  -7.184  0.00  0.00    +0.020 C 
ATOM     26  C   UNL     1       6.258  -1.441  -6.231  0.00  0.00    +0.011 C 
ENDBRANCH  16  18
ENDBRANCH   1  14
TORSDOF 3
