REMARK  Name = ZINC11815332
REMARK  8 active torsions:
REMARK  status: ('A' for Active; 'I' for Inactive)
REMARK    1  A    between atoms: C_1  and  C_2
REMARK    2  A    between atoms: C_11  and  C_12
REMARK    3  A    between atoms: N_14  and  C_15
REMARK    4  A    between atoms: C_18  and  C_30
REMARK    5  A    between atoms: C_21  and  C_22
REMARK    6  A    between atoms: C_21  and  N_54
REMARK    7  A    between atoms: C_30  and  O_32
REMARK    8  A    between atoms: O_32  and  C_33
REMARK                            x       y       z     vdW  Elec       q    Type
REMARK                         _______ _______ _______ _____ _____    ______ ____
ROOT
ATOM      1  C   UNL     1      -2.502   1.223   0.438  0.00  0.00    +0.056 C 
ATOM      2  C   UNL     1      -3.825   1.897   0.887  0.00  0.00    +0.016 C 
ATOM      3  C   UNL     1      -4.855   1.345  -0.122  0.00  0.00    +0.045 C 
ATOM      4  C   UNL     1      -2.672   1.192  -1.101  0.00  0.00    -0.055 C 
ATOM      5  N   UNL     1      -4.104   0.897  -1.306  0.00  0.00    +0.393 N 
ATOM      6  H   UNL     1      -4.229  -0.116  -1.423  0.00  0.00    -0.080 HD
ENDROOT
BRANCH   1   9
ATOM      7  C   UNL     1      -0.140   1.451   0.995  0.00  0.00    +0.261 C 
ATOM      8  O   UNL     1      -0.017   0.252   0.833  0.00  0.00    -0.269 OA
ATOM      9  N   UNL     1      -1.343   2.034   0.822  0.00  0.00    -0.309 N 
ATOM     10  H   UNL     1      -1.442   2.990   0.951  0.00  0.00    +0.149 HD
BRANCH   7  21
ATOM     11  C   UNL     1       2.728   0.362   1.441  0.00  0.00    +0.047 C 
ATOM     12  C   UNL     1       2.283   1.796   1.572  0.00  0.00    -0.013 A 
ATOM     13  C   UNL     1       3.103   2.896   1.922  0.00  0.00    +0.005 A 
ATOM     14  C   UNL     1       4.464   3.020   2.234  0.00  0.00    +0.030 A 
ATOM     15  C   UNL     1       4.981   4.247   2.538  0.00  0.00    +0.042 A 
ATOM     16  C   UNL     1       4.170   5.376   2.540  0.00  0.00    +0.022 A 
ATOM     17  C   UNL     1       2.830   5.278   2.237  0.00  0.00    +0.027 A 
ATOM     18  C   UNL     1       2.280   4.038   1.924  0.00  0.00    +0.047 A 
ATOM     19  N   UNL     1       1.012   3.632   1.580  0.00  0.00    -0.350 N 
ATOM     20  H   UNL     1       0.236   4.208   1.499  0.00  0.00    +0.166 HD
ATOM     21  C   UNL     1       1.024   2.266   1.374  0.00  0.00    +0.106 A 
ATOM     22 CL   UNL     1       6.666   4.398   2.925  0.00  0.00    -0.084 Cl
ENDBRANCH   7  21
ENDBRANCH   1   9
BRANCH   3  23
ATOM     23  C   UNL     1      -5.836   2.427  -0.495  0.00  0.00    +0.293 C 
ATOM     24  O   UNL     1      -5.471   3.375  -1.149  0.00  0.00    -0.253 OA
BRANCH  23  25
ATOM     25  O   UNL     1      -7.116   2.336  -0.101  0.00  0.00    -0.469 OA
ATOM     26  C   UNL     1      -8.005   3.414  -0.497  0.00  0.00    +0.280 C 
ENDBRANCH  23  25
ENDBRANCH   3  23
BRANCH   5  27
ATOM     27  C   UNL     1      -4.602   1.591  -2.522  0.00  0.00    -0.039 C 
BRANCH  27  28
ATOM     28  C   UNL     1      -4.136   0.846  -3.745  0.00  0.00    -0.026 A 
ATOM     29  C   UNL     1      -5.026   0.064  -4.458  0.00  0.00    +0.043 A 
ATOM     30  C   UNL     1      -4.598  -0.621  -5.583  0.00  0.00    +0.124 A 
ATOM     31  C   UNL     1      -3.280  -0.523  -5.994  0.00  0.00    +0.041 A 
ATOM     32  C   UNL     1      -2.391   0.259  -5.281  0.00  0.00    +0.041 A 
ATOM     33  C   UNL     1      -2.819   0.947  -4.159  0.00  0.00    +0.125 A 
ATOM     34  F   UNL     1      -1.951   1.715  -3.465  0.00  0.00    -0.205 F 
ATOM     35  F   UNL     1      -5.468  -1.385  -6.280  0.00  0.00    -0.205 F 
ENDBRANCH  27  28
ENDBRANCH   5  27
TORSDOF 6
