REMARK  Name = ZINC34749834
REMARK  5 active torsions:
REMARK  status: ('A' for Active; 'I' for Inactive)
REMARK    1  A    between atoms: C_1  and  C_2
REMARK    2  A    between atoms: C_13  and  C_15
REMARK    3  A    between atoms: C_13  and  C_16
REMARK    4  A    between atoms: N_20  and  C_23
REMARK    5  A    between atoms: C_23  and  C_24
REMARK                            x       y       z     vdW  Elec       q    Type
REMARK                         _______ _______ _______ _____ _____    ______ ____
ROOT
ATOM      1  C   UNL     1      -2.501  -0.753   1.164  0.00  0.00    +0.088 C 
ATOM      2  C   UNL     1      -1.163  -1.062   0.543  0.00  0.00    +0.129 A 
ATOM      3  N   UNL     1      -1.119  -1.666  -0.631  0.00  0.00    -0.217 NA
ATOM      4  C   UNL     1       0.023  -1.965  -1.228  0.00  0.00    +0.133 A 
ATOM      5  C   UNL     1       1.248  -1.629  -0.589  0.00  0.00    +0.051 A 
ATOM      6  C   UNL     1       2.617  -1.857  -1.047  0.00  0.00    -0.020 A 
ATOM      7  C   UNL     1       3.614  -1.435  -0.240  0.00  0.00    +0.021 A 
ATOM      8  S   UNL     1       2.802  -0.718   1.161  0.00  0.00    -0.071 S 
ATOM      9  C   UNL     1       1.121  -0.987   0.661  0.00  0.00    +0.114 A 
ATOM     10  N   UNL     1      -0.060  -0.721   1.182  0.00  0.00    -0.225 NA
ATOM     11  C   UNL     1       5.082  -1.565  -0.504  0.00  0.00    +0.203 C 
ATOM     12  O   UNL     1       5.256  -2.487  -1.591  0.00  0.00    -0.368 OA
ATOM     13  C   UNL     1       4.413  -2.209  -2.713  0.00  0.00    +0.068 C 
ATOM     14  C   UNL     1       2.956  -2.536  -2.372  0.00  0.00    +0.071 C 
ATOM     15  C   UNL     1       4.528  -0.728  -3.080  0.00  0.00    +0.041 C 
ATOM     16  C   UNL     1       4.858  -3.060  -3.905  0.00  0.00    +0.041 C 
ATOM     17  N   UNL     1       0.025  -2.597  -2.459  0.00  0.00    -0.318 N 
ATOM     18  C   UNL     1       0.148  -4.059  -2.557  0.00  0.00    +0.088 C 
ATOM     19  C   UNL     1      -0.971  -4.581  -3.465  0.00  0.00    -0.059 C 
ATOM     20  N   UNL     1      -0.920  -3.880  -4.754  0.00  0.00    +0.387 N 
ATOM     21  C   UNL     1      -1.203  -2.453  -4.559  0.00  0.00    -0.059 C 
ATOM     22  C   UNL     1      -0.101  -1.826  -3.705  0.00  0.00    +0.088 C 
ATOM     23  H   UNL     1      -0.002  -3.988  -5.159  0.00  0.00    -0.081 HD
ENDROOT
BRANCH  20  24
ATOM     24  C   UNL     1      -1.921  -4.456  -5.662  0.00  0.00    +0.019 C 
BRANCH  24  25
ATOM     25  C   UNL     1      -1.789  -3.823  -7.023  0.00  0.00    +0.199 C 
ATOM     26  O   UNL     1      -0.943  -2.975  -7.218  0.00  0.00    -0.278 OA
ATOM     27  N   UNL     1      -2.609  -4.199  -8.024  0.00  0.00    -0.303 N 
ATOM     28  C   UNL     1      -3.677  -5.205  -7.925  0.00  0.00    +0.108 C 
ATOM     29  C   UNL     1      -4.329  -5.319  -9.319  0.00  0.00    +0.020 C 
ATOM     30  C   UNL     1      -3.223  -4.783 -10.265  0.00  0.00    +0.020 C 
ATOM     31  C   UNL     1      -2.590  -3.664  -9.398  0.00  0.00    +0.108 C 
ENDBRANCH  24  25
ENDBRANCH  20  24
TORSDOF 2
