REMARK  Name = ZINC13093451
REMARK  10 active torsions:
REMARK  status: ('A' for Active; 'I' for Inactive)
REMARK    1  A    between atoms: C_1  and  C_2
REMARK    2  A    between atoms: N_4  and  C_5
REMARK    3  A    between atoms: C_5  and  C_6
REMARK    4  A    between atoms: C_9  and  C_11
REMARK    5  A    between atoms: N_16  and  S_17
REMARK    6  A    between atoms: S_17  and  C_20
REMARK    7  A    between atoms: C_22  and  C_28
REMARK    8  A    between atoms: C_25  and  O_26
REMARK    9  A    between atoms: O_26  and  C_27
REMARK   10  A    between atoms: C_29  and  C_30
REMARK                            x       y       z     vdW  Elec       q    Type
REMARK                         _______ _______ _______ _____ _____    ______ ____
ROOT
ATOM      1  C   UNL     1      -0.928   3.747   2.436  0.00  0.00    +0.087 A 
ATOM      2  C   UNL     1      -0.100   3.872   1.354  0.00  0.00    +0.077 A 
ATOM      3  S   UNL     1      -0.721   2.564   0.306  0.00  0.00    -0.059 S 
ATOM      4  C   UNL     1      -2.009   1.987   1.402  0.00  0.00    +0.178 A 
ATOM      5  N   UNL     1      -1.871   2.806   2.428  0.00  0.00    -0.223 NA
ATOM      6  N   UNL     1      -2.917   0.957   1.220  0.00  0.00    -0.194 N 
ATOM      7  H   UNL     1      -3.617   0.806   1.874  0.00  0.00    +0.176 HD
ENDROOT
BRANCH   1  11
ATOM      8  C   UNL     1      -0.168   6.493   5.469  0.00  0.00    +0.007 A 
ATOM      9  C   UNL     1      -1.185   5.630   5.711  0.00  0.00    +0.013 A 
ATOM     10  C   UNL     1      -1.510   4.689   4.757  0.00  0.00    +0.018 A 
ATOM     11  C   UNL     1      -0.783   4.651   3.597  0.00  0.00    +0.038 A 
ATOM     12  S   UNL     1       0.379   5.982   3.848  0.00  0.00    -0.090 S 
BRANCH   8  13
ATOM     13  C   UNL     1       0.365   7.600   6.343  0.00  0.00    +0.146 C 
BRANCH  13  17
ATOM     14  C   UNL     1       3.143   7.346   8.964  0.00  0.00    +0.109 C 
ATOM     15  C   UNL     1       2.052   7.888   8.077  0.00  0.00    +0.210 C 
ATOM     16  O   UNL     1       1.737   9.057   8.148  0.00  0.00    -0.276 OA
ATOM     17  N   UNL     1       1.425   7.073   7.205  0.00  0.00    -0.311 N 
ATOM     18  H   UNL     1       1.677   6.138   7.149  0.00  0.00    +0.149 HD
ENDBRANCH  13  17
ENDBRANCH   8  13
ENDBRANCH   1  11
BRANCH   6  19
ATOM     19  S   UNL     1      -2.808  -0.017  -0.115  0.00  0.00    +0.077 S 
ATOM     20  O   UNL     1      -2.720   0.846  -1.241  0.00  0.00    -0.150 OA
ATOM     21  O   UNL     1      -3.828  -0.999   0.014  0.00  0.00    -0.150 OA
BRANCH  19  22
ATOM     22  C   UNL     1      -1.271  -0.871  -0.013  0.00  0.00    +0.150 A 
ATOM     23  C   UNL     1      -0.295  -0.645  -0.958  0.00  0.00    +0.040 A 
ATOM     24  C   UNL     1       0.926  -1.324  -0.875  0.00  0.00    -0.023 A 
ATOM     25  C   UNL     1       1.149  -2.230   0.169  0.00  0.00    +0.011 A 
ATOM     26  C   UNL     1       0.169  -2.444   1.111  0.00  0.00    +0.048 A 
ATOM     27  C   UNL     1      -1.044  -1.771   1.022  0.00  0.00    +0.147 A 
BRANCH  27  28
ATOM     28  O   UNL     1      -2.009  -1.990   1.951  0.00  0.00    -0.493 OA
ATOM     29  C   UNL     1      -1.756  -3.006   2.923  0.00  0.00    +0.277 C 
ENDBRANCH  27  28
BRANCH  24  30
ATOM     30  C   UNL     1       1.971  -1.087  -1.881  0.00  0.00    +0.015 C 
ATOM     31  C   UNL     1       3.149  -1.743  -1.799  0.00  0.00    +0.096 C 
BRANCH  31  32
ATOM     32  C   UNL     1       4.157  -1.514  -2.769  0.00  0.00    +0.380 C 
ATOM     33  O   UNL     1       3.962  -0.726  -3.675  0.00  0.00    -0.241 OA
ATOM     34  O   UNL     1       5.334  -2.170  -2.687  0.00  0.00    -0.241 OA
ENDBRANCH  31  32
ENDBRANCH  24  30
ENDBRANCH  19  22
ENDBRANCH   6  19
TORSDOF 8
