REMARK  Name = ZINC38597744
REMARK  7 active torsions:
REMARK  status: ('A' for Active; 'I' for Inactive)
REMARK    1  A    between atoms: C_3  and  C_6
REMARK    2  A    between atoms: C_6  and  C_8
REMARK    3  A    between atoms: C_6  and  N_26
REMARK    4  A    between atoms: C_8  and  N_9
REMARK    5  A    between atoms: C_10  and  C_12
REMARK    6  A    between atoms: N_17  and  C_19
REMARK    7  A    between atoms: N_29  and  C_32
REMARK                            x       y       z     vdW  Elec       q    Type
REMARK                         _______ _______ _______ _____ _____    ______ ____
ROOT
ATOM      1  C   UNL     1       3.610   0.701   0.015  0.00  0.00    +0.017 C 
ENDROOT
BRANCH   1   2
ATOM      2  N   UNL     1       3.897  -0.283   1.067  0.00  0.00    +0.389 N 
ATOM      3  C   UNL     1       3.315  -1.579   0.695  0.00  0.00    -0.059 C 
ATOM      4  C   UNL     1       3.711  -2.632   1.735  0.00  0.00    +0.086 C 
ATOM      5  N   UNL     1       3.312  -2.147   3.065  0.00  0.00    -0.333 N 
ATOM      6  C   UNL     1       3.715  -0.788   3.458  0.00  0.00    +0.086 C 
ATOM      7  C   UNL     1       3.320   0.178   2.337  0.00  0.00    -0.059 C 
ATOM      8  H   UNL     1       4.895  -0.382   1.170  0.00  0.00    -0.081 HD
BRANCH   5   9
ATOM      9  C   UNL     1       2.570  -2.956   3.933  0.00  0.00    +0.030 A 
ATOM     10  C   UNL     1       2.310  -4.278   3.599  0.00  0.00    +0.026 A 
ATOM     11  C   UNL     1       1.578  -5.075   4.457  0.00  0.00    +0.040 A 
ATOM     12  C   UNL     1       1.104  -4.556   5.650  0.00  0.00    +0.124 A 
ATOM     13  C   UNL     1       1.362  -3.238   5.985  0.00  0.00    +0.040 A 
ATOM     14  C   UNL     1       2.098  -2.439   5.132  0.00  0.00    +0.026 A 
ATOM     15  F   UNL     1       0.388  -5.337   6.488  0.00  0.00    -0.205 F 
ENDBRANCH   5   9
ENDBRANCH   1   2
BRANCH   1  18
ATOM     16  C   UNL     1       0.119   1.860  -0.213  0.00  0.00    +0.041 A 
ATOM     17  C   UNL     1       1.507   2.117  -0.144  0.00  0.00    +0.043 A 
ATOM     18  C   UNL     1       2.122   0.923  -0.073  0.00  0.00    +0.093 A 
ATOM     19  O   UNL     1       1.184  -0.039  -0.095  0.00  0.00    -0.469 OA
ATOM     20  C   UNL     1      -0.032   0.524  -0.179  0.00  0.00    +0.195 A 
ENDBRANCH   1  18
BRANCH   1  21
ATOM     21  C   UNL     1       4.128   0.179  -1.326  0.00  0.00    +0.096 C 
BRANCH  21  22
ATOM     22  N   UNL     1       5.554  -0.138  -1.209  0.00  0.00    -0.316 N 
ATOM     23  C   UNL     1       6.203  -0.713  -2.240  0.00  0.00    +0.218 C 
ATOM     24  O   UNL     1       5.607  -0.969  -3.265  0.00  0.00    -0.275 OA
ATOM     25  H   UNL     1       6.030   0.067  -0.390  0.00  0.00    +0.149 HD
BRANCH  23  26
ATOM     26  C   UNL     1       7.670  -1.038  -2.120  0.00  0.00    +0.101 C 
ATOM     27  C   UNL     1       8.511   0.250  -1.966  0.00  0.00    +0.110 C 
ATOM     28  C   UNL     1       9.772  -0.035  -2.753  0.00  0.00    +0.221 C 
ATOM     29  O   UNL     1      10.805   0.595  -2.662  0.00  0.00    -0.275 OA
ATOM     30  N   UNL     1       9.581  -1.087  -3.567  0.00  0.00    -0.271 N 
ATOM     31  C   UNL     1       8.218  -1.618  -3.443  0.00  0.00    +0.127 C 
BRANCH  30  32
ATOM     32  C   UNL     1      10.557  -1.611  -4.423  0.00  0.00    +0.036 A 
ATOM     33  C   UNL     1      11.858  -1.126  -4.374  0.00  0.00    +0.025 A 
ATOM     34  C   UNL     1      12.819  -1.644  -5.220  0.00  0.00    +0.022 A 
ATOM     35  C   UNL     1      12.487  -2.646  -6.115  0.00  0.00    +0.041 A 
ATOM     36  C   UNL     1      11.192  -3.131  -6.166  0.00  0.00    +0.022 A 
ATOM     37  C   UNL     1      10.228  -2.620  -5.318  0.00  0.00    +0.025 A 
ATOM     38 CL   UNL     1      13.697  -3.295  -7.177  0.00  0.00    -0.084 Cl
ENDBRANCH  30  32
ENDBRANCH  23  26
ENDBRANCH  21  22
ENDBRANCH   1  21
TORSDOF 7
