REMARK  Name = ZINC66057369
REMARK  7 active torsions:
REMARK  status: ('A' for Active; 'I' for Inactive)
REMARK    1  A    between atoms: C_1  and  C_2
REMARK    2  A    between atoms: C_2  and  C_3
REMARK    3  A    between atoms: C_3  and  C_22
REMARK    4  A    between atoms: N_6  and  C_10
REMARK    5  A    between atoms: C_10  and  C_11
REMARK    6  A    between atoms: N_13  and  C_14
REMARK    7  A    between atoms: C_17  and  C_21
REMARK                            x       y       z     vdW  Elec       q    Type
REMARK                         _______ _______ _______ _____ _____    ______ ____
ROOT
ATOM      1  C   UNL     1      -2.380  -3.535   1.988  0.00  0.00    +0.214 C 
ENDROOT
BRANCH   1   5
ATOM      2  C   UNL     1      -1.437  -0.537   0.009  0.00  0.00    +0.110 C 
ATOM      3  C   UNL     1      -1.455  -2.036   0.234  0.00  0.00    +0.247 C 
ATOM      4  O   UNL     1      -0.968  -2.889  -0.477  0.00  0.00    -0.273 OA
ATOM      5  N   UNL     1      -2.124  -2.223   1.388  0.00  0.00    -0.215 N 
ATOM      6  C   UNL     1      -2.527  -1.062   1.919  0.00  0.00    +0.310 C 
ATOM      7  O   UNL     1      -3.150  -0.975   2.959  0.00  0.00    -0.252 OA
ATOM      8  N   UNL     1      -2.166  -0.003   1.172  0.00  0.00    -0.285 N 
ATOM      9  C   UNL     1      -2.158  -0.175  -1.291  0.00  0.00    +0.041 C 
ATOM     10  H   UNL     1      -2.350   0.930   1.363  0.00  0.00    +0.151 HD
BRANCH   2  12
ATOM     11  C   UNL     1      -0.013   1.517  -0.005  0.00  0.00    +0.006 C 
ATOM     12  C   UNL     1       0.001  -0.013  -0.011  0.00  0.00    +0.031 C 
ENDBRANCH   2  12
ENDBRANCH   1   5
BRANCH   1  13
ATOM     13  C   UNL     1      -1.248  -3.892   2.916  0.00  0.00    +0.235 C 
ATOM     14  O   UNL     1      -0.319  -3.126   3.062  0.00  0.00    -0.274 OA
ATOM     15  N   UNL     1      -1.268  -5.062   3.584  0.00  0.00    -0.284 N 
ATOM     16  H   UNL     1      -2.041  -5.644   3.520  0.00  0.00    +0.155 HD
BRANCH  15  17
ATOM     17  C   UNL     1      -0.173  -5.438   4.370  0.00  0.00    +0.034 A 
ATOM     18  C   UNL     1       0.197  -6.774   4.455  0.00  0.00    +0.023 A 
ATOM     19  C   UNL     1       1.278  -7.142   5.231  0.00  0.00    +0.006 A 
ATOM     20  C   UNL     1       1.993  -6.182   5.925  0.00  0.00    -0.036 A 
ATOM     21  C   UNL     1       1.627  -4.851   5.843  0.00  0.00    +0.023 A 
ATOM     22  C   UNL     1       0.549  -4.475   5.062  0.00  0.00    +0.038 A 
ATOM     23 BR   UNL     1       2.607  -3.542   6.793  0.00  0.00    -0.050 Br
ATOM     24  C   UNL     1       3.172  -6.588   6.771  0.00  0.00    +0.045 C 
ENDBRANCH  15  17
ENDBRANCH   1  13
TORSDOF 4
