REMARK  Name = ZINC13274832
REMARK  12 active torsions:
REMARK  status: ('A' for Active; 'I' for Inactive)
REMARK    1  A    between atoms: C_1  and  C_2
REMARK    2  A    between atoms: C_6  and  C_31
REMARK    3  A    between atoms: C_7  and  N_8
REMARK    4  A    between atoms: C_9  and  C_11
REMARK    5  A    between atoms: C_11  and  S_12
REMARK    6  A    between atoms: S_12  and  C_13
REMARK    7  A    between atoms: N_23  and  C_24
REMARK    8  A    between atoms: C_24  and  C_25
REMARK    9  A    between atoms: C_25  and  C_26
REMARK   10  A    between atoms: C_26  and  C_27
REMARK   11  A    between atoms: C_27  and  C_28
REMARK   12  A    between atoms: C_28  and  C_29
REMARK                            x       y       z     vdW  Elec       q    Type
REMARK                         _______ _______ _______ _____ _____    ______ ____
ROOT
ATOM      1  C   UNL     1      -1.244  -1.094   0.884  0.00  0.00    +0.173 A 
ATOM      2  N   UNL     1      -1.234  -0.237  -0.108  0.00  0.00    -0.223 NA
ATOM      3  C   UNL     1      -0.096   0.359  -0.515  0.00  0.00    +0.079 A 
ATOM      4  C   UNL     1      -0.085   1.273  -1.572  0.00  0.00    +0.028 A 
ATOM      5  C   UNL     1       1.092   1.855  -1.952  0.00  0.00    +0.002 A 
ATOM      6  C   UNL     1       2.282   1.551  -1.302  0.00  0.00    +0.001 A 
ATOM      7  C   UNL     1       2.303   0.660  -0.264  0.00  0.00    +0.015 A 
ATOM      8  C   UNL     1       1.117   0.052   0.144  0.00  0.00    +0.065 A 
ATOM      9  C   UNL     1       1.080  -0.911   1.253  0.00  0.00    +0.262 A 
ATOM     10  O   UNL     1       2.090  -1.216   1.859  0.00  0.00    -0.267 OA
ATOM     11  N   UNL     1      -0.120  -1.447   1.575  0.00  0.00    -0.287 N 
ENDROOT
BRANCH   1  12
ATOM     12  S   UNL     1      -2.780  -1.823   1.347  0.00  0.00    -0.078 S 
BRANCH  12  13
ATOM     13  C   UNL     1      -3.880  -1.028   0.150  0.00  0.00    +0.173 C 
BRANCH  13  15
ATOM     14  N   UNL     1      -6.287  -1.056  -0.418  0.00  0.00    -0.284 N 
ATOM     15  C   UNL     1      -5.290  -1.515   0.363  0.00  0.00    +0.228 C 
ATOM     16  O   UNL     1      -5.528  -2.321   1.238  0.00  0.00    -0.275 OA
ATOM     17  H   UNL     1      -6.107  -0.372  -1.082  0.00  0.00    +0.155 HD
BRANCH  14  24
ATOM     18  C   UNL     1      -6.647  -3.870  -0.589  0.00  0.00    +0.046 C 
ATOM     19  C   UNL     1      -7.800  -2.930  -0.349  0.00  0.00    -0.028 A 
ATOM     20  C   UNL     1      -9.078  -3.431  -0.200  0.00  0.00    +0.005 A 
ATOM     21  C   UNL     1     -10.146  -2.575   0.015  0.00  0.00    +0.001 A 
ATOM     22  C   UNL     1      -9.944  -1.214   0.088  0.00  0.00    +0.017 A 
ATOM     23  C   UNL     1      -8.656  -0.693  -0.055  0.00  0.00    +0.085 A 
ATOM     24  C   UNL     1      -7.576  -1.562  -0.273  0.00  0.00    +0.051 A 
BRANCH  23  25
ATOM     25  C   UNL     1      -8.432   0.762   0.022  0.00  0.00    +0.388 C 
ATOM     26  O   UNL     1      -7.328   1.220  -0.199  0.00  0.00    -0.241 OA
ATOM     27  O   UNL     1      -9.451   1.585   0.339  0.00  0.00    -0.241 OA
ENDBRANCH  23  25
ENDBRANCH  14  24
ENDBRANCH  13  15
ENDBRANCH  12  13
ENDBRANCH   1  12
BRANCH  11  28
ATOM     28  C   UNL     1      -0.215  -2.413   2.672  0.00  0.00    +0.127 C 
BRANCH  28  29
ATOM     29  C   UNL     1      -0.480  -1.671   3.983  0.00  0.00    +0.022 C 
BRANCH  29  30
ATOM     30  C   UNL     1      -0.579  -2.680   5.129  0.00  0.00    +0.002 C 
BRANCH  30  31
ATOM     31  C   UNL     1      -0.844  -1.938   6.441  0.00  0.00    +0.011 C 
BRANCH  31  32
ATOM     32  C   UNL     1      -0.943  -2.947   7.587  0.00  0.00    +0.125 C 
BRANCH  32  33
ATOM     33  C   UNL     1      -1.204  -2.216   8.878  0.00  0.00    +0.356 C 
ATOM     34  O   UNL     1      -1.301  -1.012   8.882  0.00  0.00    -0.246 OA
ATOM     35  O   UNL     1      -1.329  -2.903  10.025  0.00  0.00    -0.246 OA
ENDBRANCH  32  33
ENDBRANCH  31  32
ENDBRANCH  30  31
ENDBRANCH  29  30
ENDBRANCH  28  29
ENDBRANCH  11  28
TORSDOF 11
