REMARK  Name = ZINC21742234
REMARK  6 active torsions:
REMARK  status: ('A' for Active; 'I' for Inactive)
REMARK    1  A    between atoms: C_1  and  C_2
REMARK    2  A    between atoms: C_3  and  C_21
REMARK    3  A    between atoms: C_8  and  C_10
REMARK    4  A    between atoms: C_15  and  O_16
REMARK    5  A    between atoms: O_16  and  C_17
REMARK    6  A    between atoms: C_17  and  C_18
REMARK                            x       y       z     vdW  Elec       q    Type
REMARK                         _______ _______ _______ _____ _____    ______ ____
ROOT
ATOM      1  C   UNL     1       3.647   2.848  -1.516  0.00  0.00    +0.054 C 
ATOM      2  C   UNL     1       3.545   1.582  -0.705  0.00  0.00    +0.016 A 
ATOM      3  C   UNL     1       2.481   1.070  -0.016  0.00  0.00    +0.083 A 
ATOM      4  N   UNL     1       2.617  -0.077   0.631  0.00  0.00    -0.224 NA
ATOM      5  C   UNL     1       3.761  -0.734   0.629  0.00  0.00    +0.165 A 
ATOM      6  S   UNL     1       4.783   0.334  -0.376  0.00  0.00    -0.057 S 
ATOM      7  N   UNL     1       4.086  -1.937   1.243  0.00  0.00    -0.261 N 
ATOM      8  C   UNL     1       5.328  -2.445   1.116  0.00  0.00    +0.253 C 
ATOM      9  O   UNL     1       6.164  -1.850   0.464  0.00  0.00    -0.270 OA
ATOM     10  H   UNL     1       3.329  -2.475   1.833  0.00  0.00    +0.157 HD
ENDROOT
BRANCH   3  11
ATOM     11  C   UNL     1       1.184   1.790   0.000  0.00  0.00    +0.001 A 
ATOM     12  C   UNL     1      -0.013   1.076   0.008  0.00  0.00    +0.011 A 
ATOM     13  C   UNL     1      -1.216   1.751   0.017  0.00  0.00    +0.016 A 
ATOM     14  C   UNL     1      -1.236   3.135   0.030  0.00  0.00    +0.018 A 
ATOM     15  C   UNL     1      -0.051   3.849   0.023  0.00  0.00    +0.016 A 
ATOM     16  C   UNL     1       1.158   3.184   0.008  0.00  0.00    +0.011 A 
ATOM     17 BR   UNL     1      -2.889   4.053   0.050  0.00  0.00    -0.050 Br
ENDBRANCH   3  11
BRANCH   8  18
ATOM     18  C   UNL     1       5.672  -3.722   1.768  0.00  0.00    +0.079 A 
ATOM     19  C   UNL     1       4.716  -4.406   2.523  0.00  0.00    +0.017 A 
ATOM     20  C   UNL     1       5.043  -5.601   3.126  0.00  0.00    +0.001 A 
ATOM     21  C   UNL     1       6.319  -6.123   2.996  0.00  0.00    +0.004 A 
ATOM     22  C   UNL     1       7.276  -5.455   2.257  0.00  0.00    +0.046 A 
ATOM     23  C   UNL     1       6.963  -4.254   1.639  0.00  0.00    +0.133 A 
BRANCH  23  24
ATOM     24  O   UNL     1       7.901  -3.596   0.914  0.00  0.00    -0.482 OA
BRANCH  24  25
ATOM     25  C   UNL     1       9.194  -4.199   0.827  0.00  0.00    +0.324 C 
BRANCH  25  26
ATOM     26  C   UNL     1      10.097  -3.332  -0.012  0.00  0.00    +0.248 C 
ATOM     27  O   UNL     1       9.675  -2.300  -0.489  0.00  0.00    -0.272 OA
ATOM     28  N   UNL     1      11.373  -3.704  -0.233  0.00  0.00    -0.327 N 
ATOM     29  H   UNL     1      12.033  -3.071  -0.846  0.00  0.00    +0.145 HD
ATOM     30  H   UNL     1      11.756  -4.640   0.199  0.00  0.00    +0.145 HD
ENDBRANCH  25  26
ENDBRANCH  24  25
ENDBRANCH  23  24
ENDBRANCH   8  18
TORSDOF 5
