REMARK  Name = ZINC36369744
REMARK  14 active torsions:
REMARK  status: ('A' for Active; 'I' for Inactive)
REMARK    1  A    between atoms: C_1  and  C_2
REMARK    2  A    between atoms: C_2  and  C_4
REMARK    3  A    between atoms: C_10  and  C_42
REMARK    4  A    between atoms: N_22  and  O_23
REMARK    5  A    between atoms: O_23  and  C_24
REMARK    6  A    between atoms: C_24  and  C_25
REMARK    7  A    between atoms: N_27  and  C_28
REMARK    8  A    between atoms: C_28  and  C_29
REMARK    9  A    between atoms: C_29  and  C_30
REMARK   10  A    between atoms: C_29  and  C_31
REMARK   11  A    between atoms: C_29  and  C_32
REMARK   12  A    between atoms: C_32  and  C_34
REMARK   13  A    between atoms: C_32  and  O_37
REMARK   14  A    between atoms: C_40  and  C_41
REMARK                            x       y       z     vdW  Elec       q    Type
REMARK                         _______ _______ _______ _____ _____    ______ ____
ROOT
ATOM      1  C   UNL     1      -0.006  -0.748  -1.305  0.00  0.00    +0.061 C 
ATOM      2  C   UNL     1       1.440  -0.929  -1.811  0.00  0.00    +0.012 C 
ATOM      3  C   UNL     1       1.683  -2.451  -1.905  0.00  0.00    +0.005 C 
ATOM      4  C   UNL     1       0.253  -3.047  -2.070  0.00  0.00    -0.001 C 
ATOM      5  C   UNL     1      -0.564  -2.164  -1.109  0.00  0.00    -0.019 C 
ATOM      6  C   UNL     1      -2.053  -2.243  -1.359  0.00  0.00    +0.008 C 
ATOM      7  C   UNL     1      -2.379  -1.930  -2.818  0.00  0.00    +0.005 C 
ATOM      8  C   UNL     1      -1.661  -2.950  -3.712  0.00  0.00    +0.002 C 
ATOM      9  C   UNL     1      -0.148  -2.813  -3.530  0.00  0.00    -0.003 C 
ATOM     10  C   UNL     1       0.587  -3.838  -4.401  0.00  0.00    +0.008 C 
ATOM     11  C   UNL     1       0.317  -3.535  -5.876  0.00  0.00    +0.031 C 
ATOM     12  C   UNL     1      -1.185  -3.515  -6.098  0.00  0.00    -0.062 C 
ATOM     13  C   UNL     1      -1.670  -4.227  -7.108  0.00  0.00    +0.026 C 
ATOM     14  C   UNL     1      -3.119  -4.228  -7.378  0.00  0.00    +0.080 C 
ATOM     15  N   UNL     1      -3.688  -5.179  -8.050  0.00  0.00    -0.089 NA
ATOM     16  C   UNL     1      -3.908  -3.056  -6.827  0.00  0.00    +0.059 C 
ATOM     17  C   UNL     1      -3.526  -2.901  -5.356  0.00  0.00    +0.017 C 
ATOM     18  C   UNL     1      -2.045  -2.660  -5.170  0.00  0.00    -0.007 C 
ATOM     19  C   UNL     1      -1.757  -1.183  -5.446  0.00  0.00    +0.016 C 
ATOM     20  C   UNL     1      -0.293  -2.611   0.329  0.00  0.00    +0.012 C 
ENDROOT
BRANCH   1  22
ATOM     21  C   UNL     1      -1.232   0.767   0.431  0.00  0.00    +0.086 C 
ATOM     22  C   UNL     1      -0.009  -0.003   0.004  0.00  0.00    +0.134 C 
ATOM     23  O   UNL     1       0.970  -0.022   0.712  0.00  0.00    -0.297 OA
ENDBRANCH   1  22
BRANCH  15  24
ATOM     24  O   UNL     1      -2.914  -6.256  -8.547  0.00  0.00    -0.384 OA
BRANCH  24  25
ATOM     25  C   UNL     1      -3.671  -7.231  -9.268  0.00  0.00    +0.358 C 
BRANCH  25  26
ATOM     26  C   UNL     1      -2.752  -8.324  -9.748  0.00  0.00    +0.253 C 
ATOM     27  O   UNL     1      -1.566  -8.274  -9.498  0.00  0.00    -0.272 OA
ATOM     28  N   UNL     1      -3.248  -9.358 -10.456  0.00  0.00    -0.312 N 
ATOM     29  H   UNL     1      -4.196  -9.399 -10.656  0.00  0.00    +0.149 HD
BRANCH  28  30
ATOM     30  C   UNL     1      -2.355 -10.422 -10.923  0.00  0.00    +0.113 C 
BRANCH  30  31
ATOM     31  C   UNL     1      -3.164 -11.466 -11.695  0.00  0.00    +0.017 C 
ATOM     32  C   UNL     1      -4.233 -12.063 -10.777  0.00  0.00    +0.015 C 
ATOM     33  C   UNL     1      -3.838 -10.801 -12.897  0.00  0.00    +0.015 C 
BRANCH  31  34
ATOM     34  C   UNL     1      -2.232 -12.576 -12.182  0.00  0.00    +0.234 C 
BRANCH  34  35
ATOM     35  C   UNL     1      -3.029 -13.604 -12.943  0.00  0.00    +0.384 C 
ATOM     36  O   UNL     1      -2.829 -13.773 -14.133  0.00  0.00    -0.243 OA
ATOM     37  O   UNL     1      -3.875 -14.268 -12.367  0.00  0.00    -0.243 OA
ENDBRANCH  34  35
BRANCH  34  38
ATOM     38  O   UNL     1      -1.234 -12.018 -13.040  0.00  0.00    -0.380 OA
ATOM     39  H   UNL     1      -1.590 -11.579 -13.824  0.00  0.00    +0.211 HD
ENDBRANCH  34  38
ENDBRANCH  31  34
ENDBRANCH  30  31
ENDBRANCH  28  30
ENDBRANCH  25  26
ENDBRANCH  24  25
ENDBRANCH  15  24
TORSDOF 9
