REMARK  Name = ZINC59982480
REMARK  12 active torsions:
REMARK  status: ('A' for Active; 'I' for Inactive)
REMARK    1  A    between atoms: C_1  and  C_2
REMARK    2  A    between atoms: C_5  and  S_25
REMARK    3  A    between atoms: C_7  and  C_8
REMARK    4  A    between atoms: N_10  and  C_11
REMARK    5  A    between atoms: C_11  and  C_12
REMARK    6  A    between atoms: C_12  and  C_13
REMARK    7  A    between atoms: C_12  and  C_14
REMARK    8  A    between atoms: C_12  and  N_15
REMARK    9  A    between atoms: C_17  and  C_24
REMARK   10  A    between atoms: C_20  and  C_23
REMARK   11  A    between atoms: S_25  and  N_28
REMARK   12  A    between atoms: N_28  and  C_29
REMARK                            x       y       z     vdW  Elec       q    Type
REMARK                         _______ _______ _______ _____ _____    ______ ____
ROOT
ATOM      1  C   UNL     1       0.331  -0.300   2.394  0.00  0.00    +0.244 C 
ATOM      2  O   UNL     1       0.305   0.911   2.291  0.00  0.00    -0.270 OA
ATOM      3  N   UNL     1       0.504  -0.869   3.603  0.00  0.00    -0.313 N 
ATOM      4  H   UNL     1       0.524  -1.836   3.686  0.00  0.00    +0.149 HD
ENDROOT
BRANCH   1  11
ATOM      5  C   UNL     1      -0.320   0.924  -0.145  0.00  0.00    +0.044 C 
ATOM      6  C   UNL     1      -0.142  -0.569  -0.037  0.00  0.00    -0.038 A 
ATOM      7  C   UNL     1      -0.284  -1.365  -1.154  0.00  0.00    +0.006 A 
ATOM      8  C   UNL     1      -0.121  -2.735  -1.056  0.00  0.00    +0.029 A 
ATOM      9  C   UNL     1       0.184  -3.316   0.162  0.00  0.00    +0.106 A 
ATOM     10  C   UNL     1       0.329  -2.531   1.287  0.00  0.00    +0.041 A 
ATOM     11  C   UNL     1       0.172  -1.148   1.194  0.00  0.00    +0.041 A 
BRANCH   9  12
ATOM     12  S   UNL     1       0.388  -5.063   0.276  0.00  0.00    +0.059 S 
ATOM     13  O   UNL     1       0.132  -5.414   1.629  0.00  0.00    -0.153 OA
ATOM     14  O   UNL     1      -0.336  -5.628  -0.808  0.00  0.00    -0.153 OA
BRANCH  12  15
ATOM     15  N   UNL     1       1.988  -5.388  -0.003  0.00  0.00    -0.187 NA
ATOM     16  H   UNL     1       2.250  -5.896  -0.787  0.00  0.00    +0.148 HD
BRANCH  15  17
ATOM     17  C   UNL     1       3.007  -4.910   0.935  0.00  0.00    +0.077 C 
ATOM     18  C   UNL     1       4.366  -4.511   0.357  0.00  0.00    +0.022 C 
ATOM     19  C   UNL     1       4.228  -5.802   1.166  0.00  0.00    +0.022 C 
ENDBRANCH  15  17
ENDBRANCH  12  15
ENDBRANCH   9  12
ENDBRANCH   1  11
BRANCH   3  20
ATOM     20  C   UNL     1       0.662  -0.029   4.793  0.00  0.00    +0.092 C 
BRANCH  20  21
ATOM     21  C   UNL     1       0.952  -0.914   6.008  0.00  0.00    -0.055 C 
ATOM     22  C   UNL     1       2.317  -1.584   5.837  0.00  0.00    -0.008 C 
ATOM     23  C   UNL     1       0.960  -0.055   7.274  0.00  0.00    -0.008 C 
BRANCH  21  24
ATOM     24  N   UNL     1      -0.089  -1.944   6.122  0.00  0.00    +0.384 N 
ATOM     25  C   UNL     1      -1.394  -1.301   6.312  0.00  0.00    -0.075 C 
ATOM     26  C   UNL     1      -2.492  -2.366   6.350  0.00  0.00    -0.031 C 
ATOM     27  C   UNL     1      -2.221  -3.328   7.511  0.00  0.00    +0.003 C 
ATOM     28  C   UNL     1      -0.827  -3.937   7.342  0.00  0.00    -0.031 C 
ATOM     29  C   UNL     1       0.209  -2.813   7.267  0.00  0.00    -0.075 C 
ATOM     30  C   UNL     1      -0.515  -4.841   8.537  0.00  0.00    +0.005 C 
ATOM     31  C   UNL     1      -2.496  -3.143   5.032  0.00  0.00    +0.005 C 
ATOM     32  H   UNL     1      -0.108  -2.497   5.278  0.00  0.00    -0.081 HD
ENDBRANCH  21  24
ENDBRANCH  20  21
ENDBRANCH   3  20
TORSDOF 7
