REMARK  Name = ZINC05618523
REMARK  8 active torsions:
REMARK  status: ('A' for Active; 'I' for Inactive)
REMARK    1  A    between atoms: C_1  and  O_2
REMARK    2  A    between atoms: O_2  and  C_3
REMARK    3  A    between atoms: C_5  and  C_12
REMARK    4  A    between atoms: C_7  and  O_10
REMARK    5  A    between atoms: C_8  and  O_9
REMARK    6  A    between atoms: O_10  and  C_11
REMARK    7  A    between atoms: C_12  and  C_13
REMARK    8  A    between atoms: C_12  and  C_25
REMARK                            x       y       z     vdW  Elec       q    Type
REMARK                         _______ _______ _______ _____ _____    ______ ____
ROOT
ATOM      1  C   UNL     1       2.462   0.340   4.203  0.00  0.00    +0.101 C 
ENDROOT
BRANCH   1   2
ATOM      2  C   UNL     1       1.807   0.249   5.558  0.00  0.00    +0.096 A 
ATOM      3  C   UNL     1       2.129   1.146   6.538  0.00  0.00    +0.200 A 
ATOM      4  C   UNL     1       1.461   1.013   7.842  0.00  0.00    +0.065 A 
ATOM      5  C   UNL     1       1.741   1.895   8.888  0.00  0.00    +0.015 A 
ATOM      6  C   UNL     1       1.098   1.744  10.097  0.00  0.00    +0.001 A 
ATOM      7  C   UNL     1       0.177   0.722  10.277  0.00  0.00    +0.004 A 
ATOM      8  C   UNL     1      -0.108  -0.156   9.252  0.00  0.00    +0.047 A 
ATOM      9  C   UNL     1       0.529  -0.020   8.025  0.00  0.00    +0.143 A 
ATOM     10  O   UNL     1       0.260  -0.871   7.011  0.00  0.00    -0.422 OA
ATOM     11  C   UNL     1       0.860  -0.754   5.816  0.00  0.00    +0.345 A 
ATOM     12  O   UNL     1       0.579  -1.545   4.932  0.00  0.00    -0.245 OA
ATOM     13  O   UNL     1       3.034   2.126   6.316  0.00  0.00    -0.287 OA
ENDBRANCH   1   2
BRANCH   1  14
ATOM     14  C   UNL     1       3.946   0.117   4.347  0.00  0.00    +0.096 A 
ATOM     15  C   UNL     1       4.430  -0.636   5.381  0.00  0.00    +0.200 A 
ATOM     16  C   UNL     1       5.886  -0.824   5.476  0.00  0.00    +0.065 A 
ATOM     17  C   UNL     1       6.449  -1.581   6.506  0.00  0.00    +0.015 A 
ATOM     18  C   UNL     1       7.816  -1.738   6.566  0.00  0.00    +0.001 A 
ATOM     19  C   UNL     1       8.631  -1.148   5.611  0.00  0.00    +0.004 A 
ATOM     20  C   UNL     1       8.088  -0.398   4.590  0.00  0.00    +0.047 A 
ATOM     21  C   UNL     1       6.712  -0.227   4.510  0.00  0.00    +0.143 A 
ATOM     22  O   UNL     1       6.163   0.503   3.515  0.00  0.00    -0.422 OA
ATOM     23  C   UNL     1       4.835   0.676   3.417  0.00  0.00    +0.345 A 
ATOM     24  O   UNL     1       4.391   1.341   2.497  0.00  0.00    -0.245 OA
ATOM     25  O   UNL     1       3.595  -1.191   6.289  0.00  0.00    -0.287 OA
ENDBRANCH   1  14
BRANCH   1  28
ATOM     26  C   UNL     1       0.331  -1.342   1.574  0.00  0.00    +0.165 A 
ATOM     27  C   UNL     1       0.868  -0.378   2.414  0.00  0.00    +0.054 A 
ATOM     28  C   UNL     1       1.882  -0.711   3.292  0.00  0.00    -0.028 A 
ATOM     29  C   UNL     1       2.365  -2.005   3.337  0.00  0.00    +0.054 A 
ATOM     30  C   UNL     1       1.834  -2.975   2.500  0.00  0.00    +0.165 A 
ATOM     31  C   UNL     1       0.811  -2.645   1.620  0.00  0.00    +0.201 A 
BRANCH  26  33
ATOM     32  C   UNL     1      -1.110   0.345   0.717  0.00  0.00    +0.277 C 
ATOM     33  O   UNL     1      -0.666  -1.013   0.710  0.00  0.00    -0.491 OA
ENDBRANCH  26  33
BRANCH  31  34
ATOM     34  O   UNL     1       0.283  -3.596   0.801  0.00  0.00    -0.501 OA
ATOM     35  H   UNL     1       0.730  -3.671  -0.053  0.00  0.00    +0.292 HD
ENDBRANCH  31  34
BRANCH  30  36
ATOM     36  O   UNL     1       2.311  -4.248   2.545  0.00  0.00    -0.491 OA
ATOM     37  C   UNL     1       3.360  -4.515   3.478  0.00  0.00    +0.277 C 
ENDBRANCH  30  36
ENDBRANCH   1  28
TORSDOF 6
