REMARK  Name = ZINC63869397
REMARK  2 active torsions:
REMARK  status: ('A' for Active; 'I' for Inactive)
REMARK    1  A    between atoms: C_1  and  C_2
REMARK    2  A    between atoms: C_6  and  C_8
REMARK                            x       y       z     vdW  Elec       q    Type
REMARK                         _______ _______ _______ _____ _____    ______ ____
ROOT
ATOM      1  C   UNL     1       0.063  -2.847   2.458  0.00  0.00    +0.158 A 
ATOM      2  N   UNL     1       0.062  -2.322   3.667  0.00  0.00    -0.194 NA
ATOM      3  H   UNL     1       0.070  -4.846   1.872  0.00  0.00    +0.191 HD
ATOM      4  C   UNL     1       0.074  -3.295   4.580  0.00  0.00    +0.242 A 
ATOM      5  N   UNL     1       0.084  -4.456   3.968  0.00  0.00    -0.136 NA
ATOM      6  N   UNL     1       0.070  -4.192   2.589  0.00  0.00    -0.257 N 
ATOM      7  N   UNL     1       0.078  -3.108   5.966  0.00  0.00    -0.237 N 
ATOM      8  C   UNL     1       0.091  -4.174   6.790  0.00  0.00    +0.309 C 
ATOM      9  O   UNL     1       0.008  -5.297   6.332  0.00  0.00    -0.252 OA
ATOM     10  N   UNL     1       0.197  -3.995   8.122  0.00  0.00    -0.283 N 
ATOM     11  C   UNL     1       0.175  -2.638   8.675  0.00  0.00    +0.114 C 
ATOM     12  C   UNL     1      -0.977  -2.517   9.691  0.00  0.00    +0.052 C 
ATOM     13  C   UNL     1      -0.915  -3.747  10.562  0.00  0.00    -0.036 C 
ATOM     14  C   UNL     1      -0.890  -3.887  11.882  0.00  0.00    -0.001 A 
ATOM     15  C   UNL     1      -1.021  -2.909  12.974  0.00  0.00    +0.010 A 
ATOM     16  C   UNL     1      -0.925  -3.404  14.236  0.00  0.00    +0.001 A 
ATOM     17  C   UNL     1      -0.715  -4.757  14.518  0.00  0.00    +0.002 A 
ATOM     18  C   UNL     1      -0.591  -5.727  13.577  0.00  0.00    +0.026 A 
ATOM     19  C   UNL     1      -0.682  -5.330  12.211  0.00  0.00    +0.043 A 
ATOM     20  N   UNL     1      -0.624  -6.041  11.123  0.00  0.00    -0.376 N 
ATOM     21  C   UNL     1      -0.847  -5.154   9.981  0.00  0.00    +0.124 C 
ATOM     22  C   UNL     1       0.328  -5.165   9.005  0.00  0.00    +0.138 C 
ATOM     23  H   UNL     1       0.071  -2.210   6.334  0.00  0.00    +0.159 HD
ATOM     24  H   UNL     1      -0.460  -6.996  11.077  0.00  0.00    +0.160 HD
ENDROOT
BRANCH   1  30
ATOM     25  C   UNL     1       0.012   1.501   0.008  0.00  0.00    +0.044 C 
ATOM     26  C   UNL     1       0.026  -0.006   0.001  0.00  0.00    -0.050 A 
ATOM     27  C   UNL     1       0.028  -0.690  -1.202  0.00  0.00    +0.003 A 
ATOM     28  C   UNL     1       0.042  -2.073  -1.218  0.00  0.00    +0.001 A 
ATOM     29  C   UNL     1       0.053  -2.780  -0.032  0.00  0.00    +0.011 A 
ATOM     30  C   UNL     1       0.051  -2.096   1.184  0.00  0.00    +0.019 A 
ATOM     31  C   UNL     1       0.043  -0.701   1.192  0.00  0.00    +0.015 A 
ENDBRANCH   1  30
TORSDOF 1
