REMARK  Name = ZINC62954530
REMARK  5 active torsions:
REMARK  status: ('A' for Active; 'I' for Inactive)
REMARK    1  A    between atoms: C_1  and  C_2
REMARK    2  A    between atoms: C_2  and  C_3
REMARK    3  A    between atoms: C_3  and  C_19
REMARK    4  A    between atoms: N_6  and  C_9
REMARK    5  A    between atoms: C_10  and  C_17
REMARK                            x       y       z     vdW  Elec       q    Type
REMARK                         _______ _______ _______ _____ _____    ______ ____
ROOT
ATOM      1  C   UNL     1       3.886  -2.677  -2.802  0.00  0.00    +0.151 A 
ATOM      2  C   UNL     1       4.394  -3.144  -4.016  0.00  0.00    +0.128 A 
ATOM      3  N   UNL     1       5.556  -3.888  -3.708  0.00  0.00    -0.289 N 
ATOM      4  C   UNL     1       6.519  -4.602  -4.382  0.00  0.00    +0.101 A 
ATOM      5  C   UNL     1       7.513  -5.198  -3.722  0.00  0.00    +0.067 A 
ATOM      6  S   UNL     1       7.135  -4.767  -2.030  0.00  0.00    -0.058 S 
ATOM      7  C   UNL     1       5.665  -3.818  -2.354  0.00  0.00    +0.180 A 
ATOM      8  N   UNL     1       4.694  -3.107  -1.835  0.00  0.00    -0.206 NA
ENDROOT
BRANCH   1  12
ATOM      9  C   UNL     1       0.714  -0.504  -1.256  0.00  0.00    -0.029 C 
ATOM     10  C   UNL     1       2.148   0.030  -1.270  0.00  0.00    +0.025 C 
ATOM     11  C   UNL     1       2.851  -0.437  -2.548  0.00  0.00    +0.107 C 
ATOM     12  N   UNL     1       2.751  -1.901  -2.635  0.00  0.00    -0.313 N 
ATOM     13  C   UNL     1       1.425  -2.525  -2.541  0.00  0.00    +0.107 C 
ATOM     14  C   UNL     1       0.738  -2.034  -1.262  0.00  0.00    +0.025 C 
ATOM     15  C   UNL     1      -0.029  -0.001  -2.495  0.00  0.00    +0.011 C 
BRANCH   9  17
ATOM     16  C   UNL     1      -0.026   1.519   0.010  0.00  0.00    +0.004 C 
ATOM     17  C   UNL     1      -0.002  -0.011   0.003  0.00  0.00    +0.003 C 
ENDBRANCH   9  17
ENDBRANCH   1  12
BRANCH   2  18
ATOM     18  C   UNL     1       3.860  -2.920  -5.285  0.00  0.00    +0.280 C 
ATOM     19  O   UNL     1       4.351  -3.464  -6.256  0.00  0.00    -0.294 OA
ENDBRANCH   2  18
TORSDOF 3
