REMARK  Name = ZINC03840015
REMARK  5 active torsions:
REMARK  status: ('A' for Active; 'I' for Inactive)
REMARK    1  A    between atoms: C_1  and  C_2
REMARK    2  A    between atoms: C_10  and  C_12
REMARK    3  A    between atoms: C_18  and  C_20
REMARK    4  A    between atoms: C_22  and  C_37
REMARK    5  A    between atoms: C_31  and  C_36
REMARK                            x       y       z     vdW  Elec       q    Type
REMARK                         _______ _______ _______ _____ _____    ______ ____
ROOT
ATOM      1  C   UNL     1       7.275  -0.139   2.882  0.00  0.00    +0.014 C 
ATOM      2  C   UNL     1       6.997  -0.434   1.407  0.00  0.00    +0.043 C 
ATOM      3  C   UNL     1       5.509  -0.696   1.214  0.00  0.00    +0.057 A 
ATOM      4  C   UNL     1       5.055  -1.969   1.086  0.00  0.00    +0.015 A 
ATOM      5  S   UNL     1       3.307  -1.739   0.894  0.00  0.00    -0.057 S 
ATOM      6  C   UNL     1       3.309  -0.004   0.993  0.00  0.00    +0.165 A 
ATOM      7  N   UNL     1       4.588   0.263   1.154  0.00  0.00    -0.229 NA
ATOM      8  N   UNL     1       2.236   0.876   0.915  0.00  0.00    -0.264 N 
ATOM      9  C   UNL     1       0.986   0.402   0.740  0.00  0.00    +0.222 C 
ATOM     10  O   UNL     1       0.798  -0.792   0.650  0.00  0.00    -0.275 OA
ATOM     11  C   UNL     1       5.847  -3.229   1.104  0.00  0.00    +0.051 C 
ATOM     12  C   UNL     1       7.255  -2.937   1.655  0.00  0.00    -0.021 C 
ATOM     13  C   UNL     1       7.788  -1.660   0.978  0.00  0.00    +0.045 C 
ATOM     14  C   UNL     1       7.728  -1.895  -0.510  0.00  0.00    +0.184 C 
ATOM     15  C   UNL     1       8.764  -3.016  -0.826  0.00  0.00    +0.044 C 
ATOM     16  C   UNL     1       8.213  -4.301  -0.244  0.00  0.00    +0.008 C 
ATOM     17  C   UNL     1       8.149  -4.128   1.284  0.00  0.00    +0.008 C 
ATOM     18  C   UNL     1       8.791  -2.904  -2.353  0.00  0.00    +0.101 C 
ATOM     19  C   UNL     1       8.391  -1.452  -2.603  0.00  0.00    +0.311 C 
ATOM     20  O   UNL     1       8.301  -0.925  -3.687  0.00  0.00    -0.251 OA
ATOM     21  O   UNL     1       8.152  -0.846  -1.405  0.00  0.00    -0.461 OA
ATOM     22  C   UNL     1      10.195  -3.179  -2.894  0.00  0.00    +0.019 C 
ATOM     23  C   UNL     1       7.221  -2.755   3.174  0.00  0.00    +0.012 C 
ATOM     24  H   UNL     1       2.386   1.832   0.987  0.00  0.00    +0.157 HD
ENDROOT
BRANCH   9  25
ATOM     25  C   UNL     1      -0.176   1.357   0.650  0.00  0.00    +0.078 C 
ATOM     26  C   UNL     1      -0.271   2.168   1.944  0.00  0.00    +0.032 C 
ATOM     27  C   UNL     1      -1.432   3.162   1.835  0.00  0.00    +0.108 C 
ATOM     28  N   UNL     1      -2.656   2.423   1.494  0.00  0.00    -0.302 N 
ATOM     29  C   UNL     1      -2.645   1.542   0.319  0.00  0.00    +0.108 C 
ATOM     30  C   UNL     1      -1.471   0.567   0.445  0.00  0.00    +0.032 C 
ATOM     31  C   UNL     1      -3.768   2.553   2.246  0.00  0.00    +0.212 C 
ATOM     32  O   UNL     1      -4.738   1.862   2.017  0.00  0.00    -0.276 OA
ATOM     33  C   UNL     1      -3.805   3.556   3.370  0.00  0.00    +0.109 C 
ENDBRANCH   9  25
TORSDOF 1
