REMARK  Name = ZINC39448862
REMARK  7 active torsions:
REMARK  status: ('A' for Active; 'I' for Inactive)
REMARK    1  A    between atoms: C_1  and  C_2
REMARK    2  A    between atoms: C_2  and  O_3
REMARK    3  A    between atoms: O_3  and  C_4
REMARK    4  A    between atoms: C_9  and  C_10
REMARK    5  A    between atoms: C_15  and  S_17
REMARK    6  A    between atoms: S_17  and  C_18
REMARK    7  A    between atoms: C_18  and  C_19
REMARK                            x       y       z     vdW  Elec       q    Type
REMARK                         _______ _______ _______ _____ _____    ______ ____
ROOT
ATOM      1  C   UNL     1       2.055  -1.434   3.442  0.00  0.00    +0.204 C 
ATOM      2  N   UNL     1       2.583  -0.230   2.790  0.00  0.00    -0.336 N 
ATOM      3  C   UNL     1       3.834  -0.175   2.418  0.00  0.00    +0.190 C 
ATOM      4  N   UNL     1       4.692  -1.183   2.650  0.00  0.00    -0.195 NA
ATOM      5  C   UNL     1       4.380  -2.161   3.482  0.00  0.00    +0.159 C 
ATOM      6  N   UNL     1       3.166  -2.113   4.128  0.00  0.00    -0.300 N 
ATOM      7  N   UNL     1       4.289   0.954   1.765  0.00  0.00    -0.329 N 
ATOM      8  H   UNL     1       3.683   1.690   1.589  0.00  0.00    +0.145 HD
ATOM      9  H   UNL     1       5.215   1.010   1.482  0.00  0.00    +0.145 HD
ATOM     10  H   UNL     1       3.046  -2.512   5.004  0.00  0.00    +0.150 HD
ATOM     11  H   UNL     1       2.000   0.529   2.635  0.00  0.00    +0.164 HD
ENDROOT
BRANCH   1  17
ATOM     12  C   UNL     1       0.802  -1.824   1.306  0.00  0.00    +0.127 A 
ATOM     13  C   UNL     1       0.260  -2.673   0.351  0.00  0.00    +0.046 A 
ATOM     14  C   UNL     1       0.372  -4.041   0.501  0.00  0.00    +0.004 A 
ATOM     15  C   UNL     1       1.024  -4.566   1.602  0.00  0.00    +0.001 A 
ATOM     16  C   UNL     1       1.565  -3.723   2.555  0.00  0.00    +0.011 A 
ATOM     17  C   UNL     1       1.460  -2.353   2.406  0.00  0.00    +0.034 A 
BRANCH  12  18
ATOM     18  O   UNL     1       0.693  -0.477   1.160  0.00  0.00    -0.492 OA
BRANCH  18  20
ATOM     19  C   UNL     1      -0.019   1.526   0.010  0.00  0.00    +0.048 C 
ATOM     20  C   UNL     1       0.002  -0.004   0.002  0.00  0.00    +0.225 C 
ENDBRANCH  18  20
ENDBRANCH  12  18
ENDBRANCH   1  17
BRANCH   5  21
ATOM     21  S   UNL     1       5.494  -3.498   3.757  0.00  0.00    -0.081 S 
BRANCH  21  22
ATOM     22  C   UNL     1       6.916  -3.109   2.700  0.00  0.00    +0.173 C 
BRANCH  22  23
ATOM     23  C   UNL     1       7.958  -4.188   2.842  0.00  0.00    +0.234 C 
ATOM     24  O   UNL     1       7.760  -5.128   3.584  0.00  0.00    -0.274 OA
ATOM     25  N   UNL     1       9.109  -4.110   2.146  0.00  0.00    -0.239 N 
ATOM     26  C   UNL     1       9.363  -3.031   1.287  0.00  0.00    +0.044 A 
ATOM     27  C   UNL     1       9.310  -1.748   1.821  0.00  0.00    +0.024 A 
ATOM     28  C   UNL     1       9.587  -0.650   1.033  0.00  0.00    +0.002 A 
ATOM     29  C   UNL     1       9.921  -0.841  -0.296  0.00  0.00    +0.000 A 
ATOM     30  C   UNL     1       9.959  -2.110  -0.826  0.00  0.00    +0.005 A 
ATOM     31  C   UNL     1       9.663  -3.233  -0.051  0.00  0.00    -0.025 A 
ATOM     32  C   UNL     1       9.665  -4.542  -0.808  0.00  0.00    +0.042 C 
ATOM     33  C   UNL     1       9.264  -5.731   0.047  0.00  0.00    +0.042 C 
ATOM     34  C   UNL     1      10.231  -5.944   1.184  0.00  0.00    -0.025 A 
ATOM     35  C   UNL     1      10.093  -5.101   2.262  0.00  0.00    +0.044 A 
ATOM     36  C   UNL     1      10.897  -5.236   3.380  0.00  0.00    +0.024 A 
ATOM     37  C   UNL     1      11.868  -6.224   3.385  0.00  0.00    +0.002 A 
ATOM     38  C   UNL     1      12.027  -7.056   2.291  0.00  0.00    +0.000 A 
ATOM     39  C   UNL     1      11.198  -6.922   1.169  0.00  0.00    +0.005 A 
ENDBRANCH  22  23
ENDBRANCH  21  22
ENDBRANCH   5  21
TORSDOF 6
