REMARK  Name = ZINC16936594
REMARK  7 active torsions:
REMARK  status: ('A' for Active; 'I' for Inactive)
REMARK    1  A    between atoms: C_1  and  C_2
REMARK    2  A    between atoms: C_2  and  C_4
REMARK    3  A    between atoms: C_2  and  O_7
REMARK    4  A    between atoms: O_7  and  C_8
REMARK    5  A    between atoms: C_13  and  C_14
REMARK    6  A    between atoms: N_20  and  C_21
REMARK    7  A    between atoms: C_24  and  C_27
REMARK                            x       y       z     vdW  Elec       q    Type
REMARK                         _______ _______ _______ _____ _____    ______ ____
ROOT
ATOM      1  C   UNL     1      -4.001  -1.695   0.141  0.00  0.00    +0.032 C 
ATOM      2  C   UNL     1      -5.270  -2.171   0.229  0.00  0.00    +0.078 C 
ATOM      3  C   UNL     1      -6.248  -2.431  -0.844  0.00  0.00    +0.256 C 
ATOM      4  O   UNL     1      -5.982  -2.222  -2.013  0.00  0.00    -0.269 OA
ATOM      5  N   UNL     1      -7.429  -2.901  -0.477  0.00  0.00    -0.260 N 
ATOM      6  C   UNL     1      -7.712  -3.131   0.850  0.00  0.00    +0.166 C 
ATOM      7  N   UNL     1      -8.825  -3.592   1.381  0.00  0.00    -0.226 NA
ATOM      8  S   UNL     1      -6.200  -2.660   1.674  0.00  0.00    -0.049 S 
ATOM      9  H   UNL     1      -8.102  -3.086  -1.150  0.00  0.00    +0.157 HD
ENDROOT
BRANCH   1  15
ATOM     10  C   UNL     1      -1.854  -1.260   1.326  0.00  0.00    +0.129 A 
ATOM     11  C   UNL     1      -1.161  -0.945   2.483  0.00  0.00    +0.046 A 
ATOM     12  C   UNL     1      -1.844  -0.742   3.667  0.00  0.00    +0.004 A 
ATOM     13  C   UNL     1      -3.224  -0.851   3.709  0.00  0.00    +0.001 A 
ATOM     14  C   UNL     1      -3.932  -1.164   2.569  0.00  0.00    +0.011 A 
ATOM     15  C   UNL     1      -3.254  -1.367   1.361  0.00  0.00    +0.018 A 
BRANCH  10  16
ATOM     16  O   UNL     1      -1.184  -1.460   0.163  0.00  0.00    -0.477 OA
BRANCH  16  18
ATOM     17  C   UNL     1       0.728   0.017   0.109  0.00  0.00    +0.064 C 
ATOM     18  C   UNL     1       0.243  -1.430   0.223  0.00  0.00    +0.282 C 
BRANCH  18  19
ATOM     19  C   UNL     1       0.811  -2.241  -0.914  0.00  0.00    +0.395 C 
ATOM     20  O   UNL     1       2.014  -2.421  -0.993  0.00  0.00    -0.242 OA
ATOM     21  O   UNL     1       0.067  -2.717  -1.754  0.00  0.00    -0.242 OA
ENDBRANCH  18  19
ENDBRANCH  16  18
ENDBRANCH  10  16
ENDBRANCH   1  15
BRANCH   7  22
ATOM     22  C   UNL     1      -8.920  -3.755   2.730  0.00  0.00    +0.067 A 
ATOM     23  C   UNL     1      -7.866  -4.347   3.439  0.00  0.00    +0.028 A 
ATOM     24  C   UNL     1      -7.960  -4.510   4.790  0.00  0.00    +0.017 A 
ATOM     25  C   UNL     1      -9.111  -4.084   5.468  0.00  0.00    +0.063 A 
ATOM     26  C   UNL     1     -10.164  -3.491   4.758  0.00  0.00    +0.017 A 
ATOM     27  C   UNL     1     -10.067  -3.324   3.409  0.00  0.00    +0.028 A 
BRANCH  25  28
ATOM     28  C   UNL     1      -9.212  -4.259   6.923  0.00  0.00    +0.387 C 
ATOM     29  O   UNL     1      -8.293  -4.777   7.543  0.00  0.00    -0.241 OA
ATOM     30  O   UNL     1     -10.217  -3.888   7.516  0.00  0.00    -0.241 OA
ENDBRANCH  25  28
ENDBRANCH   7  22
TORSDOF 6
