REMARK  Name = ZINC44447823
REMARK  3 active torsions:
REMARK  status: ('A' for Active; 'I' for Inactive)
REMARK    1  A    between atoms: C_6  and  C_7
REMARK    2  A    between atoms: C_10  and  C_12
REMARK    3  A    between atoms: C_20  and  C_22
REMARK                            x       y       z     vdW  Elec       q    Type
REMARK                         _______ _______ _______ _____ _____    ______ ____
ROOT
ATOM      1  C   UNL     1      -2.535  -2.344   2.732  0.00  0.00    +0.219 C 
ATOM      2  O   UNL     1      -2.445  -3.419   2.180  0.00  0.00    -0.275 OA
ATOM      3  N   UNL     1      -3.581  -2.087   3.542  0.00  0.00    -0.298 N 
ATOM      4  C   UNL     1      -3.706  -0.786   4.213  0.00  0.00    +0.127 C 
ATOM      5  C   UNL     1      -5.072  -0.182   3.861  0.00  0.00    +0.127 C 
ATOM      6  N   UNL     1      -6.108  -1.199   4.088  0.00  0.00    -0.295 N 
ATOM      7  C   UNL     1      -5.982  -2.501   3.417  0.00  0.00    +0.127 C 
ATOM      8  C   UNL     1      -4.620  -3.102   3.765  0.00  0.00    +0.127 C 
ATOM      9  C   UNL     1      -7.154  -0.943   4.899  0.00  0.00    +0.247 C 
ATOM     10  O   UNL     1      -8.040  -1.765   5.025  0.00  0.00    -0.270 OA
ENDROOT
BRANCH   9  11
ATOM     11  C   UNL     1      -7.224   0.338   5.633  0.00  0.00    +0.040 A 
ATOM     12  C   UNL     1      -7.067   1.546   4.952  0.00  0.00    +0.033 A 
ATOM     13  C   UNL     1      -7.133   2.740   5.643  0.00  0.00    +0.043 A 
ATOM     14  C   UNL     1      -7.355   2.740   7.010  0.00  0.00    +0.040 A 
ATOM     15  C   UNL     1      -7.510   1.545   7.691  0.00  0.00    +0.043 A 
ATOM     16  C   UNL     1      -7.452   0.345   7.010  0.00  0.00    +0.033 A 
ATOM     17 CL   UNL     1      -7.786   1.555   9.405  0.00  0.00    -0.083 Cl
ATOM     18 CL   UNL     1      -6.938   4.243   4.797  0.00  0.00    -0.083 Cl
ENDBRANCH   9  11
BRANCH   1  21
ATOM     19  C   UNL     1      -0.315  -1.645   1.582  0.00  0.00    +0.032 C 
ATOM     20  C   UNL     1      -1.390  -0.657   1.123  0.00  0.00    +0.022 C 
ATOM     21  C   UNL     1      -1.477  -1.293   2.513  0.00  0.00    +0.083 C 
BRANCH  19  27
ATOM     22  C   UNL     1       1.229   0.282   1.990  0.00  0.00    +0.008 A 
ATOM     23  C   UNL     1       2.473   0.799   2.302  0.00  0.00    +0.050 A 
ATOM     24  C   UNL     1       3.536  -0.053   2.548  0.00  0.00    +0.166 A 
ATOM     25  C   UNL     1       3.349  -1.432   2.480  0.00  0.00    +0.166 A 
ATOM     26  C   UNL     1       2.100  -1.943   2.166  0.00  0.00    +0.053 A 
ATOM     27  C   UNL     1       1.043  -1.086   1.923  0.00  0.00    -0.040 A 
ATOM     28  O   UNL     1       4.535  -2.048   2.759  0.00  0.00    -0.453 OA
ATOM     29  C   UNL     1       5.543  -1.032   2.597  0.00  0.00    +0.466 C 
ATOM     30  O   UNL     1       4.839   0.194   2.870  0.00  0.00    -0.453 OA
ENDBRANCH  19  27
ENDBRANCH   1  21
TORSDOF 3
