REMARK  Name = ZINC66766869
REMARK  9 active torsions:
REMARK  status: ('A' for Active; 'I' for Inactive)
REMARK    1  A    between atoms: C_1  and  C_2
REMARK    2  A    between atoms: C_2  and  C_3
REMARK    3  A    between atoms: C_3  and  C_5
REMARK    4  A    between atoms: C_3  and  N_15
REMARK    5  A    between atoms: C_16  and  C_18
REMARK    6  A    between atoms: C_19  and  C_20
REMARK    7  A    between atoms: C_23  and  N_26
REMARK    8  A    between atoms: N_26  and  S_27
REMARK    9  A    between atoms: S_27  and  C_30
REMARK                            x       y       z     vdW  Elec       q    Type
REMARK                         _______ _______ _______ _____ _____    ______ ____
ROOT
ATOM      1  N   UNL     1      -2.082  -0.162   1.273  0.00  0.00    -0.302 N 
ATOM      2  C   UNL     1      -2.664   1.047   1.400  0.00  0.00    +0.237 C 
ATOM      3  O   UNL     1      -2.651   1.830   0.468  0.00  0.00    -0.271 OA
ATOM      4  H   UNL     1      -2.092  -0.785   2.016  0.00  0.00    +0.150 HD
ENDROOT
BRANCH   2   5
ATOM      5  C   UNL     1      -3.311   1.418   2.658  0.00  0.00    +0.068 C 
ATOM      6  C   UNL     1      -3.894   2.629   2.785  0.00  0.00    +0.013 C 
BRANCH   6   7
ATOM      7  C   UNL     1      -4.544   3.002   4.049  0.00  0.00    -0.025 A 
ATOM      8  C   UNL     1      -4.555   2.106   5.124  0.00  0.00    +0.010 A 
ATOM      9  C   UNL     1      -5.162   2.458   6.302  0.00  0.00    +0.027 A 
ATOM     10  C   UNL     1      -5.768   3.705   6.429  0.00  0.00    +0.074 A 
ATOM     11  C   UNL     1      -5.760   4.600   5.362  0.00  0.00    +0.027 A 
ATOM     12  C   UNL     1      -5.150   4.258   4.183  0.00  0.00    +0.010 A 
BRANCH  10  13
ATOM     13  N   UNL     1      -6.383   4.059   7.626  0.00  0.00    -0.103 NA
BRANCH  13  14
ATOM     14  S   UNL     1      -7.104   5.541   7.780  0.00  0.00    +0.059 S 
ATOM     15  O   UNL     1      -6.041   6.476   7.654  0.00  0.00    -0.154 OA
ATOM     16  O   UNL     1      -8.170   5.526   6.841  0.00  0.00    -0.154 OA
ATOM     17  C   UNL     1      -7.761   5.567   9.471  0.00  0.00    +0.220 C 
ENDBRANCH  13  14
ENDBRANCH  10  13
ENDBRANCH   6   7
ENDBRANCH   2   5
BRANCH   1  18
ATOM     18  C   UNL     1      -1.433  -0.534   0.013  0.00  0.00    +0.139 C 
BRANCH  18  19
ATOM     19  C   UNL     1      -1.416  -2.035  -0.119  0.00  0.00    +0.129 A 
ATOM     20  N   UNL     1      -2.014  -2.900   0.743  0.00  0.00    -0.340 N 
ATOM     21  H   UNL     1      -2.518  -2.663   1.538  0.00  0.00    +0.167 HD
ATOM     22  C   UNL     1      -1.771  -4.177   0.279  0.00  0.00    +0.066 A 
ATOM     23  C   UNL     1      -2.115  -5.448   0.719  0.00  0.00    +0.028 A 
ATOM     24  C   UNL     1      -1.702  -6.553   0.006  0.00  0.00    +0.002 A 
ATOM     25  C   UNL     1      -0.947  -6.402  -1.149  0.00  0.00    +0.002 A 
ATOM     26  C   UNL     1      -0.599  -5.160  -1.597  0.00  0.00    +0.030 A 
ATOM     27  C   UNL     1      -1.007  -4.025  -0.890  0.00  0.00    +0.089 A 
ATOM     28  N   UNL     1      -0.831  -2.692  -1.078  0.00  0.00    -0.231 NA
ENDBRANCH  18  19
BRANCH  18  30
ATOM     29  C   UNL     1      -0.019   1.526   0.010  0.00  0.00    +0.006 C 
ATOM     30  C   UNL     1       0.002  -0.004   0.002  0.00  0.00    +0.027 C 
ENDBRANCH  18  30
ENDBRANCH   1  18
TORSDOF 7
