REMARK  Name = ZINC40291752
REMARK  5 active torsions:
REMARK  status: ('A' for Active; 'I' for Inactive)
REMARK    1  A    between atoms: C_1  and  C_2
REMARK    2  A    between atoms: C_3  and  C_20
REMARK    3  A    between atoms: C_6  and  S_11
REMARK    4  A    between atoms: C_7  and  C_8
REMARK    5  A    between atoms: S_11  and  C_12
REMARK                            x       y       z     vdW  Elec       q    Type
REMARK                         _______ _______ _______ _____ _____    ______ ____
ROOT
ATOM      1  C   UNL     1      -0.012   1.502   0.008  0.00  0.00    +0.046 C 
ATOM      2  C   UNL     1       0.014  -0.005   0.001  0.00  0.00    -0.015 A 
ATOM      3  C   UNL     1       0.031  -0.713  -1.190  0.00  0.00    +0.064 A 
ATOM      4  N   UNL     1       0.053  -2.032  -1.177  0.00  0.00    -0.153 NA
ATOM      5  N   UNL     1       0.061  -2.713  -0.090  0.00  0.00    -0.142 NA
ATOM      6  C   UNL     1       0.046  -2.137   1.105  0.00  0.00    +0.135 A 
ATOM      7  C   UNL     1       0.027  -0.733   1.196  0.00  0.00    +0.051 A 
ATOM      8  C   UNL     1       0.023   0.025  -2.504  0.00  0.00    +0.068 C 
ENDROOT
BRANCH   7   9
ATOM      9  C   UNL     1       0.016  -0.051   2.507  0.00  0.00    +0.097 C 
ATOM     10  N   UNL     1       1.065  -0.158   3.323  0.00  0.00    -0.387 N 
ATOM     11  N   UNL     1      -1.041   0.671   2.874  0.00  0.00    -0.344 N 
ATOM     12  H   UNL     1       1.835  -0.684   3.056  0.00  0.00    +0.157 HD
ATOM     13  H   UNL     1      -1.805   0.749   2.280  0.00  0.00    +0.144 HD
ATOM     14  H   UNL     1      -1.048   1.119   3.735  0.00  0.00    +0.144 HD
ATOM     15  H   UNL     1       1.057   0.290   4.183  0.00  0.00    +0.157 HD
ENDBRANCH   7   9
BRANCH   6  16
ATOM     16  S   UNL     1       0.058  -3.122   2.566  0.00  0.00    -0.067 S 
BRANCH  16  17
ATOM     17  C   UNL     1      -0.072  -4.774   1.968  0.00  0.00    +0.017 A 
ATOM     18  C   UNL     1       1.074  -5.535   1.771  0.00  0.00    +0.018 A 
ATOM     19  C   UNL     1       0.972  -6.829   1.302  0.00  0.00    +0.042 A 
ATOM     20  C   UNL     1      -0.272  -7.371   1.026  0.00  0.00    +0.158 A 
ATOM     21  C   UNL     1      -1.418  -6.615   1.222  0.00  0.00    +0.159 A 
ATOM     22  C   UNL     1      -1.320  -5.320   1.697  0.00  0.00    +0.056 A 
ATOM     23  F   UNL     1      -2.631  -7.145   0.953  0.00  0.00    -0.202 F 
ATOM     24  F   UNL     1      -0.370  -8.638   0.567  0.00  0.00    -0.202 F 
ENDBRANCH  16  17
ENDBRANCH   6  16
TORSDOF 3
