REMARK  Name = ZINC64719202
REMARK  4 active torsions:
REMARK  status: ('A' for Active; 'I' for Inactive)
REMARK    1  A    between atoms: C_1  and  C_2
REMARK    2  A    between atoms: C_10  and  C_11
REMARK    3  A    between atoms: N_13  and  N_14
REMARK    4  A    between atoms: C_15  and  C_24
REMARK                            x       y       z     vdW  Elec       q    Type
REMARK                         _______ _______ _______ _____ _____    ______ ____
ROOT
ATOM      1  C   UNL     1       0.029  -0.161   2.547  0.00  0.00    +0.269 C 
ATOM      2  O   UNL     1       0.015   1.040   2.735  0.00  0.00    -0.268 OA
ATOM      3  N   UNL     1       0.051  -1.007   3.595  0.00  0.00    -0.214 N 
ATOM      4  H   UNL     1       0.063  -1.966   3.446  0.00  0.00    +0.176 HD
ENDROOT
BRANCH   1  14
ATOM      5  C   UNL     1      -0.018   1.503   0.010  0.00  0.00    +0.046 C 
ATOM      6  C   UNL     1       0.002  -0.004   0.002  0.00  0.00    -0.023 A 
ATOM      7  C   UNL     1       0.005  -0.701  -1.220  0.00  0.00    -0.004 A 
ATOM      8  C   UNL     1      -0.009  -0.168  -2.535  0.00  0.00    +0.047 A 
ATOM      9  C   UNL     1      -0.005  -0.990  -3.618  0.00  0.00    +0.124 A 
ATOM     10  C   UNL     1       0.015  -2.375  -3.481  0.00  0.00    +0.039 A 
ATOM     11  C   UNL     1       0.031  -2.933  -2.220  0.00  0.00    +0.018 A 
ATOM     12  C   UNL     1       0.025  -2.112  -1.112  0.00  0.00    +0.020 A 
ATOM     13  S   UNL     1       0.039  -2.393   0.640  0.00  0.00    -0.083 S 
ATOM     14  C   UNL     1       0.023  -0.691   1.175  0.00  0.00    +0.079 A 
ATOM     15  F   UNL     1      -0.020  -0.450  -4.856  0.00  0.00    -0.205 F 
ENDBRANCH   1  14
BRANCH   3  16
ATOM     16  N   UNL     1       0.057  -0.503   4.902  0.00  0.00    -0.209 N 
ATOM     17  C   UNL     1       1.210  -0.528   5.620  0.00  0.00    +0.129 A 
ATOM     18  N   UNL     1       1.256  -0.068   6.841  0.00  0.00    -0.225 NA
ATOM     19  C   UNL     1       0.174   0.442   7.423  0.00  0.00    +0.115 A 
ATOM     20  C   UNL     1      -1.064   0.512   6.759  0.00  0.00    +0.074 A 
ATOM     21  C   UNL     1      -1.078   0.003   5.419  0.00  0.00    +0.279 A 
ATOM     22  O   UNL     1      -2.103   0.023   4.760  0.00  0.00    -0.265 OA
ATOM     23  C   UNL     1      -2.144   1.095   7.533  0.00  0.00    +0.023 A 
ATOM     24  C   UNL     1      -1.899   1.516   8.785  0.00  0.00    +0.048 A 
ATOM     25  S   UNL     1      -0.170   1.148   9.014  0.00  0.00    -0.077 S 
ATOM     26  C   UNL     1       2.458  -1.098   4.996  0.00  0.00    +0.088 C 
ENDBRANCH   3  16
TORSDOF 2
