REMARK  Name = ZINC16713836
REMARK  10 active torsions:
REMARK  status: ('A' for Active; 'I' for Inactive)
REMARK    1  A    between atoms: C_1  and  C_2
REMARK    2  A    between atoms: C_2  and  C_3
REMARK    3  A    between atoms: C_3  and  N_4
REMARK    4  A    between atoms: N_4  and  C_5
REMARK    5  A    between atoms: C_6  and  C_17
REMARK    6  A    between atoms: C_13  and  C_16
REMARK    7  A    between atoms: N_21  and  C_25
REMARK    8  A    between atoms: C_25  and  C_27
REMARK    9  A    between atoms: C_25  and  C_28
REMARK   10  A    between atoms: C_28  and  C_29
REMARK                            x       y       z     vdW  Elec       q    Type
REMARK                         _______ _______ _______ _____ _____    ______ ____
ROOT
ATOM      1  C   UNL     1      -1.739   1.245   1.438  0.00  0.00    +0.134 A 
ATOM      2  C   UNL     1      -2.377   1.416   2.690  0.00  0.00    +0.081 A 
ATOM      3  C   UNL     1      -3.395   0.503   3.055  0.00  0.00    +0.267 A 
ATOM      4  O   UNL     1      -3.973   0.614   4.122  0.00  0.00    -0.267 OA
ATOM      5  N   UNL     1      -3.710  -0.497   2.204  0.00  0.00    -0.267 N 
ATOM      6  C   UNL     1      -4.686  -1.384   2.550  0.00  0.00    +0.096 A 
ATOM      7  C   UNL     1      -5.026  -2.396   1.721  0.00  0.00    +0.019 A 
ATOM      8  C   UNL     1      -4.375  -2.546   0.489  0.00  0.00    +0.008 A 
ATOM      9  C   UNL     1      -3.397  -1.664   0.134  0.00  0.00    -0.007 A 
ATOM     10  C   UNL     1      -3.057  -0.617   1.009  0.00  0.00    +0.145 A 
ATOM     11  N   UNL     1      -2.100   0.241   0.653  0.00  0.00    -0.214 NA
ATOM     12  C   UNL     1      -2.686  -1.811  -1.186  0.00  0.00    +0.047 C 
ENDROOT
BRANCH   2  13
ATOM     13  C   UNL     1      -2.010   2.476   3.552  0.00  0.00    +0.037 C 
ATOM     14  C   UNL     1      -0.713   2.610   3.954  0.00  0.00    +0.077 C 
ATOM     15  C   UNL     1      -0.102   3.650   4.712  0.00  0.00    +0.259 C 
ATOM     16  O   UNL     1      -0.751   4.604   5.103  0.00  0.00    -0.269 OA
ATOM     17  N   UNL     1       1.189   3.551   4.978  0.00  0.00    -0.252 N 
ATOM     18  C   UNL     1       1.909   2.493   4.544  0.00  0.00    +0.121 C 
ATOM     19  S   UNL     1       3.573   2.161   4.769  0.00  0.00    -0.027 S 
ATOM     20  S   UNL     1       0.681   1.523   3.682  0.00  0.00    -0.061 S 
BRANCH  17  21
ATOM     21  C   UNL     1       1.849   4.604   5.755  0.00  0.00    +0.080 C 
ATOM     22  C   UNL     1       2.439   4.001   7.031  0.00  0.00    +0.028 C 
BRANCH  21  23
ATOM     23  C   UNL     1       2.969   5.228   4.919  0.00  0.00    +0.019 C 
ATOM     24  C   UNL     1       2.365   5.938   3.706  0.00  0.00    +0.006 C 
ENDBRANCH  21  23
ENDBRANCH  17  21
ENDBRANCH   2  13
BRANCH   1  25
ATOM     25  N   UNL     1      -0.746   2.114   1.042  0.00  0.00    -0.328 N 
ATOM     26  H   UNL     1      -0.484   2.848   1.619  0.00  0.00    +0.147 HD
BRANCH  25  27
ATOM     27  C   UNL     1      -0.085   1.929  -0.253  0.00  0.00    +0.102 C 
BRANCH  27  29
ATOM     28  C   UNL     1      -0.220   2.411  -2.700  0.00  0.00    +0.005 C 
ATOM     29  C   UNL     1      -0.911   2.604  -1.349  0.00  0.00    +0.015 C 
ENDBRANCH  27  29
ENDBRANCH  25  27
ENDBRANCH   1  25
TORSDOF 6
