REMARK  Name = ZINC05047156
REMARK  6 active torsions:
REMARK  status: ('A' for Active; 'I' for Inactive)
REMARK    1  A    between atoms: C_1  and  C_2
REMARK    2  A    between atoms: N_5  and  C_7
REMARK    3  A    between atoms: C_12  and  C_14
REMARK    4  A    between atoms: C_12  and  C_15
REMARK    5  A    between atoms: C_17  and  O_29
REMARK    6  A    between atoms: C_20  and  C_22
REMARK                            x       y       z     vdW  Elec       q    Type
REMARK                         _______ _______ _______ _____ _____    ______ ____
ROOT
ATOM      1  C   UNL     1       0.467   1.747  -0.271  0.00  0.00    +0.068 C 
ATOM      2  C   UNL     1       0.523   0.246  -0.138  0.00  0.00    +0.067 A 
ATOM      3  C   UNL     1       0.210  -0.676  -1.153  0.00  0.00    +0.036 A 
ATOM      4  C   UNL     1       0.381  -1.933  -0.639  0.00  0.00    +0.160 A 
ATOM      5  N   UNL     1       0.798  -1.773   0.665  0.00  0.00    -0.243 N 
ATOM      6  N   UNL     1       0.873  -0.406   0.934  0.00  0.00    -0.174 NA
ATOM      7  N   UNL     1       0.205  -3.153  -1.175  0.00  0.00    -0.197 NA
ATOM      8  C   UNL     1      -0.154  -3.618  -2.281  0.00  0.00    +0.199 C 
ATOM      9  C   UNL     1      -0.496  -2.918  -3.537  0.00  0.00    +0.165 C 
ATOM     10  S   UNL     1      -1.396  -1.385  -3.269  0.00  0.00    -0.138 S 
ATOM     11  C   UNL     1      -0.220  -0.249  -2.524  0.00  0.00    +0.112 C 
ENDROOT
BRANCH   5  12
ATOM     12  C   UNL     1       1.113  -2.852   1.606  0.00  0.00    +0.114 C 
ATOM     13  C   UNL     1       2.569  -2.724   2.063  0.00  0.00    +0.055 C 
ATOM     14  C   UNL     1       2.865  -3.807   3.104  0.00  0.00    +0.162 C 
ATOM     15  O   UNL     1       1.957  -3.675   4.199  0.00  0.00    -0.374 OA
ATOM     16  C   UNL     1       0.583  -3.832   3.839  0.00  0.00    +0.066 C 
ATOM     17  C   UNL     1       0.193  -2.752   2.826  0.00  0.00    +0.061 C 
ATOM     18  C   UNL     1       0.374  -5.213   3.214  0.00  0.00    +0.041 C 
ATOM     19  C   UNL     1      -0.290  -3.700   5.088  0.00  0.00    +0.041 C 
ENDBRANCH   5  12
BRANCH  11  20
ATOM     20  C   UNL     1      -0.852   1.115  -2.432  0.00  0.00    -0.030 A 
ATOM     21  C   UNL     1      -2.064   1.273  -1.787  0.00  0.00    +0.006 A 
ATOM     22  C   UNL     1      -2.645   2.525  -1.703  0.00  0.00    +0.020 A 
ATOM     23  C   UNL     1      -2.013   3.620  -2.265  0.00  0.00    +0.041 A 
ATOM     24  C   UNL     1      -0.799   3.461  -2.910  0.00  0.00    +0.020 A 
ATOM     25  C   UNL     1      -0.217   2.210  -2.989  0.00  0.00    +0.006 A 
ATOM     26 CL   UNL     1      -2.741   5.192  -2.160  0.00  0.00    -0.084 Cl
ENDBRANCH  11  20
BRANCH   8  27
ATOM     27  O   UNL     1      -0.240  -4.963  -2.335  0.00  0.00    -0.495 OA
ATOM     28  H   UNL     1      -0.013  -5.405  -1.506  0.00  0.00    +0.293 HD
ENDBRANCH   8  27
TORSDOF 3
