REMARK  Name = ZINC03600789
REMARK  3 active torsions:
REMARK  status: ('A' for Active; 'I' for Inactive)
REMARK    1  A    between atoms: N_13  and  C_17
REMARK    2  A    between atoms: C_17  and  C_18
REMARK    3  A    between atoms: N_20  and  C_21
REMARK                            x       y       z     vdW  Elec       q    Type
REMARK                         _______ _______ _______ _____ _____    ______ ____
ROOT
ATOM      1  C   UNL     1      -4.862  -0.312   1.402  0.00  0.00    +0.000 A 
ATOM      2  C   UNL     1      -4.252   0.185   2.539  0.00  0.00    +0.000 A 
ATOM      3  C   UNL     1      -2.930   0.578   2.491  0.00  0.00    +0.006 A 
ATOM      4  C   UNL     1      -2.207   0.480   1.310  0.00  0.00    -0.012 A 
ATOM      5  C   UNL     1      -2.815  -0.017   0.177  0.00  0.00    -0.042 A 
ATOM      6  C   UNL     1      -4.145  -0.412   0.228  0.00  0.00    +0.004 A 
ATOM      7  C   UNL     1      -2.088  -0.156  -1.135  0.00  0.00    +0.035 C 
ATOM      8  C   UNL     1      -0.831   0.710  -1.150  0.00  0.00    +0.008 C 
ATOM      9  C   UNL     1      -0.013   0.400   0.111  0.00  0.00    +0.040 C 
ATOM     10  C   UNL     1      -0.772   0.930   1.321  0.00  0.00    +0.138 C 
ATOM     11  C   UNL     1      -0.096   0.488   2.599  0.00  0.00    +0.251 C 
ATOM     12  O   UNL     1       0.075  -0.649   2.983  0.00  0.00    -0.272 OA
ATOM     13  N   UNL     1       0.278   1.625   3.221  0.00  0.00    -0.215 N 
ATOM     14  C   UNL     1      -0.067   2.709   2.517  0.00  0.00    +0.310 C 
ATOM     15  O   UNL     1       0.164   3.848   2.873  0.00  0.00    -0.252 OA
ATOM     16  N   UNL     1      -0.699   2.397   1.370  0.00  0.00    -0.281 N 
ATOM     17  H   UNL     1      -1.038   3.018   0.706  0.00  0.00    +0.152 HD
ENDROOT
BRANCH  13  18
ATOM     18  C   UNL     1       0.976   1.667   4.509  0.00  0.00    +0.214 C 
BRANCH  18  19
ATOM     19  C   UNL     1      -0.035   1.722   5.626  0.00  0.00    +0.235 C 
ATOM     20  O   UNL     1      -1.221   1.726   5.371  0.00  0.00    -0.274 OA
ATOM     21  N   UNL     1       0.379   1.768   6.907  0.00  0.00    -0.284 N 
ATOM     22  H   UNL     1       1.323   1.688   7.115  0.00  0.00    +0.155 HD
BRANCH  21  23
ATOM     23  C   UNL     1      -0.553   1.931   7.939  0.00  0.00    +0.034 A 
ATOM     24  C   UNL     1      -1.692   2.698   7.732  0.00  0.00    +0.025 A 
ATOM     25  C   UNL     1      -2.612   2.853   8.750  0.00  0.00    +0.022 A 
ATOM     26  C   UNL     1      -2.396   2.253   9.978  0.00  0.00    +0.041 A 
ATOM     27  C   UNL     1      -1.259   1.493  10.188  0.00  0.00    +0.022 A 
ATOM     28  C   UNL     1      -0.338   1.330   9.172  0.00  0.00    +0.025 A 
ATOM     29 CL   UNL     1      -3.552   2.455  11.257  0.00  0.00    -0.084 Cl
ENDBRANCH  21  23
ENDBRANCH  18  19
ENDBRANCH  13  18
TORSDOF 3
