REMARK  Name = ZINC34756689
REMARK  7 active torsions:
REMARK  status: ('A' for Active; 'I' for Inactive)
REMARK    1  A    between atoms: C_1  and  C_2
REMARK    2  A    between atoms: C_6  and  S_8
REMARK    3  A    between atoms: S_8  and  N_11
REMARK    4  A    between atoms: C_16  and  N_33
REMARK    5  A    between atoms: N_23  and  C_26
REMARK    6  A    between atoms: N_33  and  C_34
REMARK    7  A    between atoms: N_33  and  C_35
REMARK                            x       y       z     vdW  Elec       q    Type
REMARK                         _______ _______ _______ _____ _____    ______ ____
ROOT
ATOM      1  N   UNL     1       1.632  -3.167   3.170  0.00  0.00    -0.172 NA
ATOM      2  C   UNL     1       2.365  -4.369   2.738  0.00  0.00    +0.116 C 
ATOM      3  C   UNL     1       3.494  -3.926   1.808  0.00  0.00    +0.071 C 
ATOM      4  C   UNL     1       4.250  -2.768   2.400  0.00  0.00    +0.028 A 
ATOM      5  C   UNL     1       3.730  -1.961   3.383  0.00  0.00    +0.027 A 
ATOM      6  C   UNL     1       4.505  -0.898   3.860  0.00  0.00    +0.130 A 
ATOM      7  N   UNL     1       5.719  -0.704   3.357  0.00  0.00    -0.201 NA
ATOM      8  C   UNL     1       6.190  -1.508   2.417  0.00  0.00    +0.198 A 
ATOM      9  N   UNL     1       5.476  -2.517   1.946  0.00  0.00    -0.331 N 
ATOM     10  N   UNL     1       7.460  -1.288   1.914  0.00  0.00    -0.298 N 
ATOM     11  C   UNL     1       7.964  -2.077   0.781  0.00  0.00    +0.127 C 
ATOM     12  C   UNL     1       8.407  -1.115  -0.328  0.00  0.00    +0.124 C 
ATOM     13  N   UNL     1       9.276  -0.087   0.261  0.00  0.00    -0.325 N 
ATOM     14  C   UNL     1       8.773   0.702   1.394  0.00  0.00    +0.124 C 
ATOM     15  C   UNL     1       8.328  -0.256   2.500  0.00  0.00    +0.127 C 
ATOM     16  C   UNL     1       2.367  -2.182   3.972  0.00  0.00    +0.149 C 
ATOM     17  H   UNL     1       5.853  -3.086   1.256  0.00  0.00    +0.168 HD
ENDROOT
BRANCH  13  18
ATOM     18  C   UNL     1      10.560   0.136  -0.246  0.00  0.00    +0.065 A 
ATOM     19  C   UNL     1      10.756   1.064  -1.260  0.00  0.00    +0.026 A 
ATOM     20  C   UNL     1      12.026   1.283  -1.759  0.00  0.00    +0.002 A 
ATOM     21  C   UNL     1      13.101   0.578  -1.252  0.00  0.00    +0.003 A 
ATOM     22  C   UNL     1      12.911  -0.349  -0.243  0.00  0.00    +0.040 A 
ATOM     23  C   UNL     1      11.645  -0.568   0.266  0.00  0.00    +0.144 A 
ATOM     24  F   UNL     1      11.460  -1.469   1.256  0.00  0.00    -0.204 F 
ENDBRANCH  13  18
BRANCH   1  25
ATOM     25  S   UNL     1       0.045  -2.933   2.761  0.00  0.00    +0.061 S 
ATOM     26  O   UNL     1      -0.498  -2.048   3.731  0.00  0.00    -0.153 OA
ATOM     27  O   UNL     1      -0.504  -4.219   2.511  0.00  0.00    -0.153 OA
BRANCH  25  33
ATOM     28  C   UNL     1      -0.005   1.496  -0.015  0.00  0.00    +0.044 C 
ATOM     29  C   UNL     1       0.002  -0.011   0.003  0.00  0.00    -0.049 A 
ATOM     30  C   UNL     1      -0.008  -0.716  -1.186  0.00  0.00    +0.003 A 
ATOM     31  C   UNL     1      -0.002  -2.098  -1.170  0.00  0.00    +0.002 A 
ATOM     32  C   UNL     1       0.014  -2.775   0.036  0.00  0.00    +0.028 A 
ATOM     33  C   UNL     1       0.025  -2.070   1.224  0.00  0.00    +0.106 A 
ATOM     34  C   UNL     1       0.023  -0.688   1.208  0.00  0.00    +0.032 A 
ENDBRANCH  25  33
ENDBRANCH   1  25
BRANCH   6  35
ATOM     35  N   UNL     1       4.011  -0.057   4.843  0.00  0.00    -0.321 N 
ATOM     36  C   UNL     1       4.145  -0.423   6.255  0.00  0.00    +0.130 C 
ATOM     37  C   UNL     1       3.355   1.199   4.472  0.00  0.00    +0.130 C 
ENDBRANCH   6  35
TORSDOF 4
