REMARK  Name = ZINC23320034
REMARK  12 active torsions:
REMARK  status: ('A' for Active; 'I' for Inactive)
REMARK    1  A    between atoms: C_1  and  C_2
REMARK    2  A    between atoms: C_4  and  C_37
REMARK    3  A    between atoms: C_5  and  S_9
REMARK    4  A    between atoms: C_6  and  C_8
REMARK    5  A    between atoms: S_9  and  N_12
REMARK    6  A    between atoms: N_16  and  C_19
REMARK    7  A    between atoms: C_19  and  C_20
REMARK    8  A    between atoms: C_24  and  O_27
REMARK    9  A    between atoms: O_27  and  C_28
REMARK   10  A    between atoms: C_28  and  C_29
REMARK   11  A    between atoms: C_33  and  O_35
REMARK   12  A    between atoms: O_35  and  C_36
REMARK                            x       y       z     vdW  Elec       q    Type
REMARK                         _______ _______ _______ _____ _____    ______ ____
ROOT
ATOM      1  N   UNL     1      -3.591   0.576  14.458  0.00  0.00    -0.178 NA
ATOM      2  C   UNL     1      -2.504  -0.099  13.722  0.00  0.00    +0.107 C 
ATOM      3  C   UNL     1      -2.576   0.206  12.216  0.00  0.00    -0.001 C 
ATOM      4  C   UNL     1      -4.019   0.194  11.763  0.00  0.00    -0.077 C 
ATOM      5  N   UNL     1      -4.557   1.551  11.843  0.00  0.00    +0.385 N 
ATOM      6  C   UNL     1      -5.101   1.938  13.090  0.00  0.00    -0.061 C 
ATOM      7  C   UNL     1      -3.995   1.938  14.173  0.00  0.00    +0.091 C 
ATOM      8  H   UNL     1      -3.678   2.208  11.774  0.00  0.00    -0.081 HD
ENDROOT
BRANCH   1   9
ATOM      9  S   UNL     1      -4.379  -0.255  15.654  0.00  0.00    +0.061 S 
ATOM     10  O   UNL     1      -3.673  -1.474  15.834  0.00  0.00    -0.153 OA
ATOM     11  O   UNL     1      -4.592   0.666  16.715  0.00  0.00    -0.153 OA
BRANCH   9  16
ATOM     12  C   UNL     1      -9.829  -1.716  13.518  0.00  0.00    +0.044 C 
ATOM     13  C   UNL     1      -8.468  -1.351  14.052  0.00  0.00    -0.050 A 
ATOM     14  C   UNL     1      -8.255  -0.103  14.606  0.00  0.00    +0.008 A 
ATOM     15  C   UNL     1      -7.006   0.232  15.095  0.00  0.00    -0.024 A 
ATOM     16  C   UNL     1      -5.971  -0.681  15.031  0.00  0.00    +0.111 A 
ATOM     17  C   UNL     1      -6.183  -1.928  14.472  0.00  0.00    -0.024 A 
ATOM     18  C   UNL     1      -7.433  -2.265  13.988  0.00  0.00    +0.008 A 
ATOM     19  C   UNL     1      -5.052  -2.922  14.396  0.00  0.00    +0.046 C 
ATOM     20  C   UNL     1      -6.774   1.593  15.699  0.00  0.00    +0.046 C 
ENDBRANCH   9  16
ENDBRANCH   1   9
BRANCH   5  21
ATOM     21  C   UNL     1      -5.507   1.807  10.752  0.00  0.00    -0.003 C 
BRANCH  21  22
ATOM     22  C   UNL     1      -4.813   1.617   9.428  0.00  0.00    +0.092 A 
ATOM     23  C   UNL     1      -4.815   0.400   8.846  0.00  0.00    +0.094 A 
ATOM     24  C   UNL     1      -4.160   0.233   7.601  0.00  0.00    +0.226 A 
ATOM     25  O   UNL     1      -4.140  -0.854   7.043  0.00  0.00    -0.284 OA
ATOM     26  C   UNL     1      -3.526   1.365   7.018  0.00  0.00    +0.202 A 
ATOM     27  C   UNL     1      -3.570   2.546   7.673  0.00  0.00    +0.244 A 
ATOM     28  O   UNL     1      -4.206   2.658   8.847  0.00  0.00    -0.466 OA
BRANCH  26  29
ATOM     29  O   UNL     1      -2.883   1.260   5.824  0.00  0.00    -0.481 OA
BRANCH  29  30
ATOM     30  C   UNL     1      -2.273   2.445   5.308  0.00  0.00    +0.265 C 
BRANCH  30  31
ATOM     31  C   UNL     1      -1.613   2.137   3.989  0.00  0.00    -0.007 A 
ATOM     32  C   UNL     1      -0.294   1.723   3.956  0.00  0.00    +0.007 A 
ATOM     33  C   UNL     1       0.313   1.439   2.747  0.00  0.00    +0.004 A 
ATOM     34  C   UNL     1      -0.397   1.565   1.569  0.00  0.00    +0.045 A 
ATOM     35  C   UNL     1      -1.718   1.987   1.599  0.00  0.00    +0.120 A 
ATOM     36  C   UNL     1      -2.326   2.270   2.813  0.00  0.00    +0.052 A 
BRANCH  35  37
ATOM     37  O   UNL     1      -2.418   2.117   0.441  0.00  0.00    -0.495 OA
ATOM     38  C   UNL     1      -1.728   1.808  -0.772  0.00  0.00    +0.277 C 
ENDBRANCH  35  37
ENDBRANCH  30  31
ENDBRANCH  29  30
ENDBRANCH  26  29
ENDBRANCH  21  22
ENDBRANCH   5  21
TORSDOF 8
