REMARK  Name = ZINC40287809
REMARK  3 active torsions:
REMARK  status: ('A' for Active; 'I' for Inactive)
REMARK    1  A    between atoms: C_3  and  C_9
REMARK    2  A    between atoms: C_12  and  O_27
REMARK    3  A    between atoms: N_18  and  C_19
REMARK                            x       y       z     vdW  Elec       q    Type
REMARK                         _______ _______ _______ _____ _____    ______ ____
ROOT
ATOM      1  C   UNL     1       3.671   2.190  -0.023  0.00  0.00    +0.083 C 
ATOM      2  C   UNL     1       3.724   3.096  -1.257  0.00  0.00    +0.110 C 
ATOM      3  C   UNL     1       2.878   4.323  -1.077  0.00  0.00    +0.190 C 
ATOM      4  N   UNL     1       2.697   4.901   0.074  0.00  0.00    -0.197 NA
ATOM      5  C   UNL     1       3.270   4.357   1.185  0.00  0.00    +0.165 A 
ATOM      6  C   UNL     1       3.748   3.070   1.200  0.00  0.00    +0.094 A 
ATOM      7  N   UNL     1       4.237   2.822   2.408  0.00  0.00    -0.237 NA
ATOM      8  C   UNL     1       4.098   3.885   3.161  0.00  0.00    +0.206 A 
ATOM      9  N   UNL     1       3.497   4.873   2.427  0.00  0.00    -0.281 N 
ENDROOT
BRANCH   1  12
ATOM     10  C   UNL     1      -0.017   1.378   0.010  0.00  0.00    +0.003 A 
ATOM     11  C   UNL     1       1.170   2.087   0.002  0.00  0.00    +0.007 A 
ATOM     12  C   UNL     1       2.378   1.415  -0.013  0.00  0.00    +0.000 A 
ATOM     13  C   UNL     1       2.400   0.031  -0.021  0.00  0.00    +0.162 A 
ATOM     14  C   UNL     1       1.210  -0.680  -0.013  0.00  0.00    +0.159 A 
ATOM     15  C   UNL     1       0.002  -0.004   0.002  0.00  0.00    +0.041 A 
ATOM     16  F   UNL     1       1.229  -2.031  -0.021  0.00  0.00    -0.202 F 
ATOM     17  F   UNL     1       3.580  -0.626  -0.037  0.00  0.00    -0.202 F 
ENDBRANCH   1  12
BRANCH   9  18
ATOM     18  C   UNL     1       3.175   6.165   2.868  0.00  0.00    +0.087 A 
ATOM     19  C   UNL     1       4.184   7.053   3.213  0.00  0.00    +0.067 A 
ATOM     20  C   UNL     1       3.864   8.327   3.647  0.00  0.00    +0.126 A 
ATOM     21  C   UNL     1       2.538   8.717   3.737  0.00  0.00    +0.041 A 
ATOM     22  C   UNL     1       1.531   7.834   3.394  0.00  0.00    +0.043 A 
ATOM     23  C   UNL     1       1.845   6.561   2.954  0.00  0.00    +0.147 A 
ATOM     24  F   UNL     1       0.861   5.701   2.614  0.00  0.00    -0.203 F 
ATOM     25  F   UNL     1       4.846   9.192   3.983  0.00  0.00    -0.205 F 
ENDBRANCH   9  18
BRANCH   3  26
ATOM     26  O   UNL     1       2.277   4.852  -2.163  0.00  0.00    -0.495 OA
ATOM     27  H   UNL     1       1.748   5.640  -1.975  0.00  0.00    +0.293 HD
ENDBRANCH   3  26
TORSDOF 3
