REMARK  Name = ZINC13424822
REMARK  5 active torsions:
REMARK  status: ('A' for Active; 'I' for Inactive)
REMARK    1  A    between atoms: C_1  and  C_2
REMARK    2  A    between atoms: C_15  and  O_32
REMARK    3  A    between atoms: C_18  and  C_31
REMARK    4  A    between atoms: C_23  and  C_25
REMARK    5  A    between atoms: C_25  and  C_30
REMARK                            x       y       z     vdW  Elec       q    Type
REMARK                         _______ _______ _______ _____ _____    ______ ____
ROOT
ATOM      1  C   UNL     1       2.852   5.503  -3.480  0.00  0.00    +0.012 C 
ATOM      2  C   UNL     1       2.465   4.999  -4.867  0.00  0.00    -0.023 C 
ATOM      3  C   UNL     1       1.392   5.936  -5.448  0.00  0.00    +0.012 C 
ATOM      4  C   UNL     1       1.916   7.365  -5.527  0.00  0.00    +0.065 C 
ATOM      5  C   UNL     1       3.195   7.452  -6.352  0.00  0.00    +0.170 C 
ATOM      6  C   UNL     1       4.246   6.457  -5.876  0.00  0.00    +0.069 C 
ATOM      7  C   UNL     1       3.674   5.045  -5.805  0.00  0.00    +0.000 C 
ATOM      8  C   UNL     1       4.746   4.073  -5.317  0.00  0.00    +0.004 C 
ATOM      9  C   UNL     1       4.214   2.646  -5.318  0.00  0.00    +0.004 C 
ATOM     10  C   UNL     1       2.909   2.496  -4.545  0.00  0.00    -0.001 C 
ATOM     11  C   UNL     1       1.911   3.584  -4.826  0.00  0.00    +0.027 C 
ATOM     12  C   UNL     1       0.657   3.463  -3.977  0.00  0.00    +0.119 C 
ATOM     13  C   UNL     1       0.938   3.243  -2.508  0.00  0.00    +0.039 C 
ATOM     14  C   UNL     1       1.903   2.101  -2.211  0.00  0.00    -0.019 C 
ATOM     15  C   UNL     1       3.128   2.084  -3.119  0.00  0.00    -0.001 C 
ATOM     16  C   UNL     1       4.289   2.772  -2.404  0.00  0.00    +0.005 C 
ATOM     17  C   UNL     1       3.790   3.125  -0.989  0.00  0.00    +0.009 C 
ATOM     18  C   UNL     1       2.465   2.378  -0.788  0.00  0.00    +0.054 C 
ATOM     19  C   UNL     1       1.173   0.744  -2.234  0.00  0.00    +0.012 C 
ATOM     20  O   UNL     1       3.732   8.784  -6.220  0.00  0.00    -0.346 OA
ATOM     21  C   UNL     1       4.353   9.048  -7.503  0.00  0.00    +0.191 C 
ATOM     22  C   UNL     1       3.347   8.376  -8.473  0.00  0.00    +0.191 C 
ATOM     23  O   UNL     1       2.898   7.221  -7.735  0.00  0.00    -0.346 OA
ENDROOT
BRANCH  18  24
ATOM     24  C   UNL     1       2.702   1.057  -0.050  0.00  0.00    +0.171 C 
ATOM     25  O   UNL     1       3.176   1.326   1.280  0.00  0.00    -0.346 OA
ATOM     26  C   UNL     1       2.579   0.294   2.101  0.00  0.00    +0.191 C 
ATOM     27  C   UNL     1       1.190   0.128   1.437  0.00  0.00    +0.191 C 
ATOM     28  O   UNL     1       1.471   0.327   0.037  0.00  0.00    -0.346 OA
ATOM     29  C   UNL     1       3.740   0.228  -0.808  0.00  0.00    +0.074 C 
ENDBRANCH  18  24
BRANCH  12  30
ATOM     30  O   UNL     1      -0.156   2.393  -4.484  0.00  0.00    -0.391 OA
ATOM     31  H   UNL     1      -0.977   2.255  -3.991  0.00  0.00    +0.210 HD
ENDBRANCH  12  30
TORSDOF 2
