REMARK  Name = ZINC09834934
REMARK  5 active torsions:
REMARK  status: ('A' for Active; 'I' for Inactive)
REMARK    1  A    between atoms: C_1  and  C_2
REMARK    2  A    between atoms: C_2  and  C_29
REMARK    3  A    between atoms: N_5  and  C_9
REMARK    4  A    between atoms: C_9  and  C_10
REMARK    5  A    between atoms: C_21  and  C_23
REMARK                            x       y       z     vdW  Elec       q    Type
REMARK                         _______ _______ _______ _____ _____    ______ ____
ROOT
ATOM      1  C   UNL     1       0.052  -2.797   0.471  0.00  0.00    +0.214 C 
ENDROOT
BRANCH   1   2
ATOM      2  C   UNL     1      -1.237  -2.038   0.289  0.00  0.00    +0.238 C 
ATOM      3  O   UNL     1      -2.299  -2.614   0.387  0.00  0.00    -0.273 OA
ATOM      4  N   UNL     1      -1.209  -0.718   0.018  0.00  0.00    -0.256 N 
ATOM      5  C   UNL     1      -2.391  -0.004  -0.242  0.00  0.00    +0.079 A 
ATOM      6  C   UNL     1      -3.622  -0.568   0.049  0.00  0.00    +0.027 A 
ATOM      7  C   UNL     1      -4.783   0.136  -0.215  0.00  0.00    +0.002 A 
ATOM      8  C   UNL     1      -4.714   1.401  -0.770  0.00  0.00    +0.004 A 
ATOM      9  C   UNL     1      -3.489   1.969  -1.061  0.00  0.00    +0.047 A 
ATOM     10  C   UNL     1      -2.319   1.271  -0.798  0.00  0.00    +0.142 A 
ATOM     11  O   UNL     1      -1.118   1.841  -1.079  0.00  0.00    -0.488 OA
ATOM     12  C   UNL     1       0.012   0.976  -1.219  0.00  0.00    +0.256 C 
ATOM     13  C   UNL     1       0.062   0.027  -0.014  0.00  0.00    +0.149 C 
BRANCH  13  14
ATOM     14  C   UNL     1       0.221   0.822   1.257  0.00  0.00    -0.023 A 
ATOM     15  C   UNL     1      -0.868   1.469   1.808  0.00  0.00    +0.005 A 
ATOM     16  C   UNL     1      -0.723   2.195   2.976  0.00  0.00    +0.000 A 
ATOM     17  C   UNL     1       0.514   2.280   3.587  0.00  0.00    +0.000 A 
ATOM     18  C   UNL     1       1.605   1.637   3.033  0.00  0.00    +0.000 A 
ATOM     19  C   UNL     1       1.458   0.908   1.867  0.00  0.00    +0.005 A 
ENDBRANCH  13  14
ENDBRANCH   1   2
BRANCH   1  24
ATOM     20  C   UNL     1      -1.981  -6.971  -0.246  0.00  0.00    +0.047 C 
ATOM     21  C   UNL     1      -0.637  -6.440   0.255  0.00  0.00    +0.135 C 
ATOM     22  C   UNL     1      -0.320  -5.102  -0.383  0.00  0.00    +0.251 C 
ATOM     23  O   UNL     1      -0.168  -4.871  -1.563  0.00  0.00    -0.272 OA
ATOM     24  N   UNL     1      -0.240  -4.223   0.636  0.00  0.00    -0.215 N 
ATOM     25  C   UNL     1      -0.456  -4.814   1.816  0.00  0.00    +0.310 C 
ATOM     26  O   UNL     1      -0.432  -4.228   2.880  0.00  0.00    -0.252 OA
ATOM     27  N   UNL     1      -0.706  -6.131   1.694  0.00  0.00    -0.281 N 
ATOM     28  H   UNL     1      -0.891  -6.755   2.413  0.00  0.00    +0.152 HD
BRANCH  21  29
ATOM     29  C   UNL     1       0.461  -7.434  -0.025  0.00  0.00    -0.013 A 
ATOM     30  C   UNL     1       1.194  -7.343  -1.194  0.00  0.00    +0.009 A 
ATOM     31  C   UNL     1       2.204  -8.250  -1.450  0.00  0.00    +0.041 A 
ATOM     32  C   UNL     1       2.477  -9.258  -0.541  0.00  0.00    +0.158 A 
ATOM     33  C   UNL     1       1.738  -9.353   0.629  0.00  0.00    +0.159 A 
ATOM     34  C   UNL     1       0.731  -8.439   0.885  0.00  0.00    +0.047 A 
ATOM     35  F   UNL     1       2.003 -10.335   1.518  0.00  0.00    -0.202 F 
ATOM     36  F   UNL     1       3.462 -10.148  -0.793  0.00  0.00    -0.202 F 
ENDBRANCH  21  29
ENDBRANCH   1  24
TORSDOF 4
