REMARK  Name = ZINC66109064
REMARK  11 active torsions:
REMARK  status: ('A' for Active; 'I' for Inactive)
REMARK    1  A    between atoms: C_1  and  C_2
REMARK    2  A    between atoms: C_2  and  C_4
REMARK    3  A    between atoms: C_2  and  N_10
REMARK    4  A    between atoms: C_11  and  C_13
REMARK    5  A    between atoms: C_16  and  N_19
REMARK    6  A    between atoms: N_19  and  C_20
REMARK    7  A    between atoms: C_20  and  C_21
REMARK    8  A    between atoms: N_23  and  C_24
REMARK    9  A    between atoms: C_27  and  O_30
REMARK   10  A    between atoms: O_30  and  C_31
REMARK   11  A    between atoms: C_31  and  C_32
REMARK                            x       y       z     vdW  Elec       q    Type
REMARK                         _______ _______ _______ _____ _____    ______ ____
ROOT
ATOM      1  C   UNL     1       0.691  -1.105  -3.567  0.00  0.00    +0.037 A 
ATOM      2  C   UNL     1       2.053  -1.416  -3.522  0.00  0.00    +0.015 A 
ATOM      3  C   UNL     1       2.696  -1.853  -4.657  0.00  0.00    +0.023 A 
ATOM      4  C   UNL     1       1.991  -1.987  -5.850  0.00  0.00    +0.028 A 
ATOM      5  C   UNL     1       0.634  -1.678  -5.899  0.00  0.00    +0.023 A 
ATOM      6  C   UNL     1      -0.015  -1.246  -4.765  0.00  0.00    +0.015 A 
ENDROOT
BRANCH   1   8
ATOM      7  N   UNL     1       0.681  -0.501  -1.197  0.00  0.00    -0.305 N 
ATOM      8  C   UNL     1      -0.002  -0.636  -2.352  0.00  0.00    +0.245 C 
ATOM      9  O   UNL     1      -1.188  -0.371  -2.392  0.00  0.00    -0.270 OA
ATOM     10  H   UNL     1       1.627  -0.712  -1.166  0.00  0.00    +0.150 HD
BRANCH   7  12
ATOM     11  C   UNL     1      -0.038   1.495   0.020  0.00  0.00    +0.033 C 
ATOM     12  C   UNL     1      -0.007  -0.035   0.009  0.00  0.00    +0.100 C 
BRANCH  12  13
ATOM     13  C   UNL     1       0.728  -0.530   1.229  0.00  0.00    -0.027 A 
ATOM     14  C   UNL     1       2.110  -0.531   1.251  0.00  0.00    +0.005 A 
ATOM     15  C   UNL     1       2.783  -0.986   2.369  0.00  0.00    +0.000 A 
ATOM     16  C   UNL     1       2.074  -1.439   3.466  0.00  0.00    +0.000 A 
ATOM     17  C   UNL     1       0.692  -1.438   3.444  0.00  0.00    +0.000 A 
ATOM     18  C   UNL     1       0.019  -0.979   2.328  0.00  0.00    +0.005 A 
ENDBRANCH  12  13
ENDBRANCH   7  12
ENDBRANCH   1   8
BRANCH   4  19
ATOM     19  N   UNL     1       2.643  -2.429  -6.995  0.00  0.00    -0.335 N 
ATOM     20  H   UNL     1       3.589  -2.644  -6.963  0.00  0.00    +0.147 HD
BRANCH  19  21
ATOM     21  C   UNL     1       1.903  -2.570  -8.252  0.00  0.00    +0.198 C 
BRANCH  21  22
ATOM     22  C   UNL     1       2.834  -3.061  -9.331  0.00  0.00    +0.234 C 
ATOM     23  O   UNL     1       4.000  -3.273  -9.075  0.00  0.00    -0.274 OA
ATOM     24  N   UNL     1       2.369  -3.266 -10.579  0.00  0.00    -0.284 N 
ATOM     25  H   UNL     1       1.424  -3.161 -10.768  0.00  0.00    +0.155 HD
BRANCH  24  26
ATOM     26  C   UNL     1       3.253  -3.629 -11.604  0.00  0.00    +0.034 A 
ATOM     27  C   UNL     1       3.048  -3.162 -12.896  0.00  0.00    +0.027 A 
ATOM     28  C   UNL     1       3.919  -3.520 -13.906  0.00  0.00    +0.047 A 
ATOM     29  C   UNL     1       4.999  -4.346 -13.630  0.00  0.00    +0.121 A 
ATOM     30  C   UNL     1       5.204  -4.813 -12.340  0.00  0.00    +0.047 A 
ATOM     31  C   UNL     1       4.337  -4.451 -11.328  0.00  0.00    +0.027 A 
BRANCH  29  32
ATOM     32  O   UNL     1       5.856  -4.698 -14.625  0.00  0.00    -0.488 OA
BRANCH  32  33
ATOM     33  C   UNL     1       6.946  -5.551 -14.270  0.00  0.00    +0.256 C 
BRANCH  33  34
ATOM     34  C   UNL     1       7.782  -5.832 -15.492  0.00  0.00    +0.006 C 
ATOM     35  C   UNL     1       9.089  -5.766 -15.421  0.00  0.00    +0.007 C 
ENDBRANCH  33  34
ENDBRANCH  32  33
ENDBRANCH  29  32
ENDBRANCH  24  26
ENDBRANCH  21  22
ENDBRANCH  19  21
ENDBRANCH   4  19
TORSDOF 10
