REMARK  Name = ZINC13071934
REMARK  8 active torsions:
REMARK  status: ('A' for Active; 'I' for Inactive)
REMARK    1  A    between atoms: C_1  and  N_54
REMARK    2  A    between atoms: C_2  and  C_3
REMARK    3  A    between atoms: C_2  and  N_54
REMARK    4  A    between atoms: C_11  and  N_12
REMARK    5  A    between atoms: C_11  and  N_54
REMARK    6  A    between atoms: N_15  and  C_25
REMARK    7  A    between atoms: C_16  and  C_18
REMARK    8  A    between atoms: C_25  and  C_26
REMARK                            x       y       z     vdW  Elec       q    Type
REMARK                         _______ _______ _______ _____ _____    ______ ____
ROOT
ATOM      1  N   UNL     1      -0.554  -0.543   2.857  0.00  0.00    -0.257 N 
ATOM      2  C   UNL     1       0.459  -1.294   2.377  0.00  0.00    +0.177 A 
ATOM      3  S   UNL     1       1.933  -0.710   1.733  0.00  0.00    -0.011 S 
ATOM      4  N   UNL     1       0.099  -2.588   2.497  0.00  0.00    -0.301 N 
ATOM      5  C   UNL     1      -1.160  -2.637   3.062  0.00  0.00    +0.163 A 
ATOM      6  N   UNL     1      -1.560  -1.418   3.288  0.00  0.00    -0.152 NA
ENDROOT
BRANCH   5   7
ATOM      7  C   UNL     1      -1.923  -3.868   3.365  0.00  0.00    +0.019 A 
ATOM      8  C   UNL     1      -1.268  -5.097   3.440  0.00  0.00    +0.013 A 
ATOM      9  C   UNL     1      -1.984  -6.241   3.728  0.00  0.00    +0.021 A 
ATOM     10  C   UNL     1      -3.352  -6.171   3.931  0.00  0.00    +0.041 A 
ATOM     11  C   UNL     1      -4.008  -4.955   3.852  0.00  0.00    +0.021 A 
ATOM     12  C   UNL     1      -3.302  -3.804   3.570  0.00  0.00    +0.013 A 
ATOM     13 CL   UNL     1      -4.248  -7.615   4.286  0.00  0.00    -0.084 Cl
ENDBRANCH   5   7
BRANCH   1  14
ATOM     14  C   UNL     1      -0.591   0.920   2.922  0.00  0.00    +0.072 C 
BRANCH  14  16
ATOM     15  C   UNL     1      -0.300   1.174   0.532  0.00  0.00    -0.093 C 
ATOM     16  N   UNL     1      -1.197   1.437   1.677  0.00  0.00    +0.394 N 
ATOM     17  H   UNL     1      -2.091   0.958   1.517  0.00  0.00    -0.079 HD
BRANCH  16  18
ATOM     18  C   UNL     1      -1.445   2.889   1.801  0.00  0.00    -0.041 C 
BRANCH  18  19
ATOM     19  C   UNL     1      -2.257   3.346   0.616  0.00  0.00    -0.062 A 
ATOM     20  C   UNL     1      -3.638   3.314   0.672  0.00  0.00    +0.003 A 
ATOM     21  C   UNL     1      -4.384   3.733  -0.413  0.00  0.00    +0.021 A 
ATOM     22  C   UNL     1      -3.749   4.184  -1.556  0.00  0.00    +0.059 A 
ATOM     23  C   UNL     1      -2.366   4.216  -1.612  0.00  0.00    +0.059 A 
ATOM     24  C   UNL     1      -1.621   3.802  -0.523  0.00  0.00    +0.023 A 
ATOM     25 CL   UNL     1      -1.567   4.782  -3.046  0.00  0.00    -0.082 Cl
ATOM     26 CL   UNL     1      -4.686   4.710  -2.921  0.00  0.00    -0.082 Cl
ENDBRANCH  18  19
ENDBRANCH  16  18
ENDBRANCH  14  16
ENDBRANCH   1  14
BRANCH   4  27
ATOM     27  C   UNL     1       0.906  -3.743   2.096  0.00  0.00    +0.157 C 
BRANCH  27  28
ATOM     28  C   UNL     1       1.904  -4.078   3.207  0.00  0.00    +0.138 C 
ATOM     29  C   UNL     1       2.750  -5.303   2.799  0.00  0.00    +0.035 C 
ATOM     30  C   UNL     1       2.869  -6.082   4.138  0.00  0.00    +0.031 C 
ATOM     31  C   UNL     1       1.492  -5.774   4.780  0.00  0.00    +0.160 C 
ATOM     32  O   UNL     1       1.199  -4.418   4.407  0.00  0.00    -0.375 OA
ENDBRANCH  27  28
ENDBRANCH   4  27
TORSDOF 7
