REMARK  Name = ZINC22658922
REMARK  9 active torsions:
REMARK  status: ('A' for Active; 'I' for Inactive)
REMARK    1  A    between atoms: C_1  and  C_2
REMARK    2  A    between atoms: C_2  and  C_3
REMARK    3  A    between atoms: C_2  and  C_4
REMARK    4  A    between atoms: C_2  and  N_5
REMARK    5  A    between atoms: N_5  and  S_6
REMARK    6  A    between atoms: S_6  and  C_9
REMARK    7  A    between atoms: C_13  and  N_15
REMARK    8  A    between atoms: C_16  and  C_18
REMARK    9  A    between atoms: C_19  and  C_20
REMARK                            x       y       z     vdW  Elec       q    Type
REMARK                         _______ _______ _______ _____ _____    ______ ____
ROOT
ATOM      1  C   UNL     1       3.184   7.716   0.655  0.00  0.00    +0.107 A 
ATOM      2  C   UNL     1       2.161   8.479   0.123  0.00  0.00    +0.028 A 
ATOM      3  C   UNL     1       0.845   8.192   0.438  0.00  0.00    +0.004 A 
ATOM      4  C   UNL     1       0.549   7.142   1.285  0.00  0.00    +0.023 A 
ATOM      5  C   UNL     1       1.575   6.374   1.821  0.00  0.00    +0.036 A 
ATOM      6  C   UNL     1       2.896   6.668   1.506  0.00  0.00    +0.051 A 
ENDROOT
BRANCH   5   7
ATOM      7  N   UNL     1       1.279   5.311   2.679  0.00  0.00    -0.282 N 
ATOM      8  C   UNL     1       0.265   5.418   3.559  0.00  0.00    +0.241 C 
ATOM      9  O   UNL     1      -0.329   6.473   3.678  0.00  0.00    -0.270 OA
ATOM     10  H   UNL     1       1.875   4.387   2.635  0.00  0.00    +0.155 HD
BRANCH   8  11
ATOM     11  C   UNL     1      -0.124   4.262   4.375  0.00  0.00    +0.073 C 
ATOM     12  C   UNL     1      -1.139   4.370   5.257  0.00  0.00    +0.073 C 
BRANCH  12  13
ATOM     13  C   UNL     1      -1.528   3.213   6.073  0.00  0.00    +0.221 A 
ATOM     14  N   UNL     1      -2.497   3.207   6.957  0.00  0.00    -0.209 NA
ATOM     15  C   UNL     1      -2.572   1.982   7.514  0.00  0.00    +0.110 A 
ATOM     16  C   UNL     1      -3.397   1.415   8.492  0.00  0.00    +0.031 A 
ATOM     17  C   UNL     1      -3.223   0.110   8.855  0.00  0.00    +0.002 A 
ATOM     18  C   UNL     1      -2.233  -0.662   8.262  0.00  0.00    +0.004 A 
ATOM     19  C   UNL     1      -1.408  -0.123   7.297  0.00  0.00    +0.048 A 
ATOM     20  C   UNL     1      -1.569   1.200   6.914  0.00  0.00    +0.156 A 
ATOM     21  O   UNL     1      -0.946   1.998   6.020  0.00  0.00    -0.436 OA
ENDBRANCH  12  13
ENDBRANCH   8  11
ENDBRANCH   5   7
BRANCH   1  22
ATOM     22  S   UNL     1       4.859   8.086   0.251  0.00  0.00    +0.059 S 
ATOM     23  O   UNL     1       5.548   6.844   0.195  0.00  0.00    -0.153 OA
ATOM     24  O   UNL     1       4.822   8.987  -0.847  0.00  0.00    -0.153 OA
BRANCH  22  25
ATOM     25  N   UNL     1       5.497   8.924   1.529  0.00  0.00    -0.185 NA
ATOM     26  H   UNL     1       6.402   8.541   2.024  0.00  0.00    +0.149 HD
BRANCH  25  28
ATOM     27  C   UNL     1       3.472  10.214   1.992  0.00  0.00    +0.029 C 
ATOM     28  C   UNL     1       4.995  10.261   1.853  0.00  0.00    +0.032 C 
ATOM     29  C   UNL     1       5.613  10.733   3.171  0.00  0.00    +0.029 C 
ATOM     30  C   UNL     1       5.375  11.233   0.735  0.00  0.00    +0.029 C 
ENDBRANCH  25  28
ENDBRANCH  22  25
ENDBRANCH   1  22
TORSDOF 6
