REMARK  Name = ZINC63624945
REMARK  5 active torsions:
REMARK  status: ('A' for Active; 'I' for Inactive)
REMARK    1  A    between atoms: C_1  and  C_2
REMARK    2  A    between atoms: C_2  and  C_4
REMARK    3  A    between atoms: C_7  and  S_10
REMARK    4  A    between atoms: S_10  and  N_13
REMARK    5  A    between atoms: C_26  and  C_28
REMARK                            x       y       z     vdW  Elec       q    Type
REMARK                         _______ _______ _______ _____ _____    ______ ____
ROOT
ATOM      1  N   UNL     1      -5.587  -3.350  -1.503  0.00  0.00    -0.167 NA
ATOM      2  C   UNL     1      -6.447  -2.352  -2.145  0.00  0.00    +0.114 C 
ATOM      3  C   UNL     1      -5.744  -1.798  -3.398  0.00  0.00    +0.050 C 
ATOM      4  C   UNL     1      -5.187  -2.987  -4.142  0.00  0.00    -0.035 C 
ATOM      5  C   UNL     1      -5.308  -3.365  -5.408  0.00  0.00    -0.001 A 
ATOM      6  C   UNL     1      -5.933  -2.712  -6.570  0.00  0.00    +0.010 A 
ATOM      7  C   UNL     1      -5.892  -3.404  -7.740  0.00  0.00    +0.001 A 
ATOM      8  C   UNL     1      -5.300  -4.664  -7.868  0.00  0.00    +0.002 A 
ATOM      9  C   UNL     1      -4.696  -5.335  -6.855  0.00  0.00    +0.026 A 
ATOM     10  C   UNL     1      -4.667  -4.705  -5.577  0.00  0.00    +0.043 A 
ATOM     11  N   UNL     1      -4.143  -5.102  -4.455  0.00  0.00    -0.376 N 
ATOM     12  C   UNL     1      -4.330  -4.047  -3.459  0.00  0.00    +0.129 C 
ATOM     13  C   UNL     1      -5.123  -4.532  -2.247  0.00  0.00    +0.136 C 
ATOM     14  H   UNL     1      -3.703  -5.954  -4.304  0.00  0.00    +0.160 HD
ENDROOT
BRANCH  13  15
ATOM     15  C   UNL     1      -6.307  -5.343  -2.707  0.00  0.00    -0.026 A 
ATOM     16  C   UNL     1      -6.422  -6.670  -2.336  0.00  0.00    +0.007 A 
ATOM     17  C   UNL     1      -7.508  -7.413  -2.757  0.00  0.00    +0.020 A 
ATOM     18  C   UNL     1      -8.480  -6.830  -3.551  0.00  0.00    +0.041 A 
ATOM     19  C   UNL     1      -8.364  -5.503  -3.922  0.00  0.00    +0.020 A 
ATOM     20  C   UNL     1      -7.280  -4.758  -3.495  0.00  0.00    +0.007 A 
ATOM     21 CL   UNL     1      -9.843  -7.764  -4.082  0.00  0.00    -0.084 Cl
ENDBRANCH  13  15
BRANCH   1  22
ATOM     22  S   UNL     1      -5.127  -3.143   0.074  0.00  0.00    +0.061 S 
ATOM     23  O   UNL     1      -4.810  -4.433   0.578  0.00  0.00    -0.153 OA
ATOM     24  O   UNL     1      -6.107  -2.309   0.677  0.00  0.00    -0.153 OA
BRANCH  22  28
ATOM     25  C   UNL     1      -1.260  -0.779   0.042  0.00  0.00    +0.017 A 
ATOM     26  C   UNL     1      -2.489  -0.115   0.095  0.00  0.00    +0.013 A 
ATOM     27  C   UNL     1      -3.661  -0.841   0.105  0.00  0.00    +0.029 A 
ATOM     28  C   UNL     1      -3.623  -2.224   0.062  0.00  0.00    +0.106 A 
ATOM     29  C   UNL     1      -2.410  -2.889   0.010  0.00  0.00    +0.029 A 
ATOM     30  C   UNL     1      -1.230  -2.177  -0.006  0.00  0.00    +0.013 A 
BRANCH  25  32
ATOM     31  C   UNL     1      -0.041   1.494   0.084  0.00  0.00    +0.091 C 
ATOM     32  C   UNL     1      -0.004  -0.012   0.031  0.00  0.00    +0.160 C 
ATOM     33  O   UNL     1       1.060  -0.591  -0.020  0.00  0.00    -0.292 OA
ENDBRANCH  25  32
ENDBRANCH  22  28
ENDBRANCH   1  22
TORSDOF 4
