REMARK  Name = ZINC13346305
REMARK  13 active torsions:
REMARK  status: ('A' for Active; 'I' for Inactive)
REMARK    1  A    between atoms: C_1  and  C_2
REMARK    2  A    between atoms: C_5  and  C_34
REMARK    3  A    between atoms: N_6  and  C_7
REMARK    4  A    between atoms: C_10  and  C_13
REMARK    5  A    between atoms: N_15  and  N_16
REMARK    6  A    between atoms: N_16  and  S_17
REMARK    7  A    between atoms: S_17  and  C_20
REMARK    8  A    between atoms: C_22  and  C_30
REMARK    9  A    between atoms: C_24  and  O_28
REMARK   10  A    between atoms: C_25  and  O_26
REMARK   11  A    between atoms: O_26  and  C_27
REMARK   12  A    between atoms: O_28  and  C_29
REMARK   13  A    between atoms: C_31  and  C_32
REMARK                            x       y       z     vdW  Elec       q    Type
REMARK                         _______ _______ _______ _____ _____    ______ ____
ROOT
ATOM      1  N   UNL     1      -6.537  -4.267   1.142  0.00  0.00    -0.108 NA
ATOM      2  H   UNL     1      -7.221  -4.345   0.458  0.00  0.00    +0.172 HD
ENDROOT
BRANCH   1   5
ATOM      3  C   UNL     1      -4.805  -3.147  -0.047  0.00  0.00    +0.259 C 
ATOM      4  O   UNL     1      -5.011  -3.870  -1.003  0.00  0.00    -0.269 OA
ATOM      5  N   UNL     1      -5.573  -3.255   1.056  0.00  0.00    -0.228 N 
ATOM      6  H   UNL     1      -5.457  -2.631   1.789  0.00  0.00    +0.171 HD
BRANCH   3  10
ATOM      7  C   UNL     1      -1.671  -0.285  -0.184  0.00  0.00    +0.047 A 
ATOM      8  C   UNL     1      -2.526  -0.325   0.912  0.00  0.00    +0.027 A 
ATOM      9  C   UNL     1      -3.547  -1.248   0.957  0.00  0.00    +0.015 A 
ATOM     10  C   UNL     1      -3.716  -2.152  -0.095  0.00  0.00    +0.038 A 
ATOM     11  C   UNL     1      -2.850  -2.113  -1.191  0.00  0.00    +0.015 A 
ATOM     12  C   UNL     1      -1.835  -1.183  -1.232  0.00  0.00    +0.027 A 
BRANCH   7  18
ATOM     13  C   UNL     1      -2.115   2.745  -0.346  0.00  0.00    +0.064 C 
ATOM     14  C   UNL     1      -0.799   2.013  -0.298  0.00  0.00    +0.021 A 
ATOM     15  C   UNL     1       0.423   2.580  -0.323  0.00  0.00    +0.023 A 
ATOM     16  C   UNL     1       1.374   1.541  -0.266  0.00  0.00    +0.023 A 
ATOM     17  C   UNL     1       0.698   0.376  -0.209  0.00  0.00    +0.021 A 
ATOM     18  N   UNL     1      -0.639   0.657  -0.229  0.00  0.00    -0.318 N 
ATOM     19  C   UNL     1       1.312  -0.999  -0.137  0.00  0.00    +0.064 C 
ENDBRANCH   7  18
ENDBRANCH   3  10
ENDBRANCH   1   5
BRANCH   1  20
ATOM     20  S   UNL     1      -6.510  -5.330   2.412  0.00  0.00    +0.077 S 
ATOM     21  O   UNL     1      -7.734  -6.051   2.364  0.00  0.00    -0.152 OA
ATOM     22  O   UNL     1      -5.244  -5.974   2.375  0.00  0.00    -0.152 OA
BRANCH  20  23
ATOM     23  C   UNL     1      -6.547  -4.375   3.892  0.00  0.00    +0.152 A 
ATOM     24  C   UNL     1      -5.476  -4.409   4.758  0.00  0.00    +0.040 A 
ATOM     25  C   UNL     1      -5.501  -3.647   5.932  0.00  0.00    -0.019 A 
ATOM     26  C   UNL     1      -6.621  -2.860   6.226  0.00  0.00    +0.057 A 
ATOM     27  C   UNL     1      -7.692  -2.836   5.355  0.00  0.00    +0.164 A 
ATOM     28  C   UNL     1      -7.657  -3.594   4.185  0.00  0.00    +0.188 A 
BRANCH  28  29
ATOM     29  O   UNL     1      -8.711  -3.568   3.330  0.00  0.00    -0.490 OA
ATOM     30  C   UNL     1      -9.805  -4.440   3.623  0.00  0.00    +0.277 C 
ENDBRANCH  28  29
BRANCH  27  31
ATOM     31  O   UNL     1      -8.781  -2.072   5.638  0.00  0.00    -0.491 OA
ATOM     32  C   UNL     1      -8.749  -1.321   6.853  0.00  0.00    +0.277 C 
ENDBRANCH  27  31
BRANCH  25  33
ATOM     33  C   UNL     1      -4.359  -3.678   6.855  0.00  0.00    +0.015 C 
ATOM     34  C   UNL     1      -4.388  -2.946   7.991  0.00  0.00    +0.096 C 
BRANCH  34  35
ATOM     35  C   UNL     1      -3.285  -2.977   8.882  0.00  0.00    +0.380 C 
ATOM     36  O   UNL     1      -2.313  -3.661   8.624  0.00  0.00    -0.241 OA
ATOM     37  O   UNL     1      -3.315  -2.246  10.016  0.00  0.00    -0.241 OA
ENDBRANCH  34  35
ENDBRANCH  25  33
ENDBRANCH  20  23
ENDBRANCH   1  20
TORSDOF 9
