REMARK  Name = ZINC08776719
REMARK  7 active torsions:
REMARK  status: ('A' for Active; 'I' for Inactive)
REMARK    1  A    between atoms: C_1  and  O_2
REMARK    2  A    between atoms: O_2  and  C_3
REMARK    3  A    between atoms: C_8  and  C_9
REMARK    4  A    between atoms: C_9  and  N_10
REMARK    5  A    between atoms: C_11  and  C_12
REMARK    6  A    between atoms: N_18  and  C_21
REMARK    7  A    between atoms: N_28  and  C_29
REMARK                            x       y       z     vdW  Elec       q    Type
REMARK                         _______ _______ _______ _____ _____    ______ ____
ROOT
ATOM      1  N   UNL     1       1.245  -2.811  -1.110  0.00  0.00    -0.263 NA
ATOM      2  C   UNL     1       1.618  -4.031  -1.395  0.00  0.00    +0.136 C 
ATOM      3  N   UNL     1       1.380  -5.053  -0.498  0.00  0.00    -0.299 N 
ATOM      4  H   UNL     1       0.480  -5.215  -0.175  0.00  0.00    +0.154 HD
ENDROOT
BRANCH   2   5
ATOM      5  C   UNL     1       2.292  -4.314  -2.672  0.00  0.00    +0.144 A 
ATOM      6  C   UNL     1       2.586  -5.650  -3.057  0.00  0.00    +0.268 A 
ATOM      7  O   UNL     1       2.282  -6.580  -2.332  0.00  0.00    -0.267 OA
ATOM      8  N   UNL     1       3.204  -5.876  -4.233  0.00  0.00    -0.274 N 
ATOM      9  C   UNL     1       3.544  -4.856  -5.040  0.00  0.00    +0.337 A 
ATOM     10  O   UNL     1       4.100  -5.093  -6.095  0.00  0.00    -0.246 OA
ATOM     11  N   UNL     1       3.282  -3.580  -4.709  0.00  0.00    -0.226 N 
ATOM     12  C   UNL     1       2.651  -3.280  -3.531  0.00  0.00    +0.275 A 
ATOM     13  O   UNL     1       2.386  -2.000  -3.207  0.00  0.00    -0.266 OA
ATOM     14  H   UNL     1       3.407  -6.786  -4.500  0.00  0.00    +0.173 HD
BRANCH  11  15
ATOM     15  C   UNL     1       3.653  -2.546  -5.580  0.00  0.00    +0.089 A 
ATOM     16  C   UNL     1       2.768  -2.106  -6.555  0.00  0.00    +0.029 A 
ATOM     17  C   UNL     1       3.137  -1.088  -7.412  0.00  0.00    +0.002 A 
ATOM     18  C   UNL     1       4.386  -0.505  -7.301  0.00  0.00    +0.003 A 
ATOM     19  C   UNL     1       5.271  -0.939  -6.332  0.00  0.00    +0.040 A 
ATOM     20  C   UNL     1       4.906  -1.955  -5.466  0.00  0.00    +0.147 A 
ATOM     21  F   UNL     1       5.769  -2.375  -4.515  0.00  0.00    -0.203 F 
ENDBRANCH  11  15
ENDBRANCH   2   5
BRANCH   3  22
ATOM     22  C   UNL     1       2.436  -5.855  -0.056  0.00  0.00    +0.032 A 
ATOM     23  C   UNL     1       3.736  -5.578  -0.458  0.00  0.00    +0.023 A 
ATOM     24  C   UNL     1       4.777  -6.372  -0.019  0.00  0.00    +0.002 A 
ATOM     25  C   UNL     1       4.526  -7.443   0.819  0.00  0.00    +0.000 A 
ATOM     26  C   UNL     1       3.233  -7.723   1.220  0.00  0.00    +0.002 A 
ATOM     27  C   UNL     1       2.188  -6.928   0.791  0.00  0.00    +0.023 A 
ENDBRANCH   3  22
BRANCH   1  28
ATOM     28  C   UNL     1       0.689  -2.505   0.211  0.00  0.00    +0.182 C 
BRANCH  28  34
ATOM     29  C   UNL     1       1.567  -0.196   0.641  0.00  0.00    +0.125 A 
ATOM     30  C   UNL     1       2.408   0.680   1.312  0.00  0.00    +0.046 A 
ATOM     31  C   UNL     1       3.286   0.200   2.264  0.00  0.00    +0.004 A 
ATOM     32  C   UNL     1       3.327  -1.152   2.549  0.00  0.00    +0.001 A 
ATOM     33  C   UNL     1       2.490  -2.027   1.882  0.00  0.00    +0.009 A 
ATOM     34  C   UNL     1       1.606  -1.552   0.933  0.00  0.00    +0.015 A 
BRANCH  29  36
ATOM     35  C   UNL     1       0.716   1.681  -0.545  0.00  0.00    +0.277 C 
ATOM     36  O   UNL     1       0.702   0.274  -0.296  0.00  0.00    -0.495 OA
ENDBRANCH  29  36
ENDBRANCH  28  34
ENDBRANCH   1  28
TORSDOF 6
