REMARK  Name = ZINC12784091
REMARK  6 active torsions:
REMARK  status: ('A' for Active; 'I' for Inactive)
REMARK    1  A    between atoms: C_1  and  C_2
REMARK    2  A    between atoms: C_3  and  C_29
REMARK    3  A    between atoms: C_7  and  N_11
REMARK    4  A    between atoms: C_14  and  C_17
REMARK    5  A    between atoms: N_19  and  C_20
REMARK    6  A    between atoms: N_19  and  C_21
REMARK                            x       y       z     vdW  Elec       q    Type
REMARK                         _______ _______ _______ _____ _____    ______ ____
ROOT
ATOM      1  N   UNL     1      -1.693   1.437  -1.265  0.00  0.00    -0.315 N 
ATOM      2  C   UNL     1      -1.830   0.021  -0.900  0.00  0.00    +0.107 C 
ATOM      3  C   UNL     1      -0.935  -0.286   0.302  0.00  0.00    +0.032 C 
ATOM      4  C   UNL     1      -1.343   0.605   1.478  0.00  0.00    +0.078 C 
ATOM      5  C   UNL     1      -1.238   2.073   1.057  0.00  0.00    +0.032 C 
ATOM      6  C   UNL     1      -2.125   2.312  -0.168  0.00  0.00    +0.107 C 
ENDROOT
BRANCH   1  13
ATOM      7  C   UNL     1       0.664   2.400  -2.594  0.00  0.00    +0.045 C 
ATOM      8  C   UNL     1      -0.314   2.611  -3.721  0.00  0.00    -0.028 A 
ATOM      9  C   UNL     1       0.100   3.121  -4.891  0.00  0.00    -0.008 A 
ATOM     10  S   UNL     1      -1.386   3.165  -5.875  0.00  0.00    -0.074 S 
ATOM     11  C   UNL     1      -2.525   2.509  -4.685  0.00  0.00    +0.114 A 
ATOM     12  C   UNL     1      -1.714   2.266  -3.554  0.00  0.00    +0.051 A 
ATOM     13  C   UNL     1      -2.388   1.720  -2.427  0.00  0.00    +0.133 A 
ATOM     14  N   UNL     1      -3.689   1.490  -2.502  0.00  0.00    -0.220 NA
ATOM     15  C   UNL     1      -4.387   1.746  -3.594  0.00  0.00    +0.224 A 
ATOM     16  N   UNL     1      -3.817   2.248  -4.673  0.00  0.00    -0.228 NA
ATOM     17  C   UNL     1       1.492   3.546  -5.284  0.00  0.00    +0.052 C 
ENDBRANCH   1  13
BRANCH   4  18
ATOM     18  C   UNL     1      -0.425   0.349   2.646  0.00  0.00    +0.219 C 
ATOM     19  O   UNL     1       0.676  -0.123   2.460  0.00  0.00    -0.275 OA
ATOM     20  N   UNL     1      -0.829   0.644   3.898  0.00  0.00    -0.300 N 
ATOM     21  C   UNL     1       0.089   0.466   5.025  0.00  0.00    +0.132 C 
BRANCH  20  22
ATOM     22  C   UNL     1      -2.187   1.142   4.131  0.00  0.00    +0.098 C 
ATOM     23  C   UNL     1      -2.127   2.466   4.911  0.00  0.00    +0.046 C 
ATOM     24  C   UNL     1      -3.536   2.832   5.438  0.00  0.00    +0.168 C 
ATOM     25  S   UNL     1      -4.336   1.187   5.628  0.00  0.00    -0.029 S 
ATOM     26  O   UNL     1      -5.449   1.109   4.748  0.00  0.00    -0.174 OA
ATOM     27  O   UNL     1      -4.519   0.918   7.011  0.00  0.00    -0.174 OA
ATOM     28  C   UNL     1      -2.985   0.113   4.982  0.00  0.00    +0.188 C 
ENDBRANCH  20  22
ENDBRANCH   4  18
TORSDOF 3
