REMARK  Name = ZINC65835707
REMARK  4 active torsions:
REMARK  status: ('A' for Active; 'I' for Inactive)
REMARK    1  A    between atoms: C_3  and  C_27
REMARK    2  A    between atoms: C_6  and  N_7
REMARK    3  A    between atoms: C_8  and  C_10
REMARK    4  A    between atoms: N_12  and  C_13
REMARK                            x       y       z     vdW  Elec       q    Type
REMARK                         _______ _______ _______ _____ _____    ______ ____
ROOT
ATOM      1  C   UNL     1      -2.408  -2.954   0.554  0.00  0.00    +0.303 C 
ATOM      2  O   UNL     1      -3.356  -2.578   1.211  0.00  0.00    -0.265 OA
ATOM      3  N   UNL     1      -2.534  -4.021  -0.261  0.00  0.00    -0.278 N 
ATOM      4  H   UNL     1      -1.758  -4.367  -0.730  0.00  0.00    +0.155 HD
ENDROOT
BRANCH   3   5
ATOM      5  C   UNL     1      -3.782  -4.629  -0.430  0.00  0.00    +0.038 A 
ATOM      6  C   UNL     1      -4.939  -3.860  -0.398  0.00  0.00    +0.027 A 
ATOM      7  C   UNL     1      -6.173  -4.458  -0.565  0.00  0.00    +0.051 A 
ATOM      8  C   UNL     1      -6.260  -5.825  -0.764  0.00  0.00    +0.167 A 
ATOM      9  C   UNL     1      -5.100  -6.600  -0.796  0.00  0.00    +0.169 A 
ATOM     10  C   UNL     1      -3.865  -6.000  -0.634  0.00  0.00    +0.073 A 
ATOM     11  O   UNL     1      -5.461  -7.905  -1.007  0.00  0.00    -0.447 OA
ATOM     12  C   UNL     1      -6.836  -7.951  -0.599  0.00  0.00    +0.254 C 
ATOM     13  O   UNL     1      -7.336  -6.653  -0.952  0.00  0.00    -0.448 OA
ATOM     14  C   UNL     1      -6.960  -8.205   0.907  0.00  0.00    +0.093 C 
ATOM     15  C   UNL     1      -8.239  -9.074   1.035  0.00  0.00    +0.008 C 
ATOM     16  C   UNL     1      -8.166  -9.982  -0.219  0.00  0.00    +0.008 C 
ATOM     17  C   UNL     1      -7.598  -9.061  -1.322  0.00  0.00    +0.093 C 
ENDBRANCH   3   5
BRANCH   1  19
ATOM     18  N   UNL     1      -0.977  -1.170   1.461  0.00  0.00    -0.278 N 
ATOM     19  C   UNL     1      -1.103  -2.237   0.647  0.00  0.00    +0.303 C 
ATOM     20  O   UNL     1      -0.155  -2.613  -0.011  0.00  0.00    -0.265 OA
ATOM     21  H   UNL     1      -1.714  -0.909   2.036  0.00  0.00    +0.155 HD
BRANCH  18  27
ATOM     22  C   UNL     1       0.176   0.939   1.649  0.00  0.00    +0.024 A 
ATOM     23  C   UNL     1       1.348   1.662   1.666  0.00  0.00    +0.022 A 
ATOM     24  C   UNL     1       2.574   1.009   1.509  0.00  0.00    +0.070 A 
ATOM     25  C   UNL     1       2.605  -0.380   1.337  0.00  0.00    +0.060 A 
ATOM     26  C   UNL     1       1.428  -1.097   1.321  0.00  0.00    +0.044 A 
ATOM     27  C   UNL     1       0.211  -0.442   1.477  0.00  0.00    +0.035 A 
ATOM     28 CL   UNL     1       4.124  -1.197   1.141  0.00  0.00    -0.082 Cl
BRANCH  24  29
ATOM     29  C   UNL     1       3.794   1.758   1.526  0.00  0.00    +0.101 C 
ATOM     30  N   UNL     1       4.762   2.352   1.538  0.00  0.00    -0.191 NA
ENDBRANCH  24  29
ENDBRANCH  18  27
ENDBRANCH   1  19
TORSDOF 4
