REMARK  Name = ZINC21511697
REMARK  9 active torsions:
REMARK  status: ('A' for Active; 'I' for Inactive)
REMARK    1  A    between atoms: C_1  and  C_2
REMARK    2  A    between atoms: C_2  and  C_3
REMARK    3  A    between atoms: C_2  and  C_4
REMARK    4  A    between atoms: C_2  and  C_5
REMARK    5  A    between atoms: C_10  and  C_13
REMARK    6  A    between atoms: C_13  and  O_15
REMARK    7  A    between atoms: O_15  and  C_16
REMARK    8  A    between atoms: C_16  and  C_17
REMARK    9  A    between atoms: N_19  and  C_20
REMARK                            x       y       z     vdW  Elec       q    Type
REMARK                         _______ _______ _______ _____ _____    ______ ____
ROOT
ATOM      1  O   UNL     1      -0.481   0.669  -3.571  0.00  0.00    -0.455 OA
ENDROOT
BRANCH   1   2
ATOM      2  C   UNL     1      -1.624   1.216  -3.128  0.00  0.00    +0.311 C 
ATOM      3  O   UNL     1      -1.594   2.235  -2.480  0.00  0.00    -0.251 OA
BRANCH   2   9
ATOM      4  C   UNL     1      -6.622   0.931  -5.232  0.00  0.00    +0.221 C 
ATOM      5  O   UNL     1      -7.487   1.545  -4.645  0.00  0.00    -0.275 OA
ATOM      6  N   UNL     1      -5.539   0.486  -4.564  0.00  0.00    -0.301 N 
ATOM      7  C   UNL     1      -5.417   0.692  -3.115  0.00  0.00    +0.108 C 
ATOM      8  C   UNL     1      -4.080   1.380  -2.825  0.00  0.00    +0.033 C 
ATOM      9  C   UNL     1      -2.944   0.560  -3.441  0.00  0.00    +0.101 C 
ATOM     10  C   UNL     1      -3.131   0.486  -4.958  0.00  0.00    +0.033 C 
ATOM     11  C   UNL     1      -4.457  -0.212  -5.272  0.00  0.00    +0.108 C 
BRANCH   4  13
ATOM     12  C   UNL     1      -8.177   1.012  -7.162  0.00  0.00    +0.020 C 
ATOM     13  C   UNL     1      -6.758   0.664  -6.710  0.00  0.00    +0.039 C 
ATOM     14  C   UNL     1      -5.752   1.525  -7.478  0.00  0.00    +0.020 C 
ATOM     15  C   UNL     1      -6.481  -0.814  -6.989  0.00  0.00    +0.020 C 
ENDBRANCH   4  13
ENDBRANCH   2   9
ENDBRANCH   1   2
BRANCH   1  16
ATOM     16  C   UNL     1       0.753   1.355  -3.232  0.00  0.00    +0.328 C 
BRANCH  16  17
ATOM     17  C   UNL     1       1.923   0.600  -3.809  0.00  0.00    +0.255 C 
ATOM     18  O   UNL     1       1.735  -0.416  -4.444  0.00  0.00    -0.272 OA
ATOM     19  N   UNL     1       3.177   1.058  -3.626  0.00  0.00    -0.280 N 
ATOM     20  H   UNL     1       3.343   2.015  -3.109  0.00  0.00    +0.155 HD
BRANCH  19  21
ATOM     21  C   UNL     1       4.268   0.315  -4.091  0.00  0.00    +0.073 A 
ATOM     22  C   UNL     1       4.292  -1.065  -3.929  0.00  0.00    +0.082 A 
ATOM     23  C   UNL     1       5.369  -1.797  -4.395  0.00  0.00    +0.063 A 
ATOM     24  C   UNL     1       6.428  -1.155  -5.013  0.00  0.00    +0.043 A 
ATOM     25  C   UNL     1       6.410   0.220  -5.171  0.00  0.00    +0.063 A 
ATOM     26  C   UNL     1       5.333   0.956  -4.712  0.00  0.00    +0.082 A 
ATOM     27 CL   UNL     1       5.311   2.681  -4.912  0.00  0.00    -0.080 Cl
ATOM     28 CL   UNL     1       7.740   1.020  -5.948  0.00  0.00    -0.082 Cl
ATOM     29 CL   UNL     1       5.396  -3.521  -4.199  0.00  0.00    -0.082 Cl
ATOM     30 CL   UNL     1       2.967  -1.870  -3.147  0.00  0.00    -0.080 Cl
ENDBRANCH  19  21
ENDBRANCH  16  17
ENDBRANCH   1  16
TORSDOF 6
