REMARK  Name = ZINC39673740
REMARK  8 active torsions:
REMARK  status: ('A' for Active; 'I' for Inactive)
REMARK    1  A    between atoms: C_1  and  C_2
REMARK    2  A    between atoms: C_2  and  C_3
REMARK    3  A    between atoms: C_3  and  C_4
REMARK    4  A    between atoms: C_4  and  C_6
REMARK    5  A    between atoms: C_4  and  N_7
REMARK    6  A    between atoms: C_8  and  C_10
REMARK    7  A    between atoms: C_21  and  C_23
REMARK    8  A    between atoms: C_28  and  C_29
REMARK                            x       y       z     vdW  Elec       q    Type
REMARK                         _______ _______ _______ _____ _____    ______ ____
ROOT
ATOM      1  C   UNL     1       0.338  -4.321  -1.971  0.00  0.00    +0.100 C 
ATOM      2  C   UNL     1       1.287  -3.321  -2.670  0.00  0.00    +0.121 C 
ATOM      3  N   UNL     1       2.647  -3.843  -2.398  0.00  0.00    -0.296 N 
ATOM      4  C   UNL     1       2.509  -5.314  -2.518  0.00  0.00    +0.115 C 
ATOM      5  C   UNL     1       1.142  -5.628  -1.876  0.00  0.00    -0.004 C 
ATOM      6  C   UNL     1       1.326  -6.030  -0.416  0.00  0.00    -0.010 C 
ATOM      7  C   UNL     1       2.079  -7.362  -0.349  0.00  0.00    -0.082 C 
ATOM      8  N   UNL     1       1.320  -8.392  -1.069  0.00  0.00    +0.379 N 
ATOM      9  C   UNL     1       1.227  -8.043  -2.492  0.00  0.00    -0.082 C 
ATOM     10  C   UNL     1       0.439  -6.739  -2.649  0.00  0.00    -0.010 C 
ATOM     11  C   UNL     1       3.759  -3.139  -2.107  0.00  0.00    +0.247 C 
ATOM     12  O   UNL     1       4.828  -3.707  -2.003  0.00  0.00    -0.270 OA
ATOM     13  H   UNL     1       1.787  -9.281  -0.972  0.00  0.00    -0.086 HD
ATOM     14  H   UNL     1       0.392  -8.458  -0.679  0.00  0.00    -0.086 HD
ENDROOT
BRANCH  11  15
ATOM     15  C   UNL     1       3.678  -1.675  -1.913  0.00  0.00    +0.043 A 
ATOM     16  C   UNL     1       2.794  -0.915  -2.681  0.00  0.00    +0.051 A 
ATOM     17  C   UNL     1       2.723   0.452  -2.495  0.00  0.00    +0.124 A 
ATOM     18  C   UNL     1       3.527   1.067  -1.549  0.00  0.00    +0.038 A 
ATOM     19  C   UNL     1       4.404   0.318  -0.786  0.00  0.00    +0.007 A 
ATOM     20  C   UNL     1       4.480  -1.049  -0.959  0.00  0.00    -0.038 A 
ATOM     21  C   UNL     1       5.432  -1.864  -0.122  0.00  0.00    +0.044 C 
ATOM     22  F   UNL     1       1.869   1.190  -3.237  0.00  0.00    -0.205 F 
ENDBRANCH  11  15
BRANCH   1  24
ATOM     23  N   UNL     1      -1.211  -4.157  -0.050  0.00  0.00    -0.312 N 
ATOM     24  C   UNL     1      -0.024  -3.826  -0.595  0.00  0.00    +0.218 C 
ATOM     25  O   UNL     1       0.754  -3.129   0.023  0.00  0.00    -0.275 OA
ATOM     26  H   UNL     1      -1.833  -4.714  -0.544  0.00  0.00    +0.149 HD
BRANCH  23  27
ATOM     27  C   UNL     1      -1.562  -3.676   1.288  0.00  0.00    +0.070 C 
ATOM     28  C   UNL     1      -0.982  -4.623   2.340  0.00  0.00    +0.028 C 
BRANCH  27  29
ATOM     29  C   UNL     1      -3.085  -3.629   1.430  0.00  0.00    +0.022 C 
BRANCH  29  31
ATOM     30  C   UNL     1      -5.178  -2.542   0.605  0.00  0.00    +0.004 C 
ATOM     31  C   UNL     1      -3.655  -2.589   0.463  0.00  0.00    -0.002 C 
ENDBRANCH  29  31
ENDBRANCH  27  29
ENDBRANCH  23  27
ENDBRANCH   1  24
TORSDOF 5
