REMARK  Name = ZINC20206933
REMARK  8 active torsions:
REMARK  status: ('A' for Active; 'I' for Inactive)
REMARK    1  A    between atoms: C_1  and  C_2
REMARK    2  A    between atoms: C_2  and  S_3
REMARK    3  A    between atoms: S_3  and  C_6
REMARK    4  A    between atoms: C_14  and  C_15
REMARK    5  A    between atoms: C_17  and  C_29
REMARK    6  A    between atoms: N_18  and  C_21
REMARK    7  A    between atoms: C_19  and  C_20
REMARK    8  A    between atoms: C_26  and  C_27
REMARK                            x       y       z     vdW  Elec       q    Type
REMARK                         _______ _______ _______ _____ _____    ______ ____
ROOT
ATOM      1  C   UNL     1       2.164  -2.987  -2.279  0.00  0.00    +0.257 C 
ATOM      2  N   UNL     1       2.014  -3.817  -3.265  0.00  0.00    -0.174 NA
ATOM      3  S   UNL     1       3.288  -4.894  -3.095  0.00  0.00    +0.049 S 
ATOM      4  C   UNL     1       3.976  -4.282  -1.705  0.00  0.00    +0.183 C 
ATOM      5  N   UNL     1       4.999  -4.716  -1.004  0.00  0.00    -0.152 NA
ATOM      6  C   UNL     1       5.336  -4.084   0.136  0.00  0.00    +0.273 C 
ATOM      7  O   UNL     1       6.357  -4.379   0.737  0.00  0.00    -0.268 OA
ATOM      8  C   UNL     1       4.437  -3.020   0.645  0.00  0.00    +0.079 C 
ATOM      9  C   UNL     1       4.387  -2.687   1.983  0.00  0.00    +0.026 C 
ATOM     10  C   UNL     1       3.591  -2.331  -0.370  0.00  0.00    +0.138 C 
ATOM     11  N   UNL     1       3.239  -1.076  -0.280  0.00  0.00    -0.284 NA
ATOM     12  N   UNL     1       3.212  -3.165  -1.440  0.00  0.00    -0.201 N 
ATOM     13  H   UNL     1       3.531  -0.544   0.477  0.00  0.00    +0.188 HD
ENDROOT
BRANCH   9  14
ATOM     14  C   UNL     1       5.097  -3.501   2.966  0.00  0.00    -0.003 A 
ATOM     15  C   UNL     1       5.283  -4.959   2.939  0.00  0.00    +0.031 A 
ATOM     16  C   UNL     1       5.993  -5.272   4.036  0.00  0.00    +0.022 A 
ATOM     17  N   UNL     1       6.261  -4.130   4.739  0.00  0.00    -0.317 N 
ATOM     18  C   UNL     1       5.738  -3.058   4.111  0.00  0.00    +0.028 A 
ATOM     19  C   UNL     1       5.831  -1.627   4.575  0.00  0.00    +0.064 C 
ATOM     20  C   UNL     1       6.424  -6.661   4.430  0.00  0.00    +0.064 C 
BRANCH  17  21
ATOM     21  C   UNL     1       6.983  -4.080   5.939  0.00  0.00    +0.051 A 
ATOM     22  C   UNL     1       8.361  -3.908   5.915  0.00  0.00    +0.026 A 
ATOM     23  C   UNL     1       9.071  -3.859   7.099  0.00  0.00    +0.003 A 
ATOM     24  C   UNL     1       8.411  -3.982   8.308  0.00  0.00    +0.020 A 
ATOM     25  C   UNL     1       7.038  -4.155   8.336  0.00  0.00    +0.046 A 
ATOM     26  C   UNL     1       6.322  -4.198   7.154  0.00  0.00    -0.008 A 
ATOM     27  C   UNL     1       4.826  -4.378   7.184  0.00  0.00    +0.047 C 
ATOM     28 CL   UNL     1       6.214  -4.310   9.855  0.00  0.00    -0.083 Cl
ENDBRANCH  17  21
ENDBRANCH   9  14
BRANCH   1  29
ATOM     29  S   UNL     1       1.035  -1.656  -2.042  0.00  0.00    +0.029 S 
ATOM     30  O   UNL     1       0.969  -1.482  -0.634  0.00  0.00    -0.167 OA
ATOM     31  O   UNL     1      -0.121  -2.025  -2.782  0.00  0.00    -0.167 OA
BRANCH  29  33
ATOM     32  C   UNL     1       0.937   1.006  -2.664  0.00  0.00    +0.028 C 
ATOM     33  C   UNL     1       1.838  -0.222  -2.812  0.00  0.00    +0.172 C 
ENDBRANCH  29  33
ENDBRANCH   1  29
TORSDOF 4
