REMARK  Name = ZINC00694836
REMARK  6 active torsions:
REMARK  status: ('A' for Active; 'I' for Inactive)
REMARK    1  A    between atoms: C_1  and  C_2
REMARK    2  A    between atoms: C_3  and  C_25
REMARK    3  A    between atoms: C_4  and  N_9
REMARK    4  A    between atoms: C_6  and  C_8
REMARK    5  A    between atoms: N_17  and  C_18
REMARK    6  A    between atoms: C_25  and  C_26
REMARK                            x       y       z     vdW  Elec       q    Type
REMARK                         _______ _______ _______ _____ _____    ______ ____
ROOT
ATOM      1  C   UNL     1       1.687   4.754   1.032  0.00  0.00    +0.064 C 
ATOM      2  C   UNL     1       1.122   3.850  -0.033  0.00  0.00    +0.021 A 
ATOM      3  C   UNL     1       0.932   2.506   0.220  0.00  0.00    +0.016 A 
ATOM      4  C   UNL     1       0.406   1.708  -0.798  0.00  0.00    +0.128 A 
ATOM      5  N   UNL     1       0.113   2.268  -1.968  0.00  0.00    -0.219 NA
ATOM      6  C   UNL     1       0.305   3.557  -2.163  0.00  0.00    +0.106 A 
ATOM      7  N   UNL     1       0.800   4.336  -1.223  0.00  0.00    -0.347 N 
ATOM      8  C   UNL     1      -0.045   4.154  -3.502  0.00  0.00    +0.086 C 
ATOM      9  H   UNL     1       0.945   5.405  -1.439  0.00  0.00    +0.167 HD
ENDROOT
BRANCH   4  10
ATOM     10  N   UNL     1       0.198   0.353  -0.594  0.00  0.00    -0.312 N 
ATOM     11  C   UNL     1       0.935  -0.447  -1.581  0.00  0.00    +0.125 C 
ATOM     12  C   UNL     1       0.827  -1.931  -1.214  0.00  0.00    +0.128 C 
ATOM     13  N   UNL     1      -0.596  -2.274  -1.072  0.00  0.00    -0.282 N 
ATOM     14  C   UNL     1      -1.433  -1.432  -0.204  0.00  0.00    +0.128 C 
ATOM     15  C   UNL     1      -1.236   0.033  -0.611  0.00  0.00    +0.125 C 
ATOM     16  C   UNL     1      -1.120  -3.333  -1.721  0.00  0.00    +0.307 C 
ATOM     17  O   UNL     1      -2.323  -3.514  -1.717  0.00  0.00    -0.252 OA
ATOM     18  N   UNL     1      -0.312  -4.191  -2.374  0.00  0.00    -0.269 N 
ATOM     19  H   UNL     1       0.780  -4.113  -2.260  0.00  0.00    +0.156 HD
BRANCH  18  20
ATOM     20  C   UNL     1      -0.860  -5.182  -3.196  0.00  0.00    +0.035 A 
ATOM     21  C   UNL     1      -2.150  -5.642  -2.966  0.00  0.00    +0.024 A 
ATOM     22  C   UNL     1      -2.691  -6.616  -3.782  0.00  0.00    +0.017 A 
ATOM     23  C   UNL     1      -1.945  -7.142  -4.822  0.00  0.00    +0.018 A 
ATOM     24  C   UNL     1      -0.658  -6.689  -5.051  0.00  0.00    +0.017 A 
ATOM     25  C   UNL     1      -0.114  -5.711  -4.241  0.00  0.00    +0.024 A 
ATOM     26 BR   UNL     1      -2.686  -8.481  -5.932  0.00  0.00    -0.050 Br
ENDBRANCH  18  20
ENDBRANCH   4  10
BRANCH   3  27
ATOM     27  C   UNL     1       1.285   1.915   1.561  0.00  0.00    +0.075 C 
BRANCH  27  28
ATOM     28  C   UNL     1       2.750   1.563   1.586  0.00  0.00    -0.040 A 
ATOM     29  C   UNL     1       3.179   0.351   1.076  0.00  0.00    +0.004 A 
ATOM     30  C   UNL     1       4.523   0.030   1.094  0.00  0.00    +0.003 A 
ATOM     31  C   UNL     1       5.439   0.915   1.631  0.00  0.00    +0.038 A 
ATOM     32  C   UNL     1       5.010   2.127   2.146  0.00  0.00    +0.124 A 
ATOM     33  C   UNL     1       3.664   2.450   2.123  0.00  0.00    +0.042 A 
ATOM     34  F   UNL     1       5.904   2.992   2.671  0.00  0.00    -0.205 F 
ENDBRANCH  27  28
ENDBRANCH   3  27
TORSDOF 4
