REMARK  Name = ZINC37550750
REMARK  5 active torsions:
REMARK  status: ('A' for Active; 'I' for Inactive)
REMARK    1  A    between atoms: C_1  and  C_2
REMARK    2  A    between atoms: C_5  and  C_7
REMARK    3  A    between atoms: C_13  and  C_15
REMARK    4  A    between atoms: C_16  and  C_17
REMARK    5  A    between atoms: C_17  and  N_18
REMARK                            x       y       z     vdW  Elec       q    Type
REMARK                         _______ _______ _______ _____ _____    ______ ____
ROOT
ATOM      1  C   UNL     1       1.076  -3.942  -0.026  0.00  0.00    +0.256 C 
ATOM      2  O   UNL     1       0.342  -4.913  -0.027  0.00  0.00    -0.269 OA
ATOM      3  N   UNL     1       2.413  -4.107  -0.033  0.00  0.00    -0.260 N 
ATOM      4  C   UNL     1       2.953  -5.384  -0.043  0.00  0.00    +0.166 A 
ATOM      5  N   UNL     1       2.319  -6.539  -0.052  0.00  0.00    -0.232 NA
ATOM      6  C   UNL     1       2.975  -7.679  -0.060  0.00  0.00    +0.137 A 
ATOM      7  C   UNL     1       4.346  -7.601  -0.059  0.00  0.00    +0.083 A 
ATOM      8  S   UNL     1       4.576  -5.830  -0.053  0.00  0.00    -0.044 S 
ATOM      9  H   UNL     1       2.998  -3.333  -0.032  0.00  0.00    +0.157 HD
ENDROOT
BRANCH   1  14
ATOM     10  C   UNL     1      -0.018   1.503   0.010  0.00  0.00    +0.051 C 
ATOM     11  C   UNL     1       0.002  -0.004   0.002  0.00  0.00    -0.013 A 
ATOM     12  C   UNL     1      -1.056  -0.852   0.002  0.00  0.00    +0.011 A 
ATOM     13  C   UNL     1      -0.828  -2.207  -0.007  0.00  0.00    +0.021 A 
ATOM     14  C   UNL     1       0.505  -2.592  -0.016  0.00  0.00    +0.074 A 
ATOM     15  S   UNL     1       1.341  -1.018  -0.017  0.00  0.00    -0.089 S 
ENDBRANCH   1  14
BRANCH   7  16
ATOM     16  C   UNL     1       5.321  -8.650  -0.067  0.00  0.00    -0.059 C 
ATOM     17  C   UNL     1       6.121  -9.509  -0.073  0.00  0.00    -0.116 C 
BRANCH  17  18
ATOM     18  C   UNL     1       7.123 -10.587  -0.081  0.00  0.00    +0.005 C 
BRANCH  18  19
ATOM     19  N   UNL     1       8.471 -10.002  -0.076  0.00  0.00    +0.385 N 
ATOM     20  H   UNL     1       9.158 -10.741  -0.082  0.00  0.00    -0.089 HD
ATOM     21  H   UNL     1       8.590  -9.426  -0.896  0.00  0.00    -0.089 HD
ATOM     22  H   UNL     1       8.590  -9.438   0.752  0.00  0.00    -0.089 HD
ENDBRANCH  18  19
ENDBRANCH  17  18
ENDBRANCH   7  16
TORSDOF 4
