REMARK  Name = ZINC09292575
REMARK  6 active torsions:
REMARK  status: ('A' for Active; 'I' for Inactive)
REMARK    1  A    between atoms: N_10  and  C_11
REMARK    2  A    between atoms: C_11  and  C_12
REMARK    3  A    between atoms: C_18  and  C_20
REMARK    4  A    between atoms: C_23  and  N_26
REMARK    5  A    between atoms: N_26  and  S_27
REMARK    6  A    between atoms: S_27  and  C_30
REMARK                            x       y       z     vdW  Elec       q    Type
REMARK                         _______ _______ _______ _____ _____    ______ ____
ROOT
ATOM      1  C   UNL     1      -7.104   5.562   0.080  0.00  0.00    +0.002 A 
ATOM      2  C   UNL     1      -6.718   6.892   0.163  0.00  0.00    +0.001 A 
ATOM      3  C   UNL     1      -5.374   7.203   0.258  0.00  0.00    +0.017 A 
ATOM      4  C   UNL     1      -4.445   6.193   0.268  0.00  0.00    +0.041 A 
ATOM      5  C   UNL     1      -4.801   4.828   0.184  0.00  0.00    +0.080 A 
ATOM      6  C   UNL     1      -6.183   4.548   0.089  0.00  0.00    +0.029 A 
ATOM      7  N   UNL     1      -3.772   3.953   0.206  0.00  0.00    -0.224 NA
ATOM      8  C   UNL     1      -2.520   4.337   0.299  0.00  0.00    +0.169 A 
ATOM      9  S   UNL     1      -2.673   6.116   0.378  0.00  0.00    -0.052 S 
ATOM     10  N   UNL     1      -1.374   3.562   0.333  0.00  0.00    -0.241 N 
ATOM     11  C   UNL     1      -1.466   2.219   0.267  0.00  0.00    +0.253 C 
ATOM     12  O   UNL     1      -2.547   1.692   0.082  0.00  0.00    -0.270 OA
ENDROOT
BRANCH  11  13
ATOM     13  C   UNL     1      -0.258   1.388   0.419  0.00  0.00    +0.037 A 
ATOM     14  C   UNL     1       0.881   1.661  -0.346  0.00  0.00    +0.015 A 
ATOM     15  C   UNL     1       2.005   0.881  -0.206  0.00  0.00    +0.025 A 
ATOM     16  C   UNL     1       2.010  -0.180   0.697  0.00  0.00    +0.048 A 
ATOM     17  C   UNL     1       0.879  -0.454   1.460  0.00  0.00    +0.025 A 
ATOM     18  C   UNL     1      -0.249   0.323   1.324  0.00  0.00    +0.015 A 
BRANCH  16  19
ATOM     19  N   UNL     1       3.148  -0.967   0.836  0.00  0.00    -0.216 N 
ATOM     20  H   UNL     1       3.487  -1.178   1.720  0.00  0.00    +0.174 HD
BRANCH  19  21
ATOM     21  S   UNL     1       3.925  -1.544  -0.508  0.00  0.00    +0.072 S 
ATOM     22  O   UNL     1       4.159  -0.426  -1.354  0.00  0.00    -0.150 OA
ATOM     23  O   UNL     1       4.976  -2.380  -0.043  0.00  0.00    -0.150 OA
BRANCH  21  24
ATOM     24  C   UNL     1       2.789  -2.589  -1.358  0.00  0.00    +0.109 A 
ATOM     25  C   UNL     1       2.805  -3.953  -1.133  0.00  0.00    +0.031 A 
ATOM     26  C   UNL     1       1.912  -4.774  -1.796  0.00  0.00    +0.040 A 
ATOM     27  C   UNL     1       1.007  -4.230  -2.692  0.00  0.00    +0.124 A 
ATOM     28  C   UNL     1       0.995  -2.864  -2.920  0.00  0.00    +0.040 A 
ATOM     29  C   UNL     1       1.886  -2.045  -2.252  0.00  0.00    +0.031 A 
ATOM     30  F   UNL     1       0.136  -5.032  -3.343  0.00  0.00    -0.205 F 
ENDBRANCH  21  24
ENDBRANCH  19  21
ENDBRANCH  16  19
ENDBRANCH  11  13
BRANCH  10  31
ATOM     31  C   UNL     1      -0.060   4.201   0.441  0.00  0.00    +0.171 C 
BRANCH  31  32
ATOM     32  C   UNL     1       0.262   4.908  -0.851  0.00  0.00    +0.059 A 
ATOM     33  C   UNL     1      -0.030   6.252  -0.986  0.00  0.00    +0.025 A 
ATOM     34  C   UNL     1       0.277   6.893  -2.176  0.00  0.00    +0.003 A 
ATOM     35  C   UNL     1       0.857   6.153  -3.195  0.00  0.00    +0.020 A 
ATOM     36  C   UNL     1       1.114   4.811  -2.989  0.00  0.00    +0.111 A 
ATOM     37  N   UNL     1       0.815   4.235  -1.841  0.00  0.00    -0.258 NA
ENDBRANCH  31  32
ENDBRANCH  10  31
TORSDOF 6
