REMARK  Name = ZINC62432821
REMARK  4 active torsions:
REMARK  status: ('A' for Active; 'I' for Inactive)
REMARK    1  A    between atoms: C_1  and  C_2
REMARK    2  A    between atoms: C_2  and  C_3
REMARK    3  A    between atoms: C_6  and  C_9
REMARK    4  A    between atoms: C_9  and  C_10
REMARK                            x       y       z     vdW  Elec       q    Type
REMARK                         _______ _______ _______ _____ _____    ______ ____
ROOT
ATOM      1  C   UNL     1      -6.383  -0.846   0.053  0.00  0.00    +0.064 A 
ATOM      2  C   UNL     1      -7.382  -0.644  -0.835  0.00  0.00    +0.116 A 
ATOM      3  N   UNL     1      -8.016   0.512  -0.472  0.00  0.00    -0.305 N 
ATOM      4  C   UNL     1      -9.078   1.188  -1.001  0.00  0.00    +0.108 A 
ATOM      5  C   UNL     1      -9.515   2.333  -0.436  0.00  0.00    +0.034 A 
ATOM      6  C   UNL     1      -8.879   2.847   0.707  0.00  0.00    +0.020 A 
ATOM      7  C   UNL     1      -7.819   2.184   1.243  0.00  0.00    +0.048 A 
ATOM      8  C   UNL     1      -7.376   0.989   0.642  0.00  0.00    +0.138 A 
ATOM      9  N   UNL     1      -6.396   0.148   0.943  0.00  0.00    -0.232 NA
ATOM     10 BR   UNL     1     -10.988   3.252  -1.187  0.00  0.00    -0.049 Br
ENDROOT
BRANCH   1  11
ATOM     11  C   UNL     1      -5.419  -2.005   0.043  0.00  0.00    +0.092 C 
BRANCH  11  15
ATOM     12  C   UNL     1      -1.412  -0.526   0.013  0.00  0.00    -0.048 A 
ATOM     13  C   UNL     1      -2.051  -0.766   1.215  0.00  0.00    +0.004 A 
ATOM     14  C   UNL     1      -3.348  -1.244   1.225  0.00  0.00    +0.004 A 
ATOM     15  C   UNL     1      -4.006  -1.482   0.032  0.00  0.00    -0.042 A 
ATOM     16  C   UNL     1      -3.367  -1.241  -1.170  0.00  0.00    +0.004 A 
ATOM     17  C   UNL     1      -2.072  -0.758  -1.179  0.00  0.00    +0.004 A 
BRANCH  12  19
ATOM     18  C   UNL     1      -0.019   1.526   0.010  0.00  0.00    +0.009 C 
ATOM     19  C   UNL     1       0.002  -0.004   0.002  0.00  0.00    +0.032 C 
ENDBRANCH  12  19
ENDBRANCH  11  15
ENDBRANCH   1  11
TORSDOF 3
