REMARK  Name = ZINC06858588
REMARK  5 active torsions:
REMARK  status: ('A' for Active; 'I' for Inactive)
REMARK    1  A    between atoms: C_1  and  C_2
REMARK    2  A    between atoms: C_5  and  C_19
REMARK    3  A    between atoms: C_6  and  N_8
REMARK    4  A    between atoms: N_8  and  S_9
REMARK    5  A    between atoms: S_9  and  C_12
REMARK                            x       y       z     vdW  Elec       q    Type
REMARK                         _______ _______ _______ _____ _____    ______ ____
ROOT
ATOM      1  N   UNL     1      -1.197  -0.720   0.010  0.00  0.00    -0.216 N 
ATOM      2  H   UNL     1      -1.265  -1.527   0.544  0.00  0.00    +0.174 HD
ENDROOT
BRANCH   1   8
ATOM      3  C   UNL     1       1.448   3.392  -0.486  0.00  0.00    +0.044 C 
ATOM      4  C   UNL     1       1.355   1.889  -0.412  0.00  0.00    -0.049 A 
ATOM      5  C   UNL     1       2.500   1.120  -0.521  0.00  0.00    +0.004 A 
ATOM      6  C   UNL     1       2.419  -0.258  -0.454  0.00  0.00    +0.005 A 
ATOM      7  C   UNL     1       1.194  -0.872  -0.278  0.00  0.00    -0.028 A 
ATOM      8  C   UNL     1       0.043  -0.103  -0.169  0.00  0.00    +0.051 A 
ATOM      9  C   UNL     1       0.128   1.282  -0.236  0.00  0.00    +0.028 A 
ATOM     10  C   UNL     1       1.107  -2.375  -0.205  0.00  0.00    +0.046 C 
ENDBRANCH   1   8
BRANCH   1  11
ATOM     11  S   UNL     1      -2.552  -0.075  -0.690  0.00  0.00    +0.074 S 
ATOM     12  O   UNL     1      -3.612  -0.988  -0.441  0.00  0.00    -0.150 OA
ATOM     13  O   UNL     1      -2.608   1.286  -0.286  0.00  0.00    -0.150 OA
BRANCH  11  14
ATOM     14  C   UNL     1      -2.287  -0.073  -2.432  0.00  0.00    +0.127 A 
ATOM     15  C   UNL     1      -2.664  -1.165  -3.201  0.00  0.00    +0.033 A 
ATOM     16  C   UNL     1      -2.437  -1.120  -4.567  0.00  0.00    +0.042 A 
ATOM     17  C   UNL     1      -1.847   0.005  -5.115  0.00  0.00    +0.129 A 
ATOM     18  N   UNL     1      -1.502   1.026  -4.353  0.00  0.00    -0.242 NA
ATOM     19  C   UNL     1      -1.708   1.018  -3.050  0.00  0.00    +0.141 A 
ATOM     20 CL   UNL     1      -1.558   0.076  -6.826  0.00  0.00    -0.062 Cl
ENDBRANCH  11  14
ENDBRANCH   1  11
TORSDOF 3
