REMARK  Name = ZINC18197887
REMARK  10 active torsions:
REMARK  status: ('A' for Active; 'I' for Inactive)
REMARK    1  A    between atoms: C_1  and  C_2
REMARK    2  A    between atoms: C_3  and  C_17
REMARK    3  A    between atoms: C_4  and  N_16
REMARK    4  A    between atoms: N_5  and  C_7
REMARK    5  A    between atoms: C_12  and  C_13
REMARK    6  A    between atoms: C_17  and  C_18
REMARK    7  A    between atoms: C_19  and  C_33
REMARK    8  A    between atoms: N_21  and  C_24
REMARK    9  A    between atoms: C_22  and  N_23
REMARK   10  A    between atoms: C_29  and  C_30
REMARK                            x       y       z     vdW  Elec       q    Type
REMARK                         _______ _______ _______ _____ _____    ______ ____
ROOT
ATOM      1  C   UNL     1       1.414   5.200  -0.409  0.00  0.00    +0.065 C 
ATOM      2  C   UNL     1       2.119   3.885  -0.621  0.00  0.00    +0.037 A 
ATOM      3  C   UNL     1       3.495   3.713  -0.792  0.00  0.00    +0.017 A 
ATOM      4  C   UNL     1       3.734   2.383  -0.954  0.00  0.00    +0.121 A 
ATOM      5  N   UNL     1       2.534   1.742  -0.885  0.00  0.00    -0.240 N 
ATOM      6  N   UNL     1       1.543   2.711  -0.681  0.00  0.00    -0.296 N 
ATOM      7  H   UNL     1       0.452   2.627  -0.575  0.00  0.00    +0.187 HD
ENDROOT
BRANCH   5   8
ATOM      8  C   UNL     1       2.328   0.366  -1.002  0.00  0.00    +0.079 A 
ATOM      9  C   UNL     1       2.736  -0.305  -2.146  0.00  0.00    +0.028 A 
ATOM     10  C   UNL     1       2.526  -1.665  -2.262  0.00  0.00    +0.002 A 
ATOM     11  C   UNL     1       1.914  -2.370  -1.239  0.00  0.00    +0.001 A 
ATOM     12  C   UNL     1       1.508  -1.721  -0.093  0.00  0.00    +0.017 A 
ATOM     13  C   UNL     1       1.714  -0.345   0.039  0.00  0.00    +0.088 A 
BRANCH  13  14
ATOM     14  C   UNL     1       1.281   0.355   1.262  0.00  0.00    +0.389 C 
ATOM     15  O   UNL     1       1.544   1.532   1.414  0.00  0.00    -0.241 OA
ATOM     16  O   UNL     1       0.595  -0.310   2.212  0.00  0.00    -0.241 OA
ENDBRANCH  13  14
ENDBRANCH   5   8
BRANCH   4  17
ATOM     17  N   UNL     1       4.976   1.787  -1.153  0.00  0.00    -0.343 N 
ATOM     18  H   UNL     1       5.049   0.696  -1.272  0.00  0.00    +0.144 HD
ATOM     19  H   UNL     1       5.883   2.407  -1.191  0.00  0.00    +0.144 HD
ENDBRANCH   4  17
BRANCH   3  20
ATOM     20  C   UNL     1       4.532   4.808  -0.797  0.00  0.00    +0.080 C 
BRANCH  20  21
ATOM     21  C   UNL     1       4.720   5.315  -2.204  0.00  0.00    +0.019 A 
ATOM     22  C   UNL     1       5.638   4.827  -3.138  0.00  0.00    +0.066 A 
ATOM     23  N   UNL     1       5.508   5.512  -4.245  0.00  0.00    -0.170 NA
ATOM     24  N   UNL     1       4.505   6.472  -4.057  0.00  0.00    -0.218 N 
ATOM     25  C   UNL     1       4.031   6.333  -2.788  0.00  0.00    +0.124 A 
ATOM     26  C   UNL     1       6.612   3.700  -2.910  0.00  0.00    +0.068 C 
BRANCH  24  27
ATOM     27  C   UNL     1       4.070   7.404  -5.001  0.00  0.00    +0.082 A 
ATOM     28  C   UNL     1       2.727   7.476  -5.341  0.00  0.00    +0.029 A 
ATOM     29  C   UNL     1       2.298   8.398  -6.275  0.00  0.00    +0.002 A 
ATOM     30  C   UNL     1       3.202   9.257  -6.878  0.00  0.00    +0.001 A 
ATOM     31  C   UNL     1       4.540   9.201  -6.552  0.00  0.00    +0.017 A 
ATOM     32  C   UNL     1       4.987   8.275  -5.605  0.00  0.00    +0.089 A 
BRANCH  32  33
ATOM     33  C   UNL     1       6.417   8.213  -5.248  0.00  0.00    +0.389 C 
ATOM     34  O   UNL     1       6.787   7.481  -4.352  0.00  0.00    -0.241 OA
ATOM     35  O   UNL     1       7.312   8.967  -5.915  0.00  0.00    -0.241 OA
ENDBRANCH  32  33
ENDBRANCH  24  27
BRANCH  25  36
ATOM     36  N   UNL     1       3.026   7.093  -2.196  0.00  0.00    -0.343 N 
ATOM     37  H   UNL     1       2.536   7.895  -2.767  0.00  0.00    +0.144 HD
ATOM     38  H   UNL     1       2.723   6.891  -1.159  0.00  0.00    +0.144 HD
ENDBRANCH  25  36
ENDBRANCH  20  21
ENDBRANCH   3  20
TORSDOF 8
