REMARK  Name = ZINC13401435
REMARK  5 active torsions:
REMARK  status: ('A' for Active; 'I' for Inactive)
REMARK    1  A    between atoms: C_4  and  N_7
REMARK    2  A    between atoms: C_8  and  N_9
REMARK    3  A    between atoms: C_10  and  N_17
REMARK    4  A    between atoms: C_11  and  C_15
REMARK    5  A    between atoms: C_18  and  C_19
REMARK                            x       y       z     vdW  Elec       q    Type
REMARK                         _______ _______ _______ _____ _____    ______ ____
ROOT
ATOM      1  N   UNL     1       4.860  -0.727  -0.969  0.00  0.00    -0.247 N 
ATOM      2  C   UNL     1       4.521  -1.981  -0.553  0.00  0.00    +0.134 A 
ATOM      3  C   UNL     1       5.413  -2.679   0.280  0.00  0.00    +0.138 A 
ATOM      4  C   UNL     1       6.620  -2.047   0.648  0.00  0.00    +0.174 A 
ATOM      5  N   UNL     1       6.880  -0.821   0.201  0.00  0.00    -0.180 NA
ATOM      6  C   UNL     1       6.027  -0.178  -0.590  0.00  0.00    +0.356 A 
ATOM      7  O   UNL     1       6.309   0.943  -0.979  0.00  0.00    -0.244 OA
ENDROOT
BRANCH   1  11
ATOM      8  C   UNL     1       2.271   1.406  -3.441  0.00  0.00    +0.000 A 
ATOM      9  C   UNL     1       2.716   0.154  -3.824  0.00  0.00    +0.002 A 
ATOM     10  C   UNL     1       3.574  -0.555  -3.007  0.00  0.00    +0.026 A 
ATOM     11  C   UNL     1       3.990  -0.010  -1.800  0.00  0.00    +0.053 A 
ATOM     12  C   UNL     1       3.541   1.247  -1.417  0.00  0.00    +0.026 A 
ATOM     13  C   UNL     1       2.683   1.951  -2.239  0.00  0.00    +0.002 A 
ENDBRANCH   1  11
BRANCH   2  14
ATOM     14  N   UNL     1       3.338  -2.548  -0.939  0.00  0.00    -0.342 N 
ATOM     15  H   UNL     1       2.666  -2.011  -1.386  0.00  0.00    +0.144 HD
ATOM     16  H   UNL     1       3.171  -3.488  -0.765  0.00  0.00    +0.144 HD
ENDBRANCH   2  14
BRANCH   4  17
ATOM     17  C   UNL     1       7.558  -2.720   1.495  0.00  0.00    +0.122 C 
ATOM     18  N   UNL     1       8.302  -3.254   2.168  0.00  0.00    -0.189 NA
ENDBRANCH   4  17
BRANCH   3  19
ATOM     19  N   UNL     1       5.118  -3.935   0.723  0.00  0.00    -0.249 NA
ATOM     20  C   UNL     1       4.370  -4.096   1.778  0.00  0.00    +0.121 C 
BRANCH  20  21
ATOM     21  C   UNL     1       4.263  -3.019   2.775  0.00  0.00    +0.011 A 
ATOM     22  C   UNL     1       4.353  -1.681   2.377  0.00  0.00    +0.012 A 
ATOM     23  C   UNL     1       4.252  -0.678   3.317  0.00  0.00    +0.021 A 
ATOM     24  C   UNL     1       4.061  -0.991   4.653  0.00  0.00    +0.042 A 
ATOM     25  C   UNL     1       3.971  -2.313   5.056  0.00  0.00    +0.040 A 
ATOM     26  C   UNL     1       4.065  -3.328   4.126  0.00  0.00    +0.051 A 
ATOM     27 CL   UNL     1       3.944  -4.985   4.631  0.00  0.00    -0.083 Cl
ATOM     28 CL   UNL     1       3.936   0.280   5.829  0.00  0.00    -0.083 Cl
ENDBRANCH  20  21
ENDBRANCH   3  19
TORSDOF 5
