REMARK  Name = ZINC25538748
REMARK  7 active torsions:
REMARK  status: ('A' for Active; 'I' for Inactive)
REMARK    1  A    between atoms: C_3  and  N_8
REMARK    2  A    between atoms: C_9  and  C_26
REMARK    3  A    between atoms: C_10  and  C_13
REMARK    4  A    between atoms: N_15  and  C_16
REMARK    5  A    between atoms: C_16  and  C_17
REMARK    6  A    between atoms: C_20  and  S_22
REMARK    7  A    between atoms: S_22  and  N_25
REMARK                            x       y       z     vdW  Elec       q    Type
REMARK                         _______ _______ _______ _____ _____    ______ ____
ROOT
ATOM      1  N   UNL     1       7.201  -1.506  -4.838  0.00  0.00    -0.227 N 
ATOM      2  C   UNL     1       7.205  -1.505  -3.493  0.00  0.00    +0.159 A 
ATOM      3  C   UNL     1       5.952  -1.100  -3.077  0.00  0.00    +0.086 A 
ATOM      4  C   UNL     1       5.188  -0.846  -4.239  0.00  0.00    +0.148 A 
ATOM      5  N   UNL     1       5.939  -1.090  -5.278  0.00  0.00    -0.174 NA
ENDROOT
BRANCH   1   8
ATOM      6  C   UNL     1      10.639  -1.911  -6.083  0.00  0.00    +0.003 A 
ATOM      7  C   UNL     1       9.577  -1.557  -5.273  0.00  0.00    +0.028 A 
ATOM      8  C   UNL     1       8.279  -1.859  -5.661  0.00  0.00    +0.067 A 
ATOM      9  C   UNL     1       8.050  -2.507  -6.868  0.00  0.00    +0.047 A 
ATOM     10  C   UNL     1       9.116  -2.854  -7.676  0.00  0.00    +0.043 A 
ATOM     11  C   UNL     1      10.410  -2.557  -7.284  0.00  0.00    +0.020 A 
ATOM     12 CL   UNL     1       8.832  -3.664  -9.186  0.00  0.00    -0.083 Cl
ENDBRANCH   1   8
BRANCH   3  13
ATOM     13  C   UNL     1       5.498  -0.954  -1.682  0.00  0.00    +0.248 C 
ATOM     14  O   UNL     1       6.258  -1.205  -0.766  0.00  0.00    -0.270 OA
ATOM     15  N   UNL     1       4.242  -0.541  -1.422  0.00  0.00    -0.307 N 
ATOM     16  H   UNL     1       3.555  -0.313  -2.251  0.00  0.00    +0.149 HD
BRANCH  15  17
ATOM     17  C   UNL     1       3.791  -0.395  -0.036  0.00  0.00    +0.147 C 
BRANCH  17  18
ATOM     18  C   UNL     1       2.360   0.076  -0.020  0.00  0.00    +0.009 A 
ATOM     19  C   UNL     1       1.220  -0.658  -0.013  0.00  0.00    +0.015 A 
ATOM     20  C   UNL     1       0.002  -0.004   0.002  0.00  0.00    +0.036 A 
ATOM     21  C   UNL     1      -0.016   1.351   0.009  0.00  0.00    +0.142 A 
ATOM     22  S   UNL     1       1.725   1.744  -0.005  0.00  0.00    -0.072 S 
BRANCH  21  23
ATOM     23  S   UNL     1      -1.400   2.442   0.022  0.00  0.00    +0.062 S 
ATOM     24  O   UNL     1      -0.951   3.675  -0.524  0.00  0.00    -0.153 OA
ATOM     25  O   UNL     1      -2.493   1.719  -0.527  0.00  0.00    -0.153 OA
BRANCH  23  26
ATOM     26  N   UNL     1      -1.776   2.737   1.608  0.00  0.00    -0.203 NA
ATOM     27  H   UNL     1      -2.639   3.417   1.659  0.00  0.00    +0.144 HD
ATOM     28  H   UNL     1      -0.914   3.200   2.110  0.00  0.00    +0.144 HD
ENDBRANCH  23  26
ENDBRANCH  21  23
ENDBRANCH  17  18
ENDBRANCH  15  17
ENDBRANCH   3  13
BRANCH   2  29
ATOM     29  C   UNL     1       8.362  -1.880  -2.604  0.00  0.00    +0.435 C 
ATOM     30  F   UNL     1       9.126  -0.741  -2.328  0.00  0.00    -0.164 F 
ATOM     31  F   UNL     1       7.876  -2.417  -1.407  0.00  0.00    -0.164 F 
ATOM     32  F   UNL     1       9.159  -2.831  -3.252  0.00  0.00    -0.164 F 
ENDBRANCH   2  29
TORSDOF 7
