REMARK  Name = ZINC67253205
REMARK  7 active torsions:
REMARK  status: ('A' for Active; 'I' for Inactive)
REMARK    1  A    between atoms: C_1  and  N_2
REMARK    2  A    between atoms: C_4  and  C_11
REMARK    3  A    between atoms: N_7  and  C_10
REMARK    4  A    between atoms: C_11  and  N_12
REMARK    5  A    between atoms: N_12  and  C_13
REMARK    6  A    between atoms: C_13  and  C_14
REMARK    7  A    between atoms: N_18  and  C_20
REMARK                            x       y       z     vdW  Elec       q    Type
REMARK                         _______ _______ _______ _____ _____    ______ ____
ROOT
ATOM      1  N   UNL     1      -2.811  -3.178  -1.381  0.00  0.00    +0.382 N 
ATOM      2  H   UNL     1      -2.930  -2.334  -1.922  0.00  0.00    -0.085 HD
ATOM      3  H   UNL     1      -2.079  -3.739  -1.791  0.00  0.00    -0.085 HD
ENDROOT
BRANCH   1   4
ATOM      4  C   UNL     1      -2.448  -2.829  -0.002  0.00  0.00    -0.040 C 
BRANCH   4   8
ATOM      5  C   UNL     1      -0.018   1.461   0.010  0.00  0.00    +0.153 C 
ATOM      6  N   UNL     1       0.002  -0.004   0.002  0.00  0.00    -0.303 N 
ATOM      7  C   UNL     1      -1.177  -0.698   0.004  0.00  0.00    +0.097 A 
ATOM      8  C   UNL     1      -1.159  -2.048  -0.004  0.00  0.00    +0.016 A 
ATOM      9  C   UNL     1       0.087  -2.720  -0.014  0.00  0.00    +0.258 A 
ATOM     10  O   UNL     1       0.129  -3.937  -0.022  0.00  0.00    -0.267 OA
ATOM     11  N   UNL     1       1.227  -2.000  -0.016  0.00  0.00    -0.264 N 
ATOM     12  C   UNL     1       1.180  -0.654  -0.013  0.00  0.00    +0.331 A 
ATOM     13  O   UNL     1       2.216  -0.018  -0.019  0.00  0.00    -0.246 OA
ATOM     14  C   UNL     1       2.522  -2.684  -0.026  0.00  0.00    +0.157 C 
ENDBRANCH   4   8
ENDBRANCH   1   4
BRANCH   1  15
ATOM     15  C   UNL     1      -4.067  -3.940  -1.379  0.00  0.00    -0.077 C 
BRANCH  15  16
ATOM     16  C   UNL     1      -4.446  -4.303  -2.816  0.00  0.00    -0.009 C 
ATOM     17  C   UNL     1      -3.453  -5.343  -3.399  0.00  0.00    +0.022 C 
ATOM     18  C   UNL     1      -4.330  -6.049  -4.463  0.00  0.00    +0.105 C 
ATOM     19  N   UNL     1      -5.673  -6.119  -3.859  0.00  0.00    -0.330 N 
ATOM     20  C   UNL     1      -5.796  -5.050  -2.853  0.00  0.00    +0.106 C 
BRANCH  19  21
ATOM     21  C   UNL     1      -6.668  -7.045  -4.189  0.00  0.00    +0.030 A 
ATOM     22  C   UNL     1      -7.899  -7.002  -3.547  0.00  0.00    +0.026 A 
ATOM     23  C   UNL     1      -8.880  -7.917  -3.875  0.00  0.00    +0.040 A 
ATOM     24  C   UNL     1      -8.636  -8.878  -4.842  0.00  0.00    +0.124 A 
ATOM     25  C   UNL     1      -7.410  -8.923  -5.483  0.00  0.00    +0.040 A 
ATOM     26  C   UNL     1      -6.428  -8.006  -5.162  0.00  0.00    +0.026 A 
ATOM     27  F   UNL     1      -9.597  -9.773  -5.160  0.00  0.00    -0.205 F 
ENDBRANCH  19  21
ENDBRANCH  15  16
ENDBRANCH   1  15
TORSDOF 5
