REMARK  Name = ZINC61821580
REMARK  4 active torsions:
REMARK  status: ('A' for Active; 'I' for Inactive)
REMARK    1  A    between atoms: C_1  and  C_2
REMARK    2  A    between atoms: C_5  and  C_19
REMARK    3  A    between atoms: C_6  and  N_8
REMARK    4  A    between atoms: C_19  and  N_21
REMARK                            x       y       z     vdW  Elec       q    Type
REMARK                         _______ _______ _______ _____ _____    ______ ____
ROOT
ATOM      1  C   UNL     1      -2.344  -0.707  -1.472  0.00  0.00    +0.065 C 
ATOM      2  C   UNL     1      -1.096  -1.046  -0.697  0.00  0.00    +0.040 A 
ATOM      3  C   UNL     1       0.139  -0.694  -1.211  0.00  0.00    +0.024 A 
ATOM      4  C   UNL     1       1.286  -1.005  -0.502  0.00  0.00    +0.015 A 
ATOM      5  C   UNL     1       1.151  -1.671   0.722  0.00  0.00    +0.043 A 
ATOM      6  C   UNL     1      -0.139  -1.995   1.177  0.00  0.00    +0.131 A 
ATOM      7  N   UNL     1      -1.203  -1.669   0.460  0.00  0.00    -0.237 NA
ENDROOT
BRANCH   6   8
ATOM      8  N   UNL     1      -0.298  -2.654   2.384  0.00  0.00    -0.315 N 
ATOM      9  C   UNL     1      -0.226  -4.120   2.451  0.00  0.00    +0.107 C 
ATOM     10  C   UNL     1      -1.492  -4.644   3.135  0.00  0.00    +0.026 C 
ATOM     11  C   UNL     1      -1.655  -3.959   4.494  0.00  0.00    -0.026 C 
ATOM     12  C   UNL     1      -2.902  -4.505   5.193  0.00  0.00    +0.007 C 
ATOM     13  C   UNL     1      -2.754  -6.014   5.397  0.00  0.00    +0.001 C 
ATOM     14  C   UNL     1      -1.523  -6.293   6.260  0.00  0.00    +0.000 C 
ATOM     15  C   UNL     1      -0.276  -5.749   5.561  0.00  0.00    +0.001 C 
ATOM     16  C   UNL     1      -0.423  -4.239   5.357  0.00  0.00    +0.007 C 
ATOM     17  C   UNL     1      -1.804  -2.450   4.292  0.00  0.00    +0.026 C 
ATOM     18  C   UNL     1      -0.535  -1.900   3.623  0.00  0.00    +0.107 C 
ENDBRANCH   6   8
BRANCH   5  19
ATOM     19  C   UNL     1       2.338  -2.026   1.517  0.00  0.00    +0.080 C 
ATOM     20  S   UNL     1       2.152  -2.690   3.084  0.00  0.00    -0.035 S 
BRANCH  19  21
ATOM     21  N   UNL     1       3.572  -1.828   1.012  0.00  0.00    -0.352 N 
ATOM     22  H   UNL     1       3.677  -1.452   0.124  0.00  0.00    +0.143 HD
ATOM     23  H   UNL     1       4.354  -2.062   1.536  0.00  0.00    +0.143 HD
ENDBRANCH  19  21
ENDBRANCH   5  19
TORSDOF 3
