REMARK  Name = ZINC08740518
REMARK  10 active torsions:
REMARK  status: ('A' for Active; 'I' for Inactive)
REMARK    1  A    between atoms: C_1  and  O_2
REMARK    2  A    between atoms: O_2  and  C_3
REMARK    3  A    between atoms: C_5  and  C_10
REMARK    4  A    between atoms: C_8  and  O_9
REMARK    5  A    between atoms: N_11  and  N_12
REMARK    6  A    between atoms: N_21  and  C1*_22
REMARK    7  A    between atoms: C2*_24  and  O2*_34
REMARK    8  A    between atoms: C3*_26  and  O3*_33
REMARK    9  A    between atoms: C4*_28  and  C5*_31
REMARK   10  A    between atoms: C5*_31  and  O5*_32
REMARK                            x       y       z     vdW  Elec       q    Type
REMARK                         _______ _______ _______ _____ _____    ______ ____
ROOT
ATOM      1  N   UNL     1       3.633   0.471   6.203  0.00  0.00    -0.206 N 
ATOM      2  C   UNL     1       4.265  -0.158   7.256  0.00  0.00    +0.220 A 
ATOM      3  N   UNL     1       4.382  -1.455   7.399  0.00  0.00    -0.208 NA
ATOM      4  C   UNL     1       5.058  -1.723   8.544  0.00  0.00    +0.149 A 
ATOM      5  C   UNL     1       5.468  -2.899   9.194  0.00  0.00    +0.147 A 
ATOM      6  N   UNL     1       6.134  -2.791  10.339  0.00  0.00    -0.219 NA
ATOM      7  C   UNL     1       6.408  -1.610  10.861  0.00  0.00    +0.225 A 
ATOM      8  N   UNL     1       6.043  -0.482  10.288  0.00  0.00    -0.216 NA
ATOM      9  C   UNL     1       5.373  -0.491   9.140  0.00  0.00    +0.169 A 
ATOM     10  N   UNL     1       4.868   0.479   8.307  0.00  0.00    -0.266 N 
ATOM     11  N   UNL     1       5.185  -4.143   8.653  0.00  0.00    -0.341 N 
ATOM     12  H   UNL     1       3.593   1.439   6.170  0.00  0.00    +0.177 HD
ATOM     13  H   UNL     1       4.698  -4.209   7.817  0.00  0.00    +0.144 HD
ATOM     14  H   UNL     1       5.474  -4.948   9.111  0.00  0.00    +0.144 HD
ENDROOT
BRANCH  10  15
ATOM     15  C1* UNL     1       4.956   1.927   8.508  0.00  0.00    +0.255 C 
ATOM     16  C2* UNL     1       5.983   2.545   7.527  0.00  0.00    +0.195 C 
ATOM     17  C3* UNL     1       5.465   4.007   7.439  0.00  0.00    +0.178 C 
ATOM     18  C4* UNL     1       3.937   3.821   7.560  0.00  0.00    +0.177 C 
ATOM     19  O4* UNL     1       3.703   2.552   8.185  0.00  0.00    -0.346 OA
BRANCH  17  20
ATOM     20  O3* UNL     1       5.973   4.792   8.520  0.00  0.00    -0.386 OA
ATOM     21  H3* UNL     1       5.678   5.713   8.510  0.00  0.00    +0.210 HD
ENDBRANCH  17  20
BRANCH  16  22
ATOM     22  O2* UNL     1       7.305   2.498   8.067  0.00  0.00    -0.385 OA
ATOM     23  H2* UNL     1       7.981   2.874   7.487  0.00  0.00    +0.210 HD
ENDBRANCH  16  22
BRANCH  18  24
ATOM     24  C5* UNL     1       3.345   4.940   8.419  0.00  0.00    +0.190 C 
BRANCH  24  25
ATOM     25  O5* UNL     1       1.920   4.828   8.430  0.00  0.00    -0.392 OA
ATOM     26  H5* UNL     1       1.476   5.507   8.957  0.00  0.00    +0.210 HD
ENDBRANCH  24  25
ENDBRANCH  18  24
ENDBRANCH  10  15
BRANCH   1  28
ATOM     27  C   UNL     1       2.455   0.302   4.190  0.00  0.00    +0.138 C 
ATOM     28  N   UNL     1       3.049  -0.290   5.181  0.00  0.00    -0.188 NA
BRANCH  27  31
ATOM     29  C   UNL     1       0.626  -0.619   1.042  0.00  0.00    +0.162 A 
ATOM     30  C   UNL     1       1.200   0.137   2.048  0.00  0.00    +0.058 A 
ATOM     31  C   UNL     1       1.840  -0.498   3.115  0.00  0.00    -0.002 A 
ATOM     32  C   UNL     1       1.897  -1.894   3.161  0.00  0.00    +0.013 A 
ATOM     33  C   UNL     1       1.322  -2.640   2.154  0.00  0.00    +0.050 A 
ATOM     34  C   UNL     1       0.682  -2.010   1.097  0.00  0.00    +0.158 A 
BRANCH  29  36
ATOM     35  C   UNL     1      -0.017   1.425   0.010  0.00  0.00    +0.277 C 
ATOM     36  O   UNL     1       0.002  -0.004   0.002  0.00  0.00    -0.491 OA
ENDBRANCH  29  36
BRANCH  34  37
ATOM     37  O   UNL     1       0.113  -2.751   0.110  0.00  0.00    -0.503 OA
ATOM     38  H   UNL     1       0.709  -2.952  -0.624  0.00  0.00    +0.292 HD
ENDBRANCH  34  37
ENDBRANCH  27  31
ENDBRANCH   1  28
TORSDOF 9
