REMARK  Name = ZINC35449469
REMARK  8 active torsions:
REMARK  status: ('A' for Active; 'I' for Inactive)
REMARK    1  A    between atoms: C_1  and  C_2
REMARK    2  A    between atoms: C_2  and  C_3
REMARK    3  A    between atoms: C_3  and  C_4
REMARK    4  A    between atoms: C_4  and  S_5
REMARK    5  A    between atoms: S_5  and  C_6
REMARK    6  A    between atoms: C_16  and  C_18
REMARK    7  A    between atoms: C_21  and  O_27
REMARK    8  A    between atoms: C_22  and  N_24
REMARK                            x       y       z     vdW  Elec       q    Type
REMARK                         _______ _______ _______ _____ _____    ______ ____
ROOT
ATOM      1  C   UNL     1       1.529  -4.368  -2.621  0.00  0.00    +0.194 A 
ATOM      2  N   UNL     1       0.933  -4.908  -1.567  0.00  0.00    -0.183 NA
ATOM      3  C   UNL     1       0.867  -6.231  -1.426  0.00  0.00    +0.280 A 
ATOM      4  O   UNL     1       0.258  -6.783  -0.348  0.00  0.00    -0.265 OA
ATOM      5  C   UNL     1       1.433  -7.028  -2.401  0.00  0.00    +0.075 A 
ATOM      6  C   UNL     1       2.056  -6.438  -3.506  0.00  0.00    +0.165 A 
ATOM      7  N   UNL     1       2.077  -5.101  -3.577  0.00  0.00    -0.202 NA
ATOM      8  N   UNL     1       2.618  -7.192  -4.477  0.00  0.00    -0.232 NA
ATOM      9  C   UNL     1       2.646  -8.498  -4.501  0.00  0.00    +0.051 C 
ATOM     10  C   UNL     1       2.069  -9.269  -3.471  0.00  0.00    +0.028 C 
ATOM     11  C   UNL     1       1.404  -8.536  -2.320  0.00  0.00    +0.093 C 
ATOM     12  C   UNL     1       2.091 -10.609  -3.484  0.00  0.00    +0.162 C 
ATOM     13  O   UNL     1       1.519 -11.289  -2.468  0.00  0.00    -0.292 OA
ATOM     14  C   UNL     1       2.740 -11.372  -4.608  0.00  0.00    +0.080 C 
ATOM     15  C   UNL     1       2.648 -10.549  -5.896  0.00  0.00    +0.014 C 
ATOM     16  C   UNL     1       3.318  -9.192  -5.664  0.00  0.00    +0.056 C 
ENDROOT
BRANCH  11  17
ATOM     17  C   UNL     1       2.082  -8.953  -1.040  0.00  0.00    -0.033 A 
ATOM     18  C   UNL     1       3.402  -8.608  -0.815  0.00  0.00    +0.008 A 
ATOM     19  C   UNL     1       4.027  -8.989   0.357  0.00  0.00    +0.048 A 
ATOM     20  C   UNL     1       3.328  -9.717   1.309  0.00  0.00    +0.147 A 
ATOM     21  C   UNL     1       2.003 -10.062   1.081  0.00  0.00    +0.168 A 
ATOM     22  C   UNL     1       1.382  -9.674  -0.091  0.00  0.00    +0.041 A 
BRANCH  21  23
ATOM     23  N   UNL     1       1.255 -10.839   2.094  0.00  0.00    +0.060 N 
ATOM     24  O   UNL     1       0.101 -11.139   1.894  0.00  0.00    -0.126 OA
ATOM     25  O   UNL     1       1.798 -11.175   3.120  0.00  0.00    -0.126 OA
ENDBRANCH  21  23
BRANCH  20  26
ATOM     26  O   UNL     1       3.940 -10.093   2.462  0.00  0.00    -0.504 OA
ATOM     27  H   UNL     1       3.856  -9.450   3.180  0.00  0.00    +0.292 HD
ENDBRANCH  20  26
ENDBRANCH  11  17
BRANCH   1  28
ATOM     28  S   UNL     1       1.588  -2.612  -2.758  0.00  0.00    -0.086 S 
BRANCH  28  29
ATOM     29  C   UNL     1       0.739  -2.027  -1.265  0.00  0.00    +0.077 C 
BRANCH  29  30
ATOM     30  C   UNL     1       0.718  -0.497  -1.257  0.00  0.00    +0.011 C 
BRANCH  30  32
ATOM     31  C   UNL     1      -0.019   1.526   0.010  0.00  0.00    +0.004 C 
ATOM     32  C   UNL     1       0.002  -0.004   0.002  0.00  0.00    -0.003 C 
ENDBRANCH  30  32
ENDBRANCH  29  30
ENDBRANCH  28  29
ENDBRANCH   1  28
TORSDOF 7
