REMARK  Name = ZINC13027679
REMARK  9 active torsions:
REMARK  status: ('A' for Active; 'I' for Inactive)
REMARK    1  A    between atoms: C_1  and  C_2
REMARK    2  A    between atoms: C_5  and  S_22
REMARK    3  A    between atoms: C_7  and  N_8
REMARK    4  A    between atoms: N_8  and  S_9
REMARK    5  A    between atoms: S_9  and  C_12
REMARK    6  A    between atoms: C_14  and  C_19
REMARK    7  A    between atoms: C_17  and  C_18
REMARK    8  A    between atoms: S_22  and  N_25
REMARK    9  A    between atoms: N_25  and  C_26
REMARK                            x       y       z     vdW  Elec       q    Type
REMARK                         _______ _______ _______ _____ _____    ______ ____
ROOT
ATOM      1  C   UNL     1       0.159   2.021   0.407  0.00  0.00    +0.046 C 
ATOM      2  C   UNL     1       0.249   0.539   0.146  0.00  0.00    -0.028 A 
ATOM      3  C   UNL     1       0.406   0.073  -1.145  0.00  0.00    +0.007 A 
ATOM      4  C   UNL     1       0.488  -1.286  -1.385  0.00  0.00    +0.029 A 
ATOM      5  C   UNL     1       0.414  -2.183  -0.335  0.00  0.00    +0.112 A 
ATOM      6  C   UNL     1       0.259  -1.724   0.958  0.00  0.00    +0.053 A 
ATOM      7  C   UNL     1       0.181  -0.359   1.204  0.00  0.00    +0.053 A 
ENDROOT
BRANCH   5   8
ATOM      8  S   UNL     1       0.519  -3.914  -0.647  0.00  0.00    +0.092 S 
ATOM      9  O   UNL     1      -0.123  -4.563   0.442  0.00  0.00    -0.148 OA
ATOM     10  O   UNL     1       0.116  -4.109  -1.996  0.00  0.00    -0.148 OA
BRANCH   8  11
ATOM     11  N   UNL     1       2.120  -4.330  -0.568  0.00  0.00    -0.098 NA
BRANCH  11  12
ATOM     12  C   UNL     1       2.509  -5.656  -0.777  0.00  0.00    +0.074 A 
ATOM     13  C   UNL     1       1.555  -6.625  -1.057  0.00  0.00    +0.028 A 
ATOM     14  C   UNL     1       1.942  -7.934  -1.264  0.00  0.00    +0.022 A 
ATOM     15  C   UNL     1       3.280  -8.281  -1.192  0.00  0.00    +0.041 A 
ATOM     16  C   UNL     1       4.233  -7.318  -0.913  0.00  0.00    +0.022 A 
ATOM     17  C   UNL     1       3.852  -6.006  -0.711  0.00  0.00    +0.028 A 
ATOM     18 CL   UNL     1       3.763  -9.928  -1.451  0.00  0.00    -0.084 Cl
ENDBRANCH  11  12
ENDBRANCH   8  11
ENDBRANCH   5   8
BRANCH   7  19
ATOM     19  N   UNL     1       0.028   0.109   2.511  0.00  0.00    -0.216 N 
ATOM     20  H   UNL     1      -0.511   0.897   2.684  0.00  0.00    +0.174 HD
BRANCH  19  21
ATOM     21  S   UNL     1       0.768  -0.680   3.765  0.00  0.00    +0.073 S 
ATOM     22  O   UNL     1       0.546   0.107   4.927  0.00  0.00    -0.150 OA
ATOM     23  O   UNL     1       0.370  -2.041   3.679  0.00  0.00    -0.150 OA
BRANCH  21  24
ATOM     24  C   UNL     1       2.502  -0.641   3.454  0.00  0.00    +0.112 A 
ATOM     25  C   UNL     1       3.187  -1.817   3.228  0.00  0.00    +0.044 A 
ATOM     26  C   UNL     1       4.561  -1.785   2.981  0.00  0.00    +0.065 A 
ATOM     27  C   UNL     1       5.233  -0.559   2.965  0.00  0.00    +0.015 A 
ATOM     28  C   UNL     1       4.535   0.608   3.193  0.00  0.00    +0.006 A 
ATOM     29  C   UNL     1       3.172   0.569   3.431  0.00  0.00    -0.024 A 
ATOM     30  C   UNL     1       2.416   1.850   3.673  0.00  0.00    +0.046 C 
BRANCH  26  31
ATOM     31  C   UNL     1       5.301  -3.038   2.739  0.00  0.00    +0.387 C 
ATOM     32  O   UNL     1       4.710  -4.109   2.753  0.00  0.00    -0.241 OA
ATOM     33  O   UNL     1       6.504  -3.006   2.523  0.00  0.00    -0.241 OA
ENDBRANCH  26  31
ENDBRANCH  21  24
ENDBRANCH  19  21
ENDBRANCH   7  19
TORSDOF 7
