REMARK  Name = ZINC09970426
REMARK  22 active torsions:
REMARK  status: ('A' for Active; 'I' for Inactive)
REMARK    1  A    between atoms: C_1  and  C_2
REMARK    2  A    between atoms: C_2  and  C_32
REMARK    3  A    between atoms: C_3  and  C_30
REMARK    4  A    between atoms: C_3  and  O_31
REMARK    5  A    between atoms: C_4  and  C_28
REMARK    6  A    between atoms: C_4  and  O_29
REMARK    7  A    between atoms: C_5  and  C_26
REMARK    8  A    between atoms: C_5  and  O_27
REMARK    9  A    between atoms: C_6  and  C_8
REMARK   10  A    between atoms: C_6  and  O_9
REMARK   11  A    between atoms: O_9  and  C_10
REMARK   12  A    between atoms: C_10  and  C_25
REMARK   13  A    between atoms: C_11  and  C_23
REMARK   14  A    between atoms: C_11  and  O_24
REMARK   15  A    between atoms: C_12  and  C_21
REMARK   16  A    between atoms: C_12  and  O_22
REMARK   17  A    between atoms: C_13  and  C_19
REMARK   18  A    between atoms: C_13  and  O_20
REMARK   19  A    between atoms: C_14  and  C_16
REMARK   20  A    between atoms: C_14  and  C_17
REMARK   21  A    between atoms: C_17  and  O_18
REMARK   22  A    between atoms: C_32  and  O_33
REMARK                            x       y       z     vdW  Elec       q    Type
REMARK                         _______ _______ _______ _____ _____    ______ ____
ROOT
ATOM      1  O   UNL     1       2.945  -1.377   2.187  0.00  0.00    -0.312 OA
ENDROOT
BRANCH   1   7
ATOM      2  C   UNL     1      -1.319   0.183   1.605  0.00  0.00    +0.047 C 
ATOM      3  C   UNL     1      -0.610  -1.176   1.573  0.00  0.00    +0.124 C 
ATOM      4  C   UNL     1      -0.601  -1.740   0.158  0.00  0.00    +0.125 C 
ATOM      5  C   UNL     1       0.557  -1.227  -0.689  0.00  0.00    +0.128 C 
ATOM      6  C   UNL     1       1.886  -1.339   0.047  0.00  0.00    +0.147 C 
ATOM      7  C   UNL     1       1.838  -0.780   1.463  0.00  0.00    +0.202 C 
ATOM      8  O   UNL     1       0.662  -1.096   2.161  0.00  0.00    -0.335 OA
ATOM      9  C   UNL     1       2.093   0.731   1.457  0.00  0.00    +0.077 C 
ATOM     10  C   UNL     1       2.959  -0.578  -0.750  0.00  0.00    +0.050 C 
ATOM     11  C   UNL     1       0.306   0.189  -1.200  0.00  0.00    +0.047 C 
ATOM     12  C   UNL     1      -1.924  -1.366  -0.532  0.00  0.00    +0.047 C 
BRANCH   6  13
ATOM     13  O   UNL     1       2.276  -2.720   0.105  0.00  0.00    -0.381 OA
ATOM     14  H   UNL     1       3.115  -2.874   0.560  0.00  0.00    +0.211 HD
ENDBRANCH   6  13
BRANCH   5  15
ATOM     15  O   UNL     1       0.643  -2.084  -1.855  0.00  0.00    -0.383 OA
ATOM     16  H   UNL     1       1.353  -1.845  -2.467  0.00  0.00    +0.210 HD
ENDBRANCH   5  15
BRANCH   4  17
ATOM     17  O   UNL     1      -0.530  -3.173   0.229  0.00  0.00    -0.383 OA
ATOM     18  H   UNL     1      -1.271  -3.580   0.700  0.00  0.00    +0.210 HD
ENDBRANCH   4  17
BRANCH   3  19
ATOM     19  C   UNL     1      -1.464  -2.139   2.438  0.00  0.00    +0.193 C 
BRANCH  19  20
ATOM     20  O   UNL     1      -1.666  -1.565   3.731  0.00  0.00    -0.392 OA
ATOM     21  H   UNL     1      -2.248  -2.082   4.305  0.00  0.00    +0.210 HD
ENDBRANCH  19  20
ENDBRANCH   3  19
ENDBRANCH   1   7
BRANCH   1  22
ATOM     22  C   UNL     1       2.812  -1.308   3.630  0.00  0.00    +0.202 C 
ATOM     23  C   UNL     1       4.151  -1.735   4.216  0.00  0.00    +0.147 C 
ATOM     24  C   UNL     1       4.053  -2.198   5.665  0.00  0.00    +0.128 C 
ATOM     25  C   UNL     1       2.924  -3.201   5.860  0.00  0.00    +0.125 C 
ATOM     26  C   UNL     1       1.603  -2.753   5.247  0.00  0.00    +0.124 C 
ATOM     27  O   UNL     1       1.740  -2.138   3.992  0.00  0.00    -0.335 OA
ATOM     28  C   UNL     1       0.837  -1.851   6.223  0.00  0.00    +0.047 C 
ATOM     29  C   UNL     1       2.717  -3.428   7.367  0.00  0.00    +0.047 C 
ATOM     30  C   UNL     1       3.945  -1.023   6.632  0.00  0.00    +0.047 C 
ATOM     31  C   UNL     1       5.126  -0.549   4.140  0.00  0.00    +0.050 C 
ATOM     32  C   UNL     1       2.518   0.159   3.965  0.00  0.00    +0.077 C 
BRANCH  25  33
ATOM     33  O   UNL     1       3.305  -4.456   5.274  0.00  0.00    -0.383 OA
ATOM     34  H   UNL     1       2.636  -5.149   5.358  0.00  0.00    +0.210 HD
ENDBRANCH  25  33
BRANCH  24  35
ATOM     35  O   UNL     1       5.291  -2.885   5.976  0.00  0.00    -0.383 OA
ATOM     36  H   UNL     1       6.081  -2.335   5.882  0.00  0.00    +0.210 HD
ENDBRANCH  24  35
BRANCH  23  37
ATOM     37  O   UNL     1       4.689  -2.802   3.418  0.00  0.00    -0.381 OA
ATOM     38  H   UNL     1       4.840  -2.563   2.494  0.00  0.00    +0.211 HD
ENDBRANCH  23  37
BRANCH  26  39
ATOM     39  C   UNL     1       0.739  -4.025   5.052  0.00  0.00    +0.193 C 
BRANCH  39  40
ATOM     40  O   UNL     1      -0.558  -3.652   4.582  0.00  0.00    -0.392 OA
ATOM     41  H   UNL     1      -1.177  -4.391   4.510  0.00  0.00    +0.210 HD
ENDBRANCH  39  40
ENDBRANCH  26  39
ENDBRANCH   1  22
TORSDOF 12
