REMARK  Name = ZINC16323555
REMARK  7 active torsions:
REMARK  status: ('A' for Active; 'I' for Inactive)
REMARK    1  A    between atoms: C_1  and  C_2
REMARK    2  A    between atoms: C_2  and  C_4
REMARK    3  A    between atoms: C_2  and  S_19
REMARK    4  A    between atoms: N_6  and  C_7
REMARK    5  A    between atoms: C_8  and  C_17
REMARK    6  A    between atoms: S_19  and  C_20
REMARK    7  A    between atoms: N_33  and  C_34
REMARK                            x       y       z     vdW  Elec       q    Type
REMARK                         _______ _______ _______ _____ _____    ______ ____
ROOT
ATOM      1  C   UNL     1       3.801   3.141   1.290  0.00  0.00    +0.029 C 
ATOM      2  C   UNL     1       4.268   2.513  -0.025  0.00  0.00    +0.137 C 
ENDROOT
BRANCH   2   3
ATOM      3  C   UNL     1       5.759   2.683  -0.162  0.00  0.00    +0.231 C 
ATOM      4  O   UNL     1       6.502   1.763   0.106  0.00  0.00    -0.274 OA
ATOM      5  N   UNL     1       6.267   3.859  -0.582  0.00  0.00    -0.278 N 
ATOM      6  H   UNL     1       5.673   4.595  -0.796  0.00  0.00    +0.155 HD
BRANCH   5   7
ATOM      7  C   UNL     1       7.640   4.016  -0.707  0.00  0.00    +0.090 A 
ATOM      8  C   UNL     1       8.345   5.135  -1.119  0.00  0.00    +0.084 A 
ATOM      9  C   UNL     1       9.797   5.044  -1.164  0.00  0.00    -0.018 A 
ATOM     10  C   UNL     1      10.304   3.846  -0.799  0.00  0.00    -0.004 A 
ATOM     11  S   UNL     1       8.890   2.863  -0.381  0.00  0.00    -0.077 S 
ATOM     12  C   UNL     1      11.742   3.435  -0.754  0.00  0.00    +0.043 C 
ATOM     13  C   UNL     1      12.551   4.506  -0.008  0.00  0.00    +0.005 C 
ATOM     14  C   UNL     1      13.029   5.543  -1.020  0.00  0.00    +0.001 C 
ATOM     15  C   UNL     1      11.999   5.702  -2.137  0.00  0.00    +0.005 C 
ATOM     16  C   UNL     1      10.679   6.217  -1.576  0.00  0.00    +0.037 C 
BRANCH   8  17
ATOM     17  C   UNL     1       7.667   6.342  -1.488  0.00  0.00    +0.102 C 
ATOM     18  N   UNL     1       7.130   7.299  -1.780  0.00  0.00    -0.191 NA
ENDBRANCH   8  17
ENDBRANCH   5   7
ENDBRANCH   2   3
BRANCH   2  19
ATOM     19  S   UNL     1       3.858   0.746  -0.030  0.00  0.00    -0.073 S 
BRANCH  19  20
ATOM     20  C   UNL     1       2.097   0.716  -0.014  0.00  0.00    +0.198 A 
ATOM     21  N   UNL     1       1.309   1.764  -0.001  0.00  0.00    -0.120 NA
ATOM     22  N   UNL     1      -0.016   1.310   0.009  0.00  0.00    -0.109 NA
ATOM     23  C   UNL     1       0.002  -0.004   0.002  0.00  0.00    +0.240 A 
ATOM     24  N   UNL     1       1.310  -0.404  -0.013  0.00  0.00    -0.256 N 
ATOM     25  C   UNL     1       1.637  -1.759  -0.023  0.00  0.00    +0.064 A 
ATOM     26  C   UNL     1       2.959  -2.175  -0.038  0.00  0.00    +0.027 A 
ATOM     27  C   UNL     1       3.255  -3.523  -0.049  0.00  0.00    +0.002 A 
ATOM     28  C   UNL     1       2.241  -4.468  -0.044  0.00  0.00    +0.001 A 
ATOM     29  C   UNL     1       0.920  -4.072  -0.029  0.00  0.00    +0.015 A 
ATOM     30  C   UNL     1       0.609  -2.714  -0.018  0.00  0.00    +0.064 A 
ATOM     31  C   UNL     1      -0.791  -2.249  -0.002  0.00  0.00    +0.263 A 
ATOM     32  O   UNL     1      -1.708  -3.049   0.002  0.00  0.00    -0.267 OA
ATOM     33  N   UNL     1      -1.036  -0.923   0.007  0.00  0.00    -0.280 N 
ATOM     34  C   UNL     1      -2.421  -0.447   0.024  0.00  0.00    +0.155 C 
ENDBRANCH  19  20
ENDBRANCH   2  19
TORSDOF 5
