REMARK  Name = ZINC36313504
REMARK  13 active torsions:
REMARK  status: ('A' for Active; 'I' for Inactive)
REMARK    1  A    between atoms: C_1  and  C_2
REMARK    2  A    between atoms: C_5  and  S_8
REMARK    3  A    between atoms: S_8  and  N_11
REMARK    4  A    between atoms: N_11  and  C_12
REMARK    5  A    between atoms: N_11  and  C_17
REMARK    6  A    between atoms: C_12  and  C_13
REMARK    7  A    between atoms: C_13  and  C_14
REMARK    8  A    between atoms: C_14  and  C_15
REMARK    9  A    between atoms: C_14  and  C_16
REMARK   10  A    between atoms: C_17  and  C_18
REMARK   11  A    between atoms: C_19  and  C_30
REMARK   12  A    between atoms: C_22  and  N_23
REMARK   13  A    between atoms: N_26  and  C_29
REMARK                            x       y       z     vdW  Elec       q    Type
REMARK                         _______ _______ _______ _____ _____    ______ ____
ROOT
ATOM      1  C   UNL     1       3.015  -4.274  -2.071  0.00  0.00    +0.057 A 
ATOM      2  C   UNL     1       2.364  -3.468  -3.028  0.00  0.00    +0.120 A 
ATOM      3  N   UNL     1       3.214  -2.551  -3.430  0.00  0.00    -0.076 NA
ATOM      4  O   UNL     1       4.433  -2.750  -2.738  0.00  0.00    -0.339 OA
ATOM      5  C   UNL     1       4.278  -3.801  -1.915  0.00  0.00    +0.225 A 
ENDROOT
BRANCH   5   6
ATOM      6  N   UNL     1       5.238  -4.314  -1.062  0.00  0.00    -0.303 N 
ATOM      7  C   UNL     1       6.036  -5.490  -1.440  0.00  0.00    +0.089 C 
ATOM      8  C   UNL     1       7.516  -5.165  -1.219  0.00  0.00    -0.060 C 
ATOM      9  N   UNL     1       7.717  -4.716   0.165  0.00  0.00    +0.380 N 
ATOM     10  C   UNL     1       6.997  -3.456   0.391  0.00  0.00    -0.060 C 
ATOM     11  C   UNL     1       5.494  -3.694   0.247  0.00  0.00    +0.089 C 
ATOM     12  C   UNL     1       9.151  -4.509   0.408  0.00  0.00    -0.096 C 
ATOM     13  H   UNL     1       7.369  -5.419   0.799  0.00  0.00    -0.082 HD
ENDBRANCH   5   6
BRANCH   2  14
ATOM     14  C   UNL     1       0.965  -3.628  -3.498  0.00  0.00    +0.004 A 
ATOM     15  C   UNL     1       0.478  -4.891  -3.827  0.00  0.00    +0.010 A 
ATOM     16  C   UNL     1      -0.824  -5.034  -4.263  0.00  0.00    +0.001 A 
ATOM     17  C   UNL     1      -1.644  -3.926  -4.373  0.00  0.00    +0.000 A 
ATOM     18  C   UNL     1      -1.166  -2.670  -4.048  0.00  0.00    +0.001 A 
ATOM     19  C   UNL     1       0.132  -2.516  -3.606  0.00  0.00    +0.010 A 
ENDBRANCH   2  14
BRANCH   1  20
ATOM     20  C   UNL     1       2.413  -5.449  -1.345  0.00  0.00    +0.152 C 
BRANCH  20  21
ATOM     21  N   UNL     1       1.934  -5.016  -0.029  0.00  0.00    -0.172 NA
BRANCH  21  22
ATOM     22  S   UNL     1       2.663  -5.584   1.345  0.00  0.00    +0.061 S 
ATOM     23  O   UNL     1       2.551  -4.555   2.319  0.00  0.00    -0.153 OA
ATOM     24  O   UNL     1       3.916  -6.123   0.947  0.00  0.00    -0.153 OA
BRANCH  22  29
ATOM     25  C   UNL     1      -0.649 -10.215   3.342  0.00  0.00    +0.044 C 
ATOM     26  C   UNL     1       0.178  -9.058   2.844  0.00  0.00    -0.050 A 
ATOM     27  C   UNL     1       1.144  -9.266   1.877  0.00  0.00    +0.005 A 
ATOM     28  C   UNL     1       1.903  -8.205   1.419  0.00  0.00    +0.029 A 
ATOM     29  C   UNL     1       1.695  -6.936   1.928  0.00  0.00    +0.106 A 
ATOM     30  C   UNL     1       0.728  -6.729   2.893  0.00  0.00    +0.029 A 
ATOM     31  C   UNL     1      -0.033  -7.789   3.348  0.00  0.00    +0.005 A 
ENDBRANCH  22  29
ENDBRANCH  21  22
BRANCH  21  32
ATOM     32  C   UNL     1       0.810  -4.082   0.070  0.00  0.00    +0.110 C 
BRANCH  32  33
ATOM     33  C   UNL     1       1.335  -2.646   0.009  0.00  0.00    +0.020 C 
BRANCH  33  34
ATOM     34  C   UNL     1       0.161  -1.669   0.113  0.00  0.00    -0.016 C 
ATOM     35  C   UNL     1      -0.493  -1.803   1.490  0.00  0.00    +0.007 C 
ATOM     36  C   UNL     1       0.670  -0.238  -0.072  0.00  0.00    +0.007 C 
ENDBRANCH  33  34
ENDBRANCH  32  33
ENDBRANCH  21  32
ENDBRANCH  20  21
ENDBRANCH   1  20
TORSDOF 9
