REMARK  Name = ZINC38200395
REMARK  7 active torsions:
REMARK  status: ('A' for Active; 'I' for Inactive)
REMARK    1  A    between atoms: C_1  and  C_2
REMARK    2  A    between atoms: C_4  and  C_19
REMARK    3  A    between atoms: C_7  and  S_8
REMARK    4  A    between atoms: S_8  and  N_11
REMARK    5  A    between atoms: N_11  and  C_12
REMARK    6  A    between atoms: N_21  and  C_22
REMARK    7  A    between atoms: C_25  and  C_28
REMARK                            x       y       z     vdW  Elec       q    Type
REMARK                         _______ _______ _______ _____ _____    ______ ____
ROOT
ATOM      1  C   UNL     1      -0.011   1.502   0.011  0.00  0.00    +0.046 C 
ATOM      2  C   UNL     1       0.013  -0.004   0.003  0.00  0.00    -0.023 A 
ATOM      3  C   UNL     1       0.008  -0.686  -1.197  0.00  0.00    +0.018 A 
ATOM      4  C   UNL     1       0.030  -2.082  -1.203  0.00  0.00    +0.037 A 
ATOM      5  C   UNL     1       0.058  -2.779   0.006  0.00  0.00    +0.015 A 
ATOM      6  C   UNL     1       0.063  -2.085   1.199  0.00  0.00    +0.030 A 
ATOM      7  C   UNL     1       0.046  -0.701   1.198  0.00  0.00    +0.113 A 
ENDROOT
BRANCH   4   8
ATOM      8  C   UNL     1       0.025  -2.818  -2.484  0.00  0.00    +0.248 C 
ATOM      9  O   UNL     1       0.000  -2.209  -3.536  0.00  0.00    -0.270 OA
ATOM     10  N   UNL     1       0.046  -4.166  -2.487  0.00  0.00    -0.282 N 
ATOM     11  H   UNL     1       0.133  -4.651  -1.651  0.00  0.00    +0.155 HD
BRANCH  10  12
ATOM     12  C   UNL     1      -0.055  -4.862  -3.689  0.00  0.00    +0.034 A 
ATOM     13  C   UNL     1      -0.743  -6.071  -3.735  0.00  0.00    +0.024 A 
ATOM     14  C   UNL     1      -0.845  -6.759  -4.916  0.00  0.00    +0.017 A 
ATOM     15  C   UNL     1      -0.258  -6.244  -6.077  0.00  0.00    +0.063 A 
ATOM     16  C   UNL     1       0.432  -5.027  -6.027  0.00  0.00    +0.017 A 
ATOM     17  C   UNL     1       0.526  -4.343  -4.842  0.00  0.00    +0.024 A 
BRANCH  15  18
ATOM     18  C   UNL     1      -0.365  -6.980  -7.347  0.00  0.00    +0.387 C 
ATOM     19  O   UNL     1      -0.968  -8.043  -7.389  0.00  0.00    -0.241 OA
ATOM     20  O   UNL     1       0.149  -6.528  -8.361  0.00  0.00    -0.241 OA
ENDBRANCH  15  18
ENDBRANCH  10  12
ENDBRANCH   4   8
BRANCH   7  21
ATOM     21  S   UNL     1       0.060   0.177   2.725  0.00  0.00    +0.092 S 
ATOM     22  O   UNL     1      -0.982   1.140   2.649  0.00  0.00    -0.148 OA
ATOM     23  O   UNL     1       0.122  -0.800   3.755  0.00  0.00    -0.148 OA
BRANCH  21  24
ATOM     24  N   UNL     1       1.482   1.024   2.790  0.00  0.00    -0.098 NA
BRANCH  24  25
ATOM     25  C   UNL     1       1.771   1.821   3.901  0.00  0.00    +0.074 A 
ATOM     26  C   UNL     1       0.868   1.900   4.954  0.00  0.00    +0.028 A 
ATOM     27  C   UNL     1       1.156   2.689   6.050  0.00  0.00    +0.017 A 
ATOM     28  C   UNL     1       2.342   3.400   6.100  0.00  0.00    +0.018 A 
ATOM     29  C   UNL     1       3.242   3.323   5.053  0.00  0.00    +0.017 A 
ATOM     30  C   UNL     1       2.963   2.531   3.956  0.00  0.00    +0.028 A 
ATOM     31 BR   UNL     1       2.731   4.480   7.603  0.00  0.00    -0.050 Br
ENDBRANCH  24  25
ENDBRANCH  21  24
ENDBRANCH   7  21
TORSDOF 6
