REMARK  Name = ZINC20436204
REMARK  8 active torsions:
REMARK  status: ('A' for Active; 'I' for Inactive)
REMARK    1  A    between atoms: C_2  and  N_9
REMARK    2  A    between atoms: C_10  and  O_12
REMARK    3  A    between atoms: O_12  and  N_13
REMARK    4  A    between atoms: C_14  and  C_16
REMARK    5  A    between atoms: C_16  and  C_17
REMARK    6  A    between atoms: N_18  and  O_19
REMARK    7  A    between atoms: O_19  and  C_20
REMARK    8  A    between atoms: N_22  and  C_23
REMARK                            x       y       z     vdW  Elec       q    Type
REMARK                         _______ _______ _______ _____ _____    ______ ____
ROOT
ATOM      1  C   UNL     1       6.048   8.241  -1.748  0.00  0.00    +0.149 C 
ENDROOT
BRANCH   1   3
ATOM      2  N   UNL     1       3.787   7.463  -1.333  0.00  0.00    -0.062 NA
ATOM      3  C   UNL     1       4.641   7.925  -2.186  0.00  0.00    +0.140 C 
ATOM      4  N   UNL     1       4.266   8.127  -3.494  0.00  0.00    -0.344 N 
ATOM      5  H   UNL     1       3.361   7.923  -3.776  0.00  0.00    +0.144 HD
ATOM      6  H   UNL     1       4.907   8.474  -4.134  0.00  0.00    +0.144 HD
BRANCH   2   7
ATOM      7  O   UNL     1       2.501   7.060  -1.766  0.00  0.00    -0.297 OA
BRANCH   7   9
ATOM      8  N   UNL     1       0.541   5.984  -1.101  0.00  0.00    -0.249 N 
ATOM      9  C   UNL     1       1.748   6.501  -0.800  0.00  0.00    +0.430 C 
ATOM     10  O   UNL     1       2.157   6.463   0.344  0.00  0.00    -0.224 OA
ATOM     11  H   UNL     1       0.260   5.916  -2.027  0.00  0.00    +0.158 HD
BRANCH   8  13
ATOM     12  C   UNL     1      -1.682   5.706  -0.197  0.00  0.00    +0.025 A 
ATOM     13  C   UNL     1      -0.308   5.545  -0.078  0.00  0.00    +0.038 A 
ATOM     14  C   UNL     1       0.223   4.948   1.057  0.00  0.00    +0.044 A 
ATOM     15  C   UNL     1      -0.617   4.515   2.066  0.00  0.00    +0.061 A 
ATOM     16  C   UNL     1      -1.987   4.677   1.944  0.00  0.00    +0.059 A 
ATOM     17  C   UNL     1      -2.518   5.273   0.813  0.00  0.00    +0.023 A 
ATOM     18 CL   UNL     1      -3.040   4.133   3.212  0.00  0.00    -0.082 Cl
ATOM     19 CL   UNL     1       0.045   3.768   3.486  0.00  0.00    -0.082 Cl
ENDBRANCH   8  13
ENDBRANCH   7   9
ENDBRANCH   2   7
ENDBRANCH   1   3
BRANCH   1  20
ATOM     20  C   UNL     1       6.752   6.967  -1.360  0.00  0.00    +0.140 C 
ATOM     21  N   UNL     1       6.165   5.827  -1.526  0.00  0.00    -0.062 NA
ATOM     22  N   UNL     1       8.021   7.016  -0.829  0.00  0.00    -0.344 N 
ATOM     23  H   UNL     1       8.462   7.870  -0.705  0.00  0.00    +0.144 HD
ATOM     24  H   UNL     1       8.474   6.195  -0.580  0.00  0.00    +0.144 HD
BRANCH  21  25
ATOM     25  O   UNL     1       6.778   4.640  -1.059  0.00  0.00    -0.297 OA
BRANCH  25  26
ATOM     26  C   UNL     1       6.115   3.516  -1.387  0.00  0.00    +0.430 C 
ATOM     27  O   UNL     1       5.135   3.575  -2.104  0.00  0.00    -0.224 OA
ATOM     28  N   UNL     1       6.537   2.324  -0.920  0.00  0.00    -0.249 N 
ATOM     29  H   UNL     1       7.245   2.285  -0.259  0.00  0.00    +0.158 HD
BRANCH  28  30
ATOM     30  C   UNL     1       5.953   1.141  -1.390  0.00  0.00    +0.038 A 
ATOM     31  C   UNL     1       4.613   1.124  -1.753  0.00  0.00    +0.044 A 
ATOM     32  C   UNL     1       4.039  -0.044  -2.217  0.00  0.00    +0.061 A 
ATOM     33  C   UNL     1       4.800  -1.197  -2.320  0.00  0.00    +0.059 A 
ATOM     34  C   UNL     1       6.135  -1.181  -1.960  0.00  0.00    +0.023 A 
ATOM     35  C   UNL     1       6.715  -0.014  -1.500  0.00  0.00    +0.025 A 
ATOM     36 CL   UNL     1       4.077  -2.664  -2.903  0.00  0.00    -0.082 Cl
ATOM     37 CL   UNL     1       2.363  -0.068  -2.670  0.00  0.00    -0.082 Cl
ENDBRANCH  28  30
ENDBRANCH  25  26
ENDBRANCH  21  25
ENDBRANCH   1  20
TORSDOF 8
