REMARK  Name = ZINC16491894
REMARK  7 active torsions:
REMARK  status: ('A' for Active; 'I' for Inactive)
REMARK    1  A    between atoms: C_4  and  N_11
REMARK    2  A    between atoms: C_5  and  C_7
REMARK    3  A    between atoms: C_12  and  C_14
REMARK    4  A    between atoms: C_14  and  N_15
REMARK    5  A    between atoms: C_21  and  C_23
REMARK    6  A    between atoms: C_26  and  S_29
REMARK    7  A    between atoms: S_29  and  C_30
REMARK                            x       y       z     vdW  Elec       q    Type
REMARK                         _______ _______ _______ _____ _____    ______ ____
ROOT
ATOM      1  N   UNL     1       7.223  -0.015  -0.029  0.00  0.00    -0.291 NA
ATOM      2  C   UNL     1       7.381   0.898   1.111  0.00  0.00    +0.104 C 
ATOM      3  C   UNL     1       8.344   2.027   0.728  0.00  0.00    +0.123 C 
ATOM      4  N   UNL     1       9.593   1.428   0.234  0.00  0.00    -0.295 N 
ATOM      5  C   UNL     1       9.505   0.402  -0.816  0.00  0.00    +0.123 C 
ATOM      6  C   UNL     1       8.496  -0.663  -0.372  0.00  0.00    +0.104 C 
ATOM      7  C   UNL     1      10.787   1.809   0.730  0.00  0.00    +0.247 C 
ATOM      8  O   UNL     1      10.837   2.584   1.665  0.00  0.00    -0.270 OA
ENDROOT
BRANCH   7   9
ATOM      9  C   UNL     1      12.032   1.287   0.137  0.00  0.00    +0.037 A 
ATOM     10  C   UNL     1      12.091   0.999  -1.230  0.00  0.00    +0.014 A 
ATOM     11  C   UNL     1      13.250   0.513  -1.777  0.00  0.00    +0.016 A 
ATOM     12  C   UNL     1      14.368   0.306  -0.973  0.00  0.00    +0.016 A 
ATOM     13  C   UNL     1      14.313   0.591   0.389  0.00  0.00    +0.016 A 
ATOM     14  C   UNL     1      13.158   1.083   0.941  0.00  0.00    +0.014 A 
BRANCH  12  15
ATOM     15  S   UNL     1      15.856  -0.320  -1.681  0.00  0.00    -0.016 S 
BRANCH  15  16
ATOM     16  C   UNL     1      17.002  -0.418  -0.277  0.00  0.00    +0.448 C 
ATOM     17  F   UNL     1      16.477  -1.279   0.693  0.00  0.00    -0.160 F 
ATOM     18  F   UNL     1      18.236  -0.908  -0.717  0.00  0.00    -0.160 F 
ATOM     19  F   UNL     1      17.175   0.856   0.274  0.00  0.00    -0.160 F 
ENDBRANCH  15  16
ENDBRANCH  12  15
ENDBRANCH   7   9
BRANCH   1  20
ATOM     20  C   UNL     1       6.178  -1.012   0.236  0.00  0.00    +0.180 C 
BRANCH  20  22
ATOM     21  N   UNL     1       3.729  -1.046   0.582  0.00  0.00    -0.284 N 
ATOM     22  C   UNL     1       4.842  -0.324   0.341  0.00  0.00    +0.231 C 
ATOM     23  O   UNL     1       4.767   0.879   0.208  0.00  0.00    -0.274 OA
ATOM     24  H   UNL     1       3.798  -1.996   0.767  0.00  0.00    +0.155 HD
BRANCH  21  28
ATOM     25  C   UNL     1      -0.004   0.802   0.536  0.00  0.00    +0.001 A 
ATOM     26  C   UNL     1       1.047   1.353  -0.173  0.00  0.00    +0.002 A 
ATOM     27  C   UNL     1       2.286   0.743  -0.160  0.00  0.00    +0.024 A 
ATOM     28  C   UNL     1       2.476  -0.425   0.567  0.00  0.00    +0.045 A 
ATOM     29  C   UNL     1       1.418  -0.976   1.278  0.00  0.00    +0.076 A 
ATOM     30  C   UNL     1       0.181  -0.361   1.261  0.00  0.00    +0.014 A 
BRANCH  29  31
ATOM     31  C   UNL     1       1.619  -2.244   2.068  0.00  0.00    +0.419 C 
ATOM     32  F   UNL     1       0.419  -2.599   2.693  0.00  0.00    -0.166 F 
ATOM     33  F   UNL     1       2.018  -3.271   1.207  0.00  0.00    -0.166 F 
ATOM     34  F   UNL     1       2.606  -2.037   3.038  0.00  0.00    -0.166 F 
ENDBRANCH  29  31
ENDBRANCH  21  28
ENDBRANCH  20  22
ENDBRANCH   1  20
TORSDOF 7
