REMARK  Name = ZINC50865369
REMARK  2 active torsions:
REMARK  status: ('A' for Active; 'I' for Inactive)
REMARK    1  A    between atoms: C_1  and  N_2
REMARK    2  A    between atoms: C_7  and  C_9
REMARK                            x       y       z     vdW  Elec       q    Type
REMARK                         _______ _______ _______ _____ _____    ______ ____
ROOT
ATOM      1  C   UNL     1      -0.018   1.461   0.010  0.00  0.00    +0.127 C 
ATOM      2  N   UNL     1       0.002  -0.004   0.002  0.00  0.00    -0.332 N 
ATOM      3  C   UNL     1       0.601  -0.683  -1.046  0.00  0.00    +0.126 A 
ATOM      4  C   UNL     1       0.620  -2.085  -1.065  0.00  0.00    +0.014 A 
ATOM      5  C   UNL     1       1.221  -2.721  -2.124  0.00  0.00    +0.050 A 
ATOM      6  N   UNL     1       1.770  -1.990  -3.089  0.00  0.00    -0.229 NA
ATOM      7  C   UNL     1       1.741  -0.664  -3.049  0.00  0.00    +0.198 A 
ATOM      8  N   UNL     1       1.159  -0.014  -2.047  0.00  0.00    -0.210 NA
ATOM      9  C   UNL     1       1.279  -4.220  -2.242  0.00  0.00    +0.056 C 
ATOM     10  C   UNL     1       1.005  -4.875  -0.889  0.00  0.00    +0.006 C 
ATOM     11  C   UNL     1      -0.286  -4.280  -0.313  0.00  0.00    +0.005 C 
ATOM     12  C   UNL     1      -0.017  -2.827   0.077  0.00  0.00    +0.040 C 
ATOM     13  H   UNL     1      -0.404  -0.499   0.731  0.00  0.00    +0.147 HD
ENDROOT
BRANCH   7  14
ATOM     14  C   UNL     1       2.362   0.104  -4.144  0.00  0.00    +0.173 A 
ATOM     15  C   UNL     1       2.415   1.461  -4.237  0.00  0.00    +0.054 A 
ATOM     16  C   UNL     1       3.094   1.759  -5.433  0.00  0.00    +0.057 A 
ATOM     17  C   UNL     1       3.419   0.581  -6.007  0.00  0.00    +0.171 A 
ATOM     18  O   UNL     1       2.981  -0.415  -5.223  0.00  0.00    -0.445 OA
ATOM     19 BR   UNL     1       4.346   0.371  -7.642  0.00  0.00    -0.008 Br
ENDBRANCH   7  14
TORSDOF 1
