REMARK  Name = ZINC12413325
REMARK  8 active torsions:
REMARK  status: ('A' for Active; 'I' for Inactive)
REMARK    1  A    between atoms: C_1  and  C_2
REMARK    2  A    between atoms: C_2  and  C_3
REMARK    3  A    between atoms: C_6  and  N_9
REMARK    4  A    between atoms: C_15  and  C_17
REMARK    5  A    between atoms: C_15  and  C_18
REMARK    6  A    between atoms: C_22  and  C_29
REMARK    7  A    between atoms: C_30  and  C_33
REMARK    8  A    between atoms: C_31  and  N_32
REMARK                            x       y       z     vdW  Elec       q    Type
REMARK                         _______ _______ _______ _____ _____    ______ ____
ROOT
ATOM      1  N   UNL     1      -2.124   6.906   0.054  0.00  0.00    -0.260 N 
ATOM      2  C   UNL     1      -1.690   6.031   1.016  0.00  0.00    +0.026 C 
ATOM      3  C   UNL     1      -0.568   5.305   0.827  0.00  0.00    +0.037 C 
ATOM      4  C   UNL     1      -0.113   4.406   1.808  0.00  0.00    +0.163 C 
ATOM      5  O   UNL     1       0.910   3.779   1.615  0.00  0.00    -0.292 OA
ATOM      6  C   UNL     1      -0.870   4.206   3.093  0.00  0.00    +0.086 C 
ATOM      7  C   UNL     1      -2.356   4.486   2.844  0.00  0.00    -0.023 C 
ATOM      8  C   UNL     1      -2.494   5.905   2.286  0.00  0.00    +0.058 C 
ATOM      9  C   UNL     1      -2.907   3.480   1.831  0.00  0.00    +0.011 C 
ATOM     10  C   UNL     1      -3.129   4.368   4.159  0.00  0.00    +0.011 C 
ATOM     11  C   UNL     1       0.231   5.437  -0.443  0.00  0.00    +0.141 C 
ATOM     12  C   UNL     1       0.033   4.235  -1.315  0.00  0.00    -0.001 A 
ATOM     13  C   UNL     1      -1.095   3.725  -1.921  0.00  0.00    +0.010 A 
ATOM     14  C   UNL     1      -0.934   2.574  -2.685  0.00  0.00    -0.050 A 
ATOM     15  C   UNL     1       0.298   1.967  -2.819  0.00  0.00    +0.005 A 
ATOM     16  C   UNL     1       1.436   2.474  -2.213  0.00  0.00    +0.024 A 
ATOM     17  C   UNL     1       1.289   3.632  -1.447  0.00  0.00    +0.038 A 
ATOM     18  N   UNL     1       2.241   4.344  -0.739  0.00  0.00    -0.284 N 
ATOM     19  C   UNL     1       1.711   5.418  -0.117  0.00  0.00    +0.238 C 
ATOM     20  O   UNL     1       2.307   6.217   0.573  0.00  0.00    -0.274 OA
ATOM     21  C   UNL     1      -2.132   1.974  -3.377  0.00  0.00    +0.044 C 
ATOM     22  C   UNL     1      -0.114   6.695  -1.182  0.00  0.00    +0.089 C 
ATOM     23  C   UNL     1      -1.261   7.371  -0.913  0.00  0.00    +0.108 C 
ATOM     24  H   UNL     1       3.178   4.100  -0.695  0.00  0.00    +0.155 HD
ENDROOT
BRANCH   1  28
ATOM     25  C   UNL     1      -6.093   8.175   0.059  0.00  0.00    -0.048 A 
ATOM     26  C   UNL     1      -5.139   8.891   0.759  0.00  0.00    +0.005 A 
ATOM     27  C   UNL     1      -3.822   8.473   0.760  0.00  0.00    +0.024 A 
ATOM     28  C   UNL     1      -3.457   7.332   0.056  0.00  0.00    +0.040 A 
ATOM     29  C   UNL     1      -4.417   6.619  -0.650  0.00  0.00    +0.024 A 
ATOM     30  C   UNL     1      -5.732   7.039  -0.642  0.00  0.00    +0.005 A 
BRANCH  25  32
ATOM     31  C   UNL     1      -7.759   9.593  -1.108  0.00  0.00    +0.009 C 
ATOM     32  C   UNL     1      -7.528   8.634   0.061  0.00  0.00    +0.032 C 
ENDBRANCH  25  32
ENDBRANCH   1  28
BRANCH  23  33
ATOM     33  N   UNL     1      -1.562   8.519  -1.606  0.00  0.00    -0.345 N 
ATOM     34  H   UNL     1      -2.334   9.049  -1.356  0.00  0.00    +0.144 HD
ATOM     35  H   UNL     1      -1.001   8.799  -2.346  0.00  0.00    +0.144 HD
ENDBRANCH  23  33
BRANCH  22  36
ATOM     36  C   UNL     1       0.779   7.192  -2.185  0.00  0.00    +0.100 C 
ATOM     37  N   UNL     1       1.488   7.586  -2.981  0.00  0.00    -0.191 NA
ENDBRANCH  22  36
TORSDOF 4
