REMARK  Name = ZINC38994713
REMARK  9 active torsions:
REMARK  status: ('A' for Active; 'I' for Inactive)
REMARK    1  A    between atoms: C_1  and  C_2
REMARK    2  A    between atoms: C_2  and  C_3
REMARK    3  A    between atoms: C_8  and  N_9
REMARK    4  A    between atoms: C_10  and  C_12
REMARK    5  A    between atoms: C_12  and  S_13
REMARK    6  A    between atoms: S_13  and  C_14
REMARK    7  A    between atoms: C_18  and  C_22
REMARK    8  A    between atoms: N_20  and  N_21
REMARK    9  A    between atoms: C_25  and  C_28
REMARK                            x       y       z     vdW  Elec       q    Type
REMARK                         _______ _______ _______ _____ _____    ______ ____
ROOT
ATOM      1  C   UNL     1       7.962   0.492   1.991  0.00  0.00    +0.214 C 
ATOM      2  N   UNL     1       7.491  -0.098   3.264  0.00  0.00    -0.228 NA
ATOM      3  N   UNL     1       7.640   0.985   4.249  0.00  0.00    -0.234 NA
ATOM      4  C   UNL     1       7.255   2.195   3.477  0.00  0.00    +0.185 C 
ATOM      5  N   UNL     1       7.811   1.956   2.124  0.00  0.00    -0.197 NA
ATOM      6  H   UNL     1       6.529  -0.392   3.193  0.00  0.00    +0.143 HD
ATOM      7  H   UNL     1       8.593   1.050   4.573  0.00  0.00    +0.143 HD
ENDROOT
BRANCH   4   8
ATOM      8  C   UNL     1       7.876   3.447   4.100  0.00  0.00    +0.187 C 
ATOM      9  C   UNL     1       7.428   3.607   5.542  0.00  0.00    +0.034 C 
ATOM     10  C   UNL     1       6.770   4.783   5.546  0.00  0.00    +0.091 C 
ATOM     11  N   UNL     1       6.772   5.332   4.304  0.00  0.00    -0.154 NA
ATOM     12  N   UNL     1       7.362   4.662   3.448  0.00  0.00    -0.176 NA
BRANCH  10  13
ATOM     13  C   UNL     1       6.132   5.391   6.740  0.00  0.00    +0.002 A 
ATOM     14  C   UNL     1       6.194   4.743   7.972  0.00  0.00    +0.013 A 
ATOM     15  C   UNL     1       5.600   5.313   9.080  0.00  0.00    +0.039 A 
ATOM     16  C   UNL     1       4.942   6.527   8.968  0.00  0.00    +0.123 A 
ATOM     17  C   UNL     1       4.878   7.175   7.745  0.00  0.00    +0.039 A 
ATOM     18  C   UNL     1       5.474   6.615   6.633  0.00  0.00    +0.013 A 
ATOM     19  F   UNL     1       4.362   7.081  10.055  0.00  0.00    -0.205 F 
ENDBRANCH  10  13
ENDBRANCH   4   8
BRANCH   5  20
ATOM     20  N   UNL     1       6.929   2.485   1.097  0.00  0.00    -0.264 NA
ATOM     21  H   UNL     1       7.254   2.232   0.176  0.00  0.00    +0.137 HD
ATOM     22  H   UNL     1       5.979   2.177   1.242  0.00  0.00    +0.137 HD
ENDBRANCH   5  20
BRANCH   1  23
ATOM     23  S   UNL     1       6.949  -0.114   0.613  0.00  0.00    -0.115 S 
BRANCH  23  24
ATOM     24  C   UNL     1       7.592  -1.780   0.295  0.00  0.00    +0.168 C 
BRANCH  24  26
ATOM     25  N   UNL     1       7.233  -3.595  -1.346  0.00  0.00    -0.285 N 
ATOM     26  C   UNL     1       6.912  -2.358  -0.919  0.00  0.00    +0.227 C 
ATOM     27  O   UNL     1       6.076  -1.709  -1.512  0.00  0.00    -0.275 OA
ATOM     28  H   UNL     1       7.850  -4.141  -0.833  0.00  0.00    +0.155 HD
BRANCH  25  34
ATOM     29  C   UNL     1       7.419  -4.935  -3.347  0.00  0.00    -0.026 A 
ATOM     30  C   UNL     1       6.865  -5.429  -4.512  0.00  0.00    +0.005 A 
ATOM     31  C   UNL     1       5.574  -5.082  -4.867  0.00  0.00    +0.000 A 
ATOM     32  C   UNL     1       4.834  -4.239  -4.058  0.00  0.00    +0.002 A 
ATOM     33  C   UNL     1       5.383  -3.742  -2.892  0.00  0.00    +0.023 A 
ATOM     34  C   UNL     1       6.677  -4.093  -2.530  0.00  0.00    +0.037 A 
BRANCH  29  36
ATOM     35  C   UNL     1       8.788  -6.512  -2.010  0.00  0.00    +0.009 C 
ATOM     36  C   UNL     1       8.826  -5.314  -2.961  0.00  0.00    +0.033 C 
ENDBRANCH  29  36
ENDBRANCH  25  34
ENDBRANCH  24  26
ENDBRANCH  23  24
ENDBRANCH   1  23
TORSDOF 8
