REMARK  Name = ZINC02123194
REMARK  14 active torsions:
REMARK  status: ('A' for Active; 'I' for Inactive)
REMARK    1  A    between atoms: CD1_1  and  CG1_2
REMARK    2  A    between atoms: CG1_2  and  CB_3
REMARK    3  A    between atoms: CB_3  and  CG2_5
REMARK    4  A    between atoms: CB_3  and  CA_6
REMARK    5  A    between atoms: CA_6  and  C_8
REMARK    6  A    between atoms: CA_6  and  N_10
REMARK    7  A    between atoms: C_11  and  C_13
REMARK    8  A    between atoms: C_13  and  N_14
REMARK    9  A    between atoms: C_15  and  C_17
REMARK   10  A    between atoms: C_17  and  C_18
REMARK   11  A    between atoms: C_19  and  C_35
REMARK   12  A    between atoms: C_23  and  C_34
REMARK   13  A    between atoms: C_24  and  C_33
REMARK   14  A    between atoms: C_27  and  C_32
REMARK                            x       y       z     vdW  Elec       q    Type
REMARK                         _______ _______ _______ _____ _____    ______ ____
ROOT
ATOM      1  C   UNK A   0      -0.886   5.043  10.116  0.00  0.00    +0.138 C 
ENDROOT
BRANCH   1   2
ATOM      2  C   UNK A   0      -0.349   5.099  11.523  0.00  0.00    +0.049 A 
ATOM      3  C   UNK A   0      -1.002   4.462  12.527  0.00  0.00    -0.029 A 
ATOM      4  C   UNK A   0      -0.440   4.539  13.879  0.00  0.00    +0.022 A 
ATOM      5  C   UNK A   0      -1.065   3.900  14.949  0.00  0.00    +0.023 A 
ATOM      6  C   UNK A   0      -0.510   3.998  16.217  0.00  0.00    +0.024 A 
ATOM      7  C   UNK A   0      -0.881   3.474  17.539  0.00  0.00    -0.002 A 
ATOM      8  C   UNK A   0       0.055   3.912  18.390  0.00  0.00    +0.106 A 
ATOM      9  O   UNK A   0       0.968   4.652  17.738  0.00  0.00    -0.459 OA
ATOM     10  C   UNK A   0       0.673   4.736  16.424  0.00  0.00    +0.142 A 
ATOM     11  C   UNK A   0       1.289   5.368  15.355  0.00  0.00    +0.035 A 
ATOM     12  C   UNK A   0       0.744   5.277  14.086  0.00  0.00    +0.146 A 
ATOM     13  O   UNK A   0       1.341   5.892  13.040  0.00  0.00    -0.422 OA
ATOM     14  C   UNK A   0       0.833   5.819  11.800  0.00  0.00    +0.341 A 
ATOM     15  O   UNK A   0       1.406   6.390  10.890  0.00  0.00    -0.245 OA
ATOM     16  C   UNK A   0       2.554   6.157  15.575  0.00  0.00    +0.051 C 
ATOM     17  C   UNK A   0       0.081   3.617  19.868  0.00  0.00    +0.086 C 
ATOM     18  C   UNK A   0      -2.076   2.617  17.870  0.00  0.00    +0.048 C 
ATOM     19  C   UNK A   0      -2.270   3.691  12.259  0.00  0.00    +0.045 C 
ENDBRANCH   1   2
BRANCH   1  21
ATOM     20  N   UNK A   0      -0.634   3.604   8.120  0.00  0.00    -0.306 N 
ATOM     21  C   UNK A   0      -0.295   3.856   9.399  0.00  0.00    +0.218 C 
ATOM     22  O   UNK A   0       0.486   3.128   9.974  0.00  0.00    -0.275 OA
ATOM     23  H   UNK A   0      -1.259   4.187   7.660  0.00  0.00    +0.149 HD
BRANCH  20  24
ATOM     24  C   UNK A   0      -0.060   2.451   7.423  0.00  0.00    +0.200 C 
BRANCH  24  26
ATOM     25  N   ILE A   1      -0.205   1.410   5.184  0.00  0.00    -0.301 N 
ATOM     26  C   UNK A   0      -0.597   2.394   6.016  0.00  0.00    +0.231 C 
ATOM     27  O   UNK A   0      -1.383   3.235   5.633  0.00  0.00    -0.274 OA
ATOM     28  H   ILE A   1       0.423   0.738   5.490  0.00  0.00    +0.150 HD
BRANCH  25  29
ATOM     29  CA  ILE A   1      -0.728   1.355   3.816  0.00  0.00    +0.189 C 
BRANCH  29  30
ATOM     30  C   ILE A   1      -2.051   0.634   3.812  0.00  0.00    +0.376 C 
ATOM     31  O   ILE A   1      -2.330  -0.120   4.714  0.00  0.00    -0.244 OA
ATOM     32  OXT ILE A   1      -2.919   0.830   2.807  0.00  0.00    -0.244 OA
ENDBRANCH  29  30
BRANCH  29  33
ATOM     33  CB  ILE A   1       0.263   0.608   2.921  0.00  0.00    +0.017 C 
ATOM     34  CG2 ILE A   1       0.509  -0.791   3.490  0.00  0.00    +0.010 C 
BRANCH  33  36
ATOM     35  CD1 ILE A   1       2.523   0.712   1.861  0.00  0.00    +0.004 C 
ATOM     36  CG1 ILE A   1       1.585   1.378   2.869  0.00  0.00    +0.002 C 
ENDBRANCH  33  36
ENDBRANCH  29  33
ENDBRANCH  25  29
ENDBRANCH  24  26
ENDBRANCH  20  24
ENDBRANCH   1  21
TORSDOF 8
