REMARK  Name = ZINC07406724
REMARK  4 active torsions:
REMARK  status: ('A' for Active; 'I' for Inactive)
REMARK    1  A    between atoms: C_1  and  C_2
REMARK    2  A    between atoms: C_7  and  N_8
REMARK    3  A    between atoms: C_9  and  C_11
REMARK    4  A    between atoms: C_12  and  C_24
REMARK                            x       y       z     vdW  Elec       q    Type
REMARK                         _______ _______ _______ _____ _____    ______ ____
ROOT
ATOM      1  C   UNL     1      -1.389   3.406  -0.091  0.00  0.00    +0.080 A 
ATOM      2  C   UNL     1      -2.533   4.149  -0.107  0.00  0.00    -0.017 A 
ATOM      3  C   UNL     1      -2.458   5.540  -0.215  0.00  0.00    +0.076 A 
ATOM      4  C   UNL     1      -1.155   6.079  -0.315  0.00  0.00    +0.116 A 
ATOM      5  S   UNL     1      -0.113   4.644  -0.245  0.00  0.00    -0.064 S 
ATOM      6  N   UNL     1      -0.951   7.383  -0.430  0.00  0.00    -0.226 NA
ATOM      7  C   UNL     1      -1.937   8.246  -0.457  0.00  0.00    +0.114 A 
ATOM      8  N   UNL     1      -3.232   7.848  -0.365  0.00  0.00    -0.296 N 
ATOM      9  C   UNL     1      -3.548   6.537  -0.248  0.00  0.00    +0.263 A 
ATOM     10  O   UNL     1      -4.712   6.186  -0.169  0.00  0.00    -0.267 OA
ATOM     11  C   UNL     1      -4.140   9.008  -0.413  0.00  0.00    +0.127 C 
ATOM     12  C   UNL     1      -3.304  10.168  -0.993  0.00  0.00    +0.029 C 
ATOM     13  C   UNL     1      -1.871   9.757  -0.589  0.00  0.00    +0.076 C 
ATOM     14  C   UNL     1      -3.875   3.471  -0.002  0.00  0.00    +0.046 C 
ENDROOT
BRANCH   1  16
ATOM     15  N   UNL     1      -0.017   1.394   0.010  0.00  0.00    -0.281 N 
ATOM     16  C   UNL     1      -1.244   1.951   0.018  0.00  0.00    +0.255 C 
ATOM     17  O   UNL     1      -2.232   1.247   0.117  0.00  0.00    -0.269 OA
ATOM     18  H   UNL     1       0.772   1.958  -0.007  0.00  0.00    +0.155 HD
BRANCH  15  25
ATOM     19  C   UNL     1       2.143   0.246  -1.444  0.00  0.00    +0.045 C 
ATOM     20  C   UNL     1       1.159  -0.600  -0.677  0.00  0.00    -0.029 A 
ATOM     21  C   UNL     1       1.294  -1.974  -0.661  0.00  0.00    +0.006 A 
ATOM     22  C   UNL     1       0.389  -2.752   0.036  0.00  0.00    +0.020 A 
ATOM     23  C   UNL     1      -0.652  -2.156   0.727  0.00  0.00    +0.043 A 
ATOM     24  C   UNL     1      -0.789  -0.781   0.720  0.00  0.00    +0.043 A 
ATOM     25  C   UNL     1       0.119   0.002   0.019  0.00  0.00    +0.038 A 
ATOM     26 CL   UNL     1      -1.786  -3.136   1.602  0.00  0.00    -0.083 Cl
ENDBRANCH  15  25
ENDBRANCH   1  16
TORSDOF 2
