REMARK  Name = ZINC35890498
REMARK  5 active torsions:
REMARK  status: ('A' for Active; 'I' for Inactive)
REMARK    1  A    between atoms: C_1  and  C_2
REMARK    2  A    between atoms: C_4  and  N_18
REMARK    3  A    between atoms: C_6  and  C_8
REMARK    4  A    between atoms: C_12  and  C_14
REMARK    5  A    between atoms: N_26  and  C_27
REMARK                            x       y       z     vdW  Elec       q    Type
REMARK                         _______ _______ _______ _____ _____    ______ ____
ROOT
ATOM      1  C   UNL     1       0.740   1.113   0.180  0.00  0.00    +0.066 C 
ATOM      2  C   UNL     1       0.174  -0.283   0.146  0.00  0.00    +0.044 A 
ATOM      3  C   UNL     1       0.158  -1.001  -1.035  0.00  0.00    +0.066 A 
ATOM      4  C   UNL     1      -0.377  -2.292  -1.023  0.00  0.00    +0.125 A 
ATOM      5  N   UNL     1      -0.849  -2.784   0.117  0.00  0.00    -0.213 NA
ATOM      6  C   UNL     1      -0.815  -2.062   1.229  0.00  0.00    +0.162 A 
ATOM      7  N   UNL     1      -0.309  -0.837   1.247  0.00  0.00    -0.232 NA
ENDROOT
BRANCH   4   8
ATOM      8  N   UNL     1      -0.414  -3.048  -2.183  0.00  0.00    -0.312 N 
ATOM      9  C   UNL     1      -0.943  -4.419  -2.166  0.00  0.00    +0.125 C 
ATOM     10  C   UNL     1      -2.062  -4.526  -3.210  0.00  0.00    +0.128 C 
ATOM     11  N   UNL     1      -1.573  -3.971  -4.480  0.00  0.00    -0.282 N 
ATOM     12  C   UNL     1      -1.044  -2.600  -4.498  0.00  0.00    +0.128 C 
ATOM     13  C   UNL     1       0.070  -2.492  -3.455  0.00  0.00    +0.125 C 
ATOM     14  C   UNL     1      -1.609  -4.707  -5.609  0.00  0.00    +0.307 C 
ATOM     15  O   UNL     1      -2.135  -5.803  -5.604  0.00  0.00    -0.252 OA
ATOM     16  N   UNL     1      -1.062  -4.228  -6.744  0.00  0.00    -0.268 N 
ATOM     17  H   UNL     1      -0.598  -3.376  -6.736  0.00  0.00    +0.156 HD
BRANCH  16  18
ATOM     18  C   UNL     1      -1.163  -4.959  -7.933  0.00  0.00    +0.049 A 
ATOM     19  C   UNL     1      -1.260  -6.343  -7.892  0.00  0.00    +0.024 A 
ATOM     20  C   UNL     1      -1.360  -7.062  -9.067  0.00  0.00    +0.002 A 
ATOM     21  C   UNL     1      -1.364  -6.405 -10.284  0.00  0.00    +0.001 A 
ATOM     22  C   UNL     1      -1.268  -5.027 -10.329  0.00  0.00    +0.017 A 
ATOM     23  C   UNL     1      -1.172  -4.301  -9.156  0.00  0.00    +0.039 A 
ATOM     24 BR   UNL     1      -1.048  -2.415  -9.218  0.00  0.00    -0.048 Br
ENDBRANCH  16  18
ENDBRANCH   4   8
BRANCH   6  25
ATOM     25  C   UNL     1      -1.351  -2.642   2.484  0.00  0.00    +0.020 A 
ATOM     26  C   UNL     1      -1.878  -3.933   2.489  0.00  0.00    +0.011 A 
ATOM     27  C   UNL     1      -2.375  -4.468   3.660  0.00  0.00    +0.001 A 
ATOM     28  C   UNL     1      -2.351  -3.725   4.827  0.00  0.00    +0.012 A 
ATOM     29  C   UNL     1      -1.830  -2.444   4.828  0.00  0.00    +0.055 A 
ATOM     30  C   UNL     1      -1.325  -1.901   3.664  0.00  0.00    +0.024 A 
BRANCH  29  31
ATOM     31  C   UNL     1      -1.808  -1.642   6.103  0.00  0.00    +0.417 C 
ATOM     32  F   UNL     1      -2.365  -2.399   7.140  0.00  0.00    -0.166 F 
ATOM     33  F   UNL     1      -0.487  -1.311   6.424  0.00  0.00    -0.166 F 
ATOM     34  F   UNL     1      -2.553  -0.470   5.930  0.00  0.00    -0.166 F 
ENDBRANCH  29  31
ENDBRANCH   6  25
TORSDOF 4
