REMARK  Name = ZINC38984728
REMARK  12 active torsions:
REMARK  status: ('A' for Active; 'I' for Inactive)
REMARK    1  A    between atoms: C_1  and  C_2
REMARK    2  A    between atoms: C_5  and  C_8
REMARK    3  A    between atoms: C_10  and  C_14
REMARK    4  A    between atoms: C_18  and  S_22
REMARK    5  A    between atoms: N_20  and  N_21
REMARK    6  A    between atoms: S_22  and  C_23
REMARK    7  A    between atoms: C_23  and  C_24
REMARK    8  A    between atoms: N_26  and  C_27
REMARK    9  A    between atoms: C_28  and  C_36
REMARK   10  A    between atoms: C_32  and  C_33
REMARK   11  A    between atoms: C_33  and  C_34
REMARK   12  A    between atoms: C_33  and  C_35
REMARK                            x       y       z     vdW  Elec       q    Type
REMARK                         _______ _______ _______ _____ _____    ______ ____
ROOT
ATOM      1  C   UNL     1      -0.518  -6.911   0.794  0.00  0.00    +0.185 C 
ATOM      2  N   UNL     1      -1.328  -7.575   1.848  0.00  0.00    -0.234 NA
ATOM      3  N   UNL     1      -1.710  -8.863   1.261  0.00  0.00    -0.228 NA
ATOM      4  C   UNL     1      -0.711  -9.170   0.217  0.00  0.00    +0.214 C 
ATOM      5  N   UNL     1       0.248  -8.038   0.201  0.00  0.00    -0.197 NA
ATOM      6  H   UNL     1      -0.788  -7.708   2.690  0.00  0.00    +0.143 HD
ATOM      7  H   UNL     1      -1.734  -9.587   1.962  0.00  0.00    +0.143 HD
ENDROOT
BRANCH   1  10
ATOM      8  C   UNL     1      -0.060  -3.675   1.531  0.00  0.00    +0.091 C 
ATOM      9  C   UNL     1      -0.354  -4.823   2.172  0.00  0.00    +0.034 C 
ATOM     10  C   UNL     1       0.427  -5.877   1.408  0.00  0.00    +0.187 C 
ATOM     11  N   UNL     1       1.104  -5.097   0.359  0.00  0.00    -0.176 NA
ATOM     12  N   UNL     1       0.782  -3.915   0.492  0.00  0.00    -0.154 NA
BRANCH   8  17
ATOM     13  C   UNL     1      -2.106   1.512   2.973  0.00  0.00    +0.044 C 
ATOM     14  C   UNL     1      -1.571   0.154   2.595  0.00  0.00    -0.050 A 
ATOM     15  C   UNL     1      -0.716   0.027   1.516  0.00  0.00    +0.004 A 
ATOM     16  C   UNL     1      -0.223  -1.214   1.166  0.00  0.00    +0.010 A 
ATOM     17  C   UNL     1      -0.587  -2.339   1.903  0.00  0.00    +0.002 A 
ATOM     18  C   UNL     1      -1.449  -2.204   2.990  0.00  0.00    +0.010 A 
ATOM     19  C   UNL     1      -1.932  -0.958   3.334  0.00  0.00    +0.004 A 
ENDBRANCH   8  17
ENDBRANCH   1  10
BRANCH   5  20
ATOM     20  N   UNL     1       0.669  -7.726  -1.156  0.00  0.00    -0.264 NA
ATOM     21  H   UNL     1       1.189  -8.491  -1.558  0.00  0.00    +0.137 HD
ATOM     22  H   UNL     1      -0.122  -7.483  -1.733  0.00  0.00    +0.137 HD
ENDBRANCH   5  20
BRANCH   4  23
ATOM     23  S   UNL     1       0.151 -10.715   0.617  0.00  0.00    -0.115 S 
BRANCH  23  24
ATOM     24  C   UNL     1       0.893 -10.396   2.241  0.00  0.00    +0.168 C 
BRANCH  24  25
ATOM     25  C   UNL     1       1.650 -11.617   2.696  0.00  0.00    +0.227 C 
ATOM     26  O   UNL     1       1.685 -12.605   1.994  0.00  0.00    -0.275 OA
ATOM     27  N   UNL     1       2.288 -11.611   3.884  0.00  0.00    -0.284 N 
ATOM     28  H   UNL     1       2.306 -10.803   4.420  0.00  0.00    +0.155 HD
BRANCH  27  29
ATOM     29  C   UNL     1       2.924 -12.770   4.342  0.00  0.00    +0.040 A 
ATOM     30  C   UNL     1       2.227 -13.969   4.400  0.00  0.00    -0.029 A 
ATOM     31  C   UNL     1       2.857 -15.111   4.854  0.00  0.00    +0.005 A 
ATOM     32  C   UNL     1       4.181 -15.061   5.250  0.00  0.00    +0.001 A 
ATOM     33  C   UNL     1       4.878 -13.868   5.193  0.00  0.00    +0.006 A 
ATOM     34  C   UNL     1       4.255 -12.724   4.735  0.00  0.00    -0.023 A 
ATOM     35  C   UNL     1       0.783 -14.025   3.970  0.00  0.00    +0.045 C 
BRANCH  34  36
ATOM     36  C   UNL     1       5.017 -11.425   4.667  0.00  0.00    +0.015 C 
ATOM     37  C   UNL     1       5.509 -11.049   6.066  0.00  0.00    +0.012 C 
ATOM     38  C   UNL     1       6.216 -11.586   3.730  0.00  0.00    +0.012 C 
ENDBRANCH  34  36
ENDBRANCH  27  29
ENDBRANCH  24  25
ENDBRANCH  23  24
ENDBRANCH   4  23
TORSDOF 8
