REMARK  Name = ZINC30948399
REMARK  4 active torsions:
REMARK  status: ('A' for Active; 'I' for Inactive)
REMARK    1  A    between atoms: C_6  and  C_7
REMARK    2  A    between atoms: N_12  and  C_15
REMARK    3  A    between atoms: C_18  and  N_21
REMARK    4  A    between atoms: C_22  and  C_24
REMARK                            x       y       z     vdW  Elec       q    Type
REMARK                         _______ _______ _______ _____ _____    ______ ____
ROOT
ATOM      1  C   UNL     1      -2.433   3.557   2.397  0.00  0.00    +0.030 A 
ATOM      2  C   UNL     1      -1.686   2.513   2.928  0.00  0.00    +0.025 A 
ATOM      3  C   UNL     1      -2.319   1.380   3.398  0.00  0.00    +0.025 A 
ATOM      4  C   UNL     1      -3.703   1.283   3.340  0.00  0.00    +0.034 A 
ATOM      5  C   UNL     1      -4.450   2.324   2.804  0.00  0.00    +0.025 A 
ATOM      6  C   UNL     1      -3.818   3.460   2.339  0.00  0.00    +0.025 A 
ENDROOT
BRANCH   1  12
ATOM      7  C   UNL     1      -0.993   8.700   1.946  0.00  0.00    +0.247 C 
ATOM      8  O   UNL     1      -1.828   9.445   1.471  0.00  0.00    -0.270 OA
ATOM      9  N   UNL     1      -1.043   7.379   1.686  0.00  0.00    -0.295 N 
ATOM     10  C   UNL     1      -2.021   6.833   0.731  0.00  0.00    +0.127 C 
ATOM     11  C   UNL     1      -2.766   5.676   1.405  0.00  0.00    +0.124 C 
ATOM     12  N   UNL     1      -1.792   4.705   1.920  0.00  0.00    -0.327 N 
ATOM     13  C   UNL     1      -0.941   5.302   2.958  0.00  0.00    +0.124 C 
ATOM     14  C   UNL     1      -0.121   6.443   2.348  0.00  0.00    +0.127 C 
BRANCH   7  20
ATOM     15  C   UNL     1       1.351   8.672   2.789  0.00  0.00    +0.014 A 
ATOM     16  C   UNL     1       2.347   9.187   3.591  0.00  0.00    +0.021 A 
ATOM     17  C   UNL     1       2.083  10.262   4.423  0.00  0.00    +0.041 A 
ATOM     18  C   UNL     1       0.820  10.830   4.451  0.00  0.00    +0.021 A 
ATOM     19  C   UNL     1      -0.183  10.327   3.649  0.00  0.00    +0.014 A 
ATOM     20  C   UNL     1       0.077   9.243   2.808  0.00  0.00    +0.037 A 
ATOM     21 CL   UNL     1       3.340  10.901   5.435  0.00  0.00    -0.084 Cl
ENDBRANCH   7  20
ENDBRANCH   1  12
BRANCH   4  22
ATOM     22  N   UNL     1      -4.345   0.134   3.817  0.00  0.00    -0.282 N 
ATOM     23  C   UNL     1      -3.832  -0.539   4.867  0.00  0.00    +0.248 C 
ATOM     24  O   UNL     1      -2.868  -0.095   5.460  0.00  0.00    -0.270 OA
ATOM     25  H   UNL     1      -5.269  -0.220   3.336  0.00  0.00    +0.155 HD
BRANCH  23  26
ATOM     26  C   UNL     1      -4.440  -1.814   5.296  0.00  0.00    +0.039 A 
ATOM     27  C   UNL     1      -5.557  -2.317   4.601  0.00  0.00    +0.015 A 
ATOM     28  C   UNL     1      -6.143  -3.479   4.960  0.00  0.00    +0.031 A 
ATOM     29  C   UNL     1      -5.642  -4.228   6.059  0.00  0.00    +0.100 A 
ATOM     30  C   UNL     1      -4.484  -3.716   6.788  0.00  0.00    +0.101 A 
ATOM     31  C   UNL     1      -3.903  -2.496   6.367  0.00  0.00    +0.043 A 
ATOM     32  N   UNL     1      -4.127  -4.521   7.789  0.00  0.00    -0.191 NA
ATOM     33  S   UNL     1      -5.135  -5.721   7.764  0.00  0.00    +0.116 S 
ATOM     34  N   UNL     1      -6.077  -5.381   6.560  0.00  0.00    -0.191 NA
ENDBRANCH  23  26
ENDBRANCH   4  22
TORSDOF 4
