REMARK  Name = ZINC63493760
REMARK  7 active torsions:
REMARK  status: ('A' for Active; 'I' for Inactive)
REMARK    1  A    between atoms: C_1  and  C_2
REMARK    2  A    between atoms: C_4  and  C_25
REMARK    3  A    between atoms: N_5  and  C_9
REMARK    4  A    between atoms: C_9  and  C_10
REMARK    5  A    between atoms: N_12  and  C_13
REMARK    6  A    between atoms: C_13  and  C_14
REMARK    7  A    between atoms: C_14  and  C_15
REMARK                            x       y       z     vdW  Elec       q    Type
REMARK                         _______ _______ _______ _____ _____    ______ ____
ROOT
ATOM      1  C   UNL     1       0.130  -4.663  -1.446  0.00  0.00    +0.233 C 
ATOM      2  O   UNL     1       0.091  -3.871  -2.364  0.00  0.00    -0.274 OA
ATOM      3  N   UNL     1       0.187  -5.986  -1.701  0.00  0.00    -0.314 N 
ATOM      4  H   UNL     1       0.219  -6.620  -0.967  0.00  0.00    +0.149 HD
ENDROOT
BRANCH   1   5
ATOM      5  C   UNL     1       0.115  -4.170  -0.023  0.00  0.00    +0.222 C 
BRANCH   5  10
ATOM      6  C   UNL     1      -0.018   1.503   0.010  0.00  0.00    +0.066 C 
ATOM      7  C   UNL     1       0.002  -0.004   0.002  0.00  0.00    +0.045 A 
ATOM      8  C   UNL     1      -1.198  -0.721   0.004  0.00  0.00    +0.044 A 
ATOM      9  C   UNL     1      -1.156  -2.081  -0.004  0.00  0.00    +0.023 A 
ATOM     10  N   UNL     1       0.050  -2.706  -0.014  0.00  0.00    -0.288 N 
ATOM     11  C   UNL     1       1.186  -1.984  -0.015  0.00  0.00    +0.349 A 
ATOM     12  O   UNL     1       2.263  -2.557  -0.023  0.00  0.00    -0.244 OA
ATOM     13  N   UNL     1       1.151  -0.649  -0.012  0.00  0.00    -0.198 NA
ATOM     14  C   UNL     1      -2.431  -2.884  -0.002  0.00  0.00    +0.064 C 
ENDBRANCH   5  10
ENDBRANCH   1   5
BRANCH   3  15
ATOM     15  C   UNL     1       0.202  -6.466  -3.085  0.00  0.00    +0.108 C 
BRANCH  15  16
ATOM     16  C   UNL     1       0.269  -7.994  -3.094  0.00  0.00    +0.052 C 
BRANCH  16  17
ATOM     17  C   UNL     1       0.284  -8.488  -4.518  0.00  0.00    -0.040 C 
ATOM     18  C   UNL     1       1.372  -8.801  -5.258  0.00  0.00    +0.002 A 
ATOM     19  C   UNL     1       2.811  -8.775  -4.971  0.00  0.00    +0.048 A 
ATOM     20  C   UNL     1       3.680  -9.155  -5.937  0.00  0.00    +0.124 A 
ATOM     21  C   UNL     1       3.240  -9.570  -7.203  0.00  0.00    +0.040 A 
ATOM     22  C   UNL     1       1.934  -9.619  -7.540  0.00  0.00    +0.029 A 
ATOM     23  C   UNL     1       0.934  -9.243  -6.601  0.00  0.00    +0.043 A 
ATOM     24  N   UNL     1      -0.374  -9.205  -6.688  0.00  0.00    -0.380 N 
ATOM     25  C   UNL     1      -0.914  -8.740  -5.405  0.00  0.00    +0.144 C 
ATOM     26  F   UNL     1       5.006  -9.132  -5.676  0.00  0.00    -0.205 F 
ATOM     27  H   UNL     1      -0.897  -9.447  -7.468  0.00  0.00    +0.160 HD
ENDBRANCH  16  17
ENDBRANCH  15  16
ENDBRANCH   3  15
TORSDOF 5
