REMARK  Name = ZINC55548544
REMARK  7 active torsions:
REMARK  status: ('A' for Active; 'I' for Inactive)
REMARK    1  A    between atoms: C_3  and  C_25
REMARK    2  A    between atoms: C_5  and  N_7
REMARK    3  A    between atoms: N_7  and  S_8
REMARK    4  A    between atoms: S_8  and  C_11
REMARK    5  A    between atoms: C_15  and  C_17
REMARK    6  A    between atoms: N_19  and  C_20
REMARK    7  A    between atoms: C_20  and  C_21
REMARK                            x       y       z     vdW  Elec       q    Type
REMARK                         _______ _______ _______ _____ _____    ______ ____
ROOT
ATOM      1  C   UNL     1       0.205  -4.641  -0.026  0.00  0.00    +0.111 A 
ATOM      2  C   UNL     1       0.358  -5.304  -1.231  0.00  0.00    +0.029 A 
ATOM      3  C   UNL     1       0.677  -6.650  -1.250  0.00  0.00    +0.003 A 
ATOM      4  C   UNL     1       0.845  -7.340  -0.067  0.00  0.00    +0.013 A 
ATOM      5  C   UNL     1       0.692  -6.677   1.151  0.00  0.00    +0.039 A 
ATOM      6  C   UNL     1       0.375  -5.317   1.164  0.00  0.00    +0.042 A 
ENDROOT
BRANCH   5   7
ATOM      7  C   UNL     1       0.870  -7.410   2.423  0.00  0.00    +0.244 C 
ATOM      8  O   UNL     1       0.736  -6.829   3.483  0.00  0.00    -0.270 OA
ATOM      9  N   UNL     1       1.180  -8.721   2.407  0.00  0.00    -0.303 N 
ATOM     10  H   UNL     1       1.287  -9.184   1.562  0.00  0.00    +0.149 HD
BRANCH   9  11
ATOM     11  C   UNL     1       1.356  -9.447   3.667  0.00  0.00    +0.217 C 
BRANCH  11  12
ATOM     12  C   UNL     1       1.700 -10.908   3.370  0.00  0.00    +0.405 C 
ATOM     13  F   UNL     1       2.886 -10.966   2.629  0.00  0.00    -0.169 F 
ATOM     14  F   UNL     1       1.869 -11.602   4.574  0.00  0.00    -0.169 F 
ATOM     15  F   UNL     1       0.662 -11.492   2.636  0.00  0.00    -0.169 F 
ENDBRANCH  11  12
ENDBRANCH   9  11
ENDBRANCH   5   7
BRANCH   1  16
ATOM     16  S   UNL     1      -0.201  -2.926  -0.012  0.00  0.00    +0.092 S 
ATOM     17  O   UNL     1      -0.819  -2.665   1.241  0.00  0.00    -0.148 OA
ATOM     18  O   UNL     1      -0.843  -2.651  -1.250  0.00  0.00    -0.148 OA
BRANCH  16  19
ATOM     19  N   UNL     1       1.225  -2.085  -0.021  0.00  0.00    -0.098 NA
BRANCH  19  24
ATOM     20  C   UNL     1      -0.017   1.378   0.010  0.00  0.00    +0.003 A 
ATOM     21  C   UNL     1       1.166   2.089   0.002  0.00  0.00    +0.015 A 
ATOM     22  C   UNL     1       2.388   1.412  -0.013  0.00  0.00    +0.065 A 
ATOM     23  C   UNL     1       2.406   0.016  -0.021  0.00  0.00    +0.041 A 
ATOM     24  C   UNL     1       1.212  -0.688  -0.013  0.00  0.00    +0.075 A 
ATOM     25  C   UNL     1       0.002  -0.004   0.002  0.00  0.00    +0.027 A 
BRANCH  22  26
ATOM     26  C   UNL     1       3.654   2.170  -0.022  0.00  0.00    +0.387 C 
ATOM     27  O   UNL     1       3.635   3.392  -0.015  0.00  0.00    -0.241 OA
ATOM     28  O   UNL     1       4.722   1.575  -0.035  0.00  0.00    -0.241 OA
ENDBRANCH  22  26
ENDBRANCH  19  24
ENDBRANCH  16  19
ENDBRANCH   1  16
TORSDOF 7
