REMARK  Name = ZINC39606954
REMARK  7 active torsions:
REMARK  status: ('A' for Active; 'I' for Inactive)
REMARK    1  A    between atoms: C_1  and  C_2
REMARK    2  A    between atoms: C_5  and  C_9
REMARK    3  A    between atoms: C_6  and  C_8
REMARK    4  A    between atoms: C_9  and  N_10
REMARK    5  A    between atoms: C_11  and  C_13
REMARK    6  A    between atoms: C_24  and  C_26
REMARK    7  A    between atoms: C_29  and  C_33
REMARK                            x       y       z     vdW  Elec       q    Type
REMARK                         _______ _______ _______ _____ _____    ______ ____
ROOT
ATOM      1  C   UNL     1      -3.364  -6.752   0.132  0.00  0.00    +0.100 C 
ATOM      2  C   UNL     1      -3.604  -6.337   1.601  0.00  0.00    +0.121 C 
ATOM      3  N   UNL     1      -4.249  -7.517   2.223  0.00  0.00    -0.296 N 
ATOM      4  C   UNL     1      -3.540  -8.678   1.634  0.00  0.00    +0.115 C 
ATOM      5  C   UNL     1      -3.322  -8.289   0.158  0.00  0.00    -0.004 C 
ATOM      6  C   UNL     1      -1.963  -8.788  -0.324  0.00  0.00    -0.010 C 
ATOM      7  C   UNL     1      -1.965 -10.319  -0.345  0.00  0.00    -0.082 C 
ATOM      8  N   UNL     1      -3.028 -10.797  -1.237  0.00  0.00    +0.379 N 
ATOM      9  C   UNL     1      -4.339 -10.391  -0.715  0.00  0.00    -0.082 C 
ATOM     10  C   UNL     1      -4.438  -8.863  -0.710  0.00  0.00    -0.010 C 
ATOM     11  C   UNL     1      -5.253  -7.532   3.121  0.00  0.00    +0.249 C 
ATOM     12  O   UNL     1      -5.614  -8.584   3.612  0.00  0.00    -0.270 OA
ATOM     13  H   UNL     1      -2.897 -10.402  -2.156  0.00  0.00    -0.086 HD
ATOM     14  H   UNL     1      -2.989 -11.803  -1.297  0.00  0.00    -0.086 HD
ENDROOT
BRANCH  11  15
ATOM     15  C   UNL     1      -5.915  -6.270   3.510  0.00  0.00    +0.072 A 
ATOM     16  C   UNL     1      -5.177  -5.088   3.596  0.00  0.00    +0.016 A 
ATOM     17  C   UNL     1      -5.802  -3.913   3.958  0.00  0.00    +0.013 A 
ATOM     18  C   UNL     1      -7.158  -3.902   4.237  0.00  0.00    +0.058 A 
ATOM     19  C   UNL     1      -7.897  -5.067   4.156  0.00  0.00    +0.051 A 
ATOM     20  C   UNL     1      -7.286  -6.252   3.787  0.00  0.00    +0.136 A 
ATOM     21  F   UNL     1      -8.009  -7.390   3.702  0.00  0.00    -0.205 F 
BRANCH  18  22
ATOM     22  C   UNL     1      -7.831  -2.613   4.633  0.00  0.00    +0.418 C 
ATOM     23  F   UNL     1      -8.299  -1.961   3.488  0.00  0.00    -0.166 F 
ATOM     24  F   UNL     1      -8.907  -2.891   5.484  0.00  0.00    -0.166 F 
ATOM     25  F   UNL     1      -6.913  -1.792   5.296  0.00  0.00    -0.166 F 
ENDBRANCH  18  22
ENDBRANCH  11  15
BRANCH   1  27
ATOM     26  N   UNL     1      -1.889  -5.917  -1.670  0.00  0.00    -0.311 N 
ATOM     27  C   UNL     1      -2.052  -6.199  -0.362  0.00  0.00    +0.218 C 
ATOM     28  O   UNL     1      -1.143  -6.007   0.417  0.00  0.00    -0.275 OA
ATOM     29  H   UNL     1      -2.617  -6.070  -2.293  0.00  0.00    +0.149 HD
BRANCH  26  30
ATOM     30  C   UNL     1      -0.614  -5.380  -2.150  0.00  0.00    +0.139 C 
BRANCH  30  35
ATOM     31  C   UNL     1      -0.919  -4.513  -7.856  0.00  0.00    +0.044 C 
ATOM     32  C   UNL     1      -0.839  -4.739  -6.368  0.00  0.00    -0.050 A 
ATOM     33  C   UNL     1      -0.214  -5.869  -5.872  0.00  0.00    +0.004 A 
ATOM     34  C   UNL     1      -0.141  -6.076  -4.508  0.00  0.00    +0.006 A 
ATOM     35  C   UNL     1      -0.693  -5.153  -3.638  0.00  0.00    -0.027 A 
ATOM     36  C   UNL     1      -1.316  -4.024  -4.133  0.00  0.00    -0.046 A 
ATOM     37  C   UNL     1      -1.385  -3.814  -5.498  0.00  0.00    +0.007 A 
ATOM     38  C   UNL     1      -1.918  -3.018  -3.185  0.00  0.00    +0.044 C 
ENDBRANCH  30  35
ENDBRANCH  26  30
ENDBRANCH   1  27
TORSDOF 5
