REMARK  Name = ZINC21351633
REMARK  4 active torsions:
REMARK  status: ('A' for Active; 'I' for Inactive)
REMARK    1  A    between atoms: C_1  and  C_2
REMARK    2  A    between atoms: C_7  and  N_8
REMARK    3  A    between atoms: N_8  and  C_9
REMARK    4  A    between atoms: C_10  and  C_20
REMARK                            x       y       z     vdW  Elec       q    Type
REMARK                         _______ _______ _______ _____ _____    ______ ____
ROOT
ATOM      1  C   UNL     1       1.294   1.413   0.006  0.00  0.00    +0.071 C 
ATOM      2  C   UNL     1       1.578   2.724  -0.224  0.00  0.00    +0.176 C 
ATOM      3  S   UNL     1       3.355   2.788  -0.115  0.00  0.00    +0.032 S 
ATOM      4  O   UNL     1       3.861   3.073  -1.411  0.00  0.00    -0.164 OA
ATOM      5  O   UNL     1       3.693   3.540   1.043  0.00  0.00    -0.164 OA
ATOM      6  C   UNL     1       3.680   1.079   0.232  0.00  0.00    +0.103 A 
ATOM      7  C   UNL     1       2.408   0.491   0.263  0.00  0.00    +0.023 A 
ATOM      8  C   UNL     1       2.353  -0.896   0.516  0.00  0.00    +0.012 A 
ATOM      9  C   UNL     1       3.505  -1.614   0.732  0.00  0.00    +0.001 A 
ATOM     10  C   UNL     1       4.744  -1.001   0.700  0.00  0.00    +0.002 A 
ATOM     11  C   UNL     1       4.822   0.361   0.447  0.00  0.00    +0.028 A 
ENDROOT
BRANCH   2  12
ATOM     12  C   UNL     1       0.680   3.779  -0.485  0.00  0.00    +0.262 C 
ATOM     13  O   UNL     1      -0.521   3.584  -0.433  0.00  0.00    -0.269 OA
ATOM     14  N   UNL     1       1.151   5.004  -0.792  0.00  0.00    -0.324 N 
ATOM     15  H   UNL     1       0.450   5.828  -0.996  0.00  0.00    +0.145 HD
ATOM     16  H   UNL     1       2.236   5.181  -0.839  0.00  0.00    +0.145 HD
ENDBRANCH   2  12
BRANCH   1  17
ATOM     17  N   UNL     1      -0.006   0.963   0.003  0.00  0.00    -0.312 N 
ATOM     18  H   UNL     1      -0.729   1.366   0.727  0.00  0.00    +0.152 HD
BRANCH  17  25
ATOM     19  C   UNL     1      -2.625  -0.122   0.250  0.00  0.00    +0.045 C 
ATOM     20  C   UNL     1      -1.678  -0.562  -0.837  0.00  0.00    -0.029 A 
ATOM     21  C   UNL     1      -2.074  -1.516  -1.755  0.00  0.00    +0.005 A 
ATOM     22  C   UNL     1      -1.204  -1.924  -2.749  0.00  0.00    +0.000 A 
ATOM     23  C   UNL     1       0.063  -1.376  -2.832  0.00  0.00    +0.002 A 
ATOM     24  C   UNL     1       0.463  -0.418  -1.921  0.00  0.00    +0.023 A 
ATOM     25  C   UNL     1      -0.408  -0.005  -0.921  0.00  0.00    +0.034 A 
ENDBRANCH  17  25
ENDBRANCH   1  17
TORSDOF 3
