REMARK  Name = ZINC32530608
REMARK  8 active torsions:
REMARK  status: ('A' for Active; 'I' for Inactive)
REMARK    1  A    between atoms: C_1  and  C_2
REMARK    2  A    between atoms: C_4  and  C_21
REMARK    3  A    between atoms: C_8  and  C_20
REMARK    4  A    between atoms: N_12  and  C_13
REMARK    5  A    between atoms: C_13  and  C_15
REMARK    6  A    between atoms: C_13  and  C_16
REMARK    7  A    between atoms: C_16  and  O_18
REMARK    8  A    between atoms: O_18  and  C_19
REMARK                            x       y       z     vdW  Elec       q    Type
REMARK                         _______ _______ _______ _____ _____    ______ ____
ROOT
ATOM      1  C   UNL     1       5.882  -5.830  -2.010  0.00  0.00    +0.044 C 
ATOM      2  C   UNL     1       4.773  -4.813  -2.094  0.00  0.00    -0.050 A 
ATOM      3  C   UNL     1       4.129  -4.401  -0.935  0.00  0.00    +0.008 A 
ATOM      4  C   UNL     1       3.112  -3.472  -0.989  0.00  0.00    -0.026 A 
ATOM      5  C   UNL     1       2.731  -2.936  -2.214  0.00  0.00    +0.056 A 
ATOM      6  C   UNL     1       3.382  -3.361  -3.387  0.00  0.00    +0.002 A 
ATOM      7  C   UNL     1       4.412  -4.305  -3.309  0.00  0.00    +0.013 A 
ATOM      8  C   UNL     1       2.970  -2.795  -4.673  0.00  0.00    -0.036 A 
ATOM      9  C   UNL     1       1.966  -1.883  -4.687  0.00  0.00    +0.074 A 
ATOM     10  C   UNL     1       1.341  -1.495  -3.483  0.00  0.00    +0.253 A 
ATOM     11  O   UNL     1       0.441  -0.674  -3.518  0.00  0.00    -0.268 OA
ATOM     12  N   UNL     1       1.714  -2.009  -2.297  0.00  0.00    -0.294 N 
ATOM     13  C   UNL     1       3.644  -3.218  -5.953  0.00  0.00    +0.044 C 
ATOM     14  C   UNL     1       2.421  -3.033   0.277  0.00  0.00    +0.046 C 
ENDROOT
BRANCH  12  15
ATOM     15  C   UNL     1       1.034  -1.572  -1.076  0.00  0.00    +0.196 C 
ATOM     16  C   UNL     1       0.047  -0.452  -1.413  0.00  0.00    +0.043 C 
BRANCH  15  17
ATOM     17  C   UNL     1       2.052  -1.064  -0.088  0.00  0.00    +0.330 C 
ATOM     18  O   UNL     1       3.225  -1.066  -0.375  0.00  0.00    -0.249 OA
BRANCH  17  19
ATOM     19  O   UNL     1       1.655  -0.609   1.111  0.00  0.00    -0.466 OA
ATOM     20  C   UNL     1       2.691  -0.135   2.012  0.00  0.00    +0.280 C 
ENDBRANCH  17  19
ENDBRANCH  15  17
ENDBRANCH  12  15
TORSDOF 3
