REMARK  Name = ZINC28261846
REMARK  6 active torsions:
REMARK  status: ('A' for Active; 'I' for Inactive)
REMARK    1  A    between atoms: C_1  and  N_2
REMARK    2  A    between atoms: C_10  and  O_38
REMARK    3  A    between atoms: C_15  and  O_36
REMARK    4  A    between atoms: C_23  and  C_25
REMARK    5  A    between atoms: O_36  and  C_37
REMARK    6  A    between atoms: O_38  and  C_39
REMARK                            x       y       z     vdW  Elec       q    Type
REMARK                         _______ _______ _______ _____ _____    ______ ____
ROOT
ATOM      1  C   UNL     1      -1.466   3.303   2.511  0.00  0.00    -0.096 C 
ATOM      2  N   UNL     1      -0.874   2.867   1.239  0.00  0.00    +0.381 N 
ATOM      3  C   UNL     1      -0.526   1.438   1.281  0.00  0.00    -0.078 C 
ATOM      4  C   UNL     1       0.221   1.048   0.003  0.00  0.00    -0.003 C 
ATOM      5  C   UNL     1      -0.571   1.432  -1.220  0.00  0.00    +0.045 C 
ATOM      6  C   UNL     1      -1.879   0.713  -1.362  0.00  0.00    +0.012 A 
ATOM      7  C   UNL     1      -3.026   1.021  -0.654  0.00  0.00    -0.041 A 
ATOM      8  C   UNL     1      -4.111   0.205  -0.908  0.00  0.00    +0.007 A 
ATOM      9  C   UNL     1      -4.031  -0.776  -1.885  0.00  0.00    +0.050 A 
ATOM     10  C   UNL     1      -2.907  -0.973  -2.686  0.00  0.00    +0.162 A 
ATOM     11  C   UNL     1      -1.800  -0.150  -2.436  0.00  0.00    +0.167 A 
ATOM     12  O   UNL     1      -0.667   0.065  -3.134  0.00  0.00    -0.481 OA
ATOM     13  C   UNL     1       0.139   1.097  -2.535  0.00  0.00    +0.221 C 
ATOM     14  C   UNL     1       0.132   2.367  -3.398  0.00  0.00    +0.136 C 
ATOM     15  C   UNL     1      -1.306   2.842  -3.540  0.00  0.00    +0.008 C 
ATOM     16  C   UNL     1      -1.910   3.128  -2.387  0.00  0.00    -0.022 C 
ATOM     17  C   UNL     1      -1.021   2.903  -1.174  0.00  0.00    -0.009 C 
ATOM     18  C   UNL     1      -1.801   3.114   0.109  0.00  0.00    -0.054 C 
ATOM     19  C   UNL     1      -2.988   2.169   0.297  0.00  0.00    +0.021 C 
ATOM     20  C   UNL     1       0.210   3.787  -1.315  0.00  0.00    +0.026 C 
ATOM     21  C   UNL     1       0.906   3.462  -2.645  0.00  0.00    +0.117 C 
ATOM     22  H   UNL     1       0.046   3.453   1.096  0.00  0.00    -0.082 HD
ENDROOT
BRANCH  21  23
ATOM     23  C   UNL     1       0.965   4.705  -3.494  0.00  0.00    +0.225 A 
ATOM     24  N   UNL     1      -0.046   5.443  -3.847  0.00  0.00    -0.111 NA
ATOM     25  N   UNL     1       0.368   6.426  -4.567  0.00  0.00    -0.092 NA
ATOM     26  C   UNL     1       1.669   6.342  -4.707  0.00  0.00    +0.310 A 
ATOM     27  O   UNL     1       2.074   5.251  -4.031  0.00  0.00    -0.409 OA
ATOM     28  N   UNL     1       2.475   7.212  -5.417  0.00  0.00    -0.284 N 
ATOM     29  C   UNL     1       3.541   7.755  -4.566  0.00  0.00    +0.109 C 
ATOM     30  C   UNL     1       4.496   8.597  -5.416  0.00  0.00    +0.019 C 
ATOM     31  C   UNL     1       3.714   9.736  -6.076  0.00  0.00    +0.003 C 
ATOM     32  C   UNL     1       2.580   9.145  -6.918  0.00  0.00    +0.019 C 
ATOM     33  C   UNL     1       1.681   8.288  -6.025  0.00  0.00    +0.109 C 
ENDBRANCH  21  23
BRANCH  14  34
ATOM     34  O   UNL     1       0.709   2.111  -4.679  0.00  0.00    -0.368 OA
ATOM     35  C   UNL     1       2.048   1.614  -4.625  0.00  0.00    +0.195 C 
ENDBRANCH  14  34
BRANCH  10  36
ATOM     36  O   UNL     1      -2.886  -1.918  -3.663  0.00  0.00    -0.491 OA
ATOM     37  C   UNL     1      -4.069  -2.702  -3.833  0.00  0.00    +0.277 C 
ENDBRANCH  10  36
TORSDOF 3
