REMARK  Name = ZINC01666226
REMARK  10 active torsions:
REMARK  status: ('A' for Active; 'I' for Inactive)
REMARK    1  A    between atoms: C_3  and  S_8
REMARK    2  A    between atoms: C_6  and  N_7
REMARK    3  A    between atoms: S_8  and  C_11
REMARK    4  A    between atoms: C_14  and  N_17
REMARK    5  A    between atoms: N_17  and  C_18
REMARK    6  A    between atoms: C_18  and  N_19
REMARK    7  A    between atoms: N_19  and  C_20
REMARK    8  A    between atoms: C_23  and  S_26
REMARK    9  A    between atoms: S_26  and  C_29
REMARK   10  A    between atoms: C_32  and  N_35
REMARK                            x       y       z     vdW  Elec       q    Type
REMARK                         _______ _______ _______ _____ _____    ______ ____
ROOT
ATOM      1  C   UNL     1       1.248   1.716  -0.001  0.00  0.00    +0.207 C 
ENDROOT
BRANCH   1   2
ATOM      2  N   UNL     1      -0.011   0.966   0.007  0.00  0.00    -0.329 N 
ATOM      3  H   UNL     1       0.002  -0.004   0.002  0.00  0.00    +0.148 HD
BRANCH   2   7
ATOM      4  C   UNL     1      -3.645   2.998   0.037  0.00  0.00    +0.094 A 
ATOM      5  C   UNL     1      -3.628   1.616   0.029  0.00  0.00    +0.029 A 
ATOM      6  C   UNL     1      -2.424   0.938   0.019  0.00  0.00    +0.025 A 
ATOM      7  C   UNL     1      -1.230   1.648   0.017  0.00  0.00    +0.028 A 
ATOM      8  C   UNL     1      -1.251   3.037   0.030  0.00  0.00    +0.025 A 
ATOM      9  C   UNL     1      -2.458   3.708   0.035  0.00  0.00    +0.029 A 
BRANCH   4  10
ATOM     10  S   UNL     1      -5.183   3.859   0.049  0.00  0.00    +0.025 S 
ATOM     11  O   UNL     1      -4.932   5.147  -0.496  0.00  0.00    -0.164 OA
ATOM     12  O   UNL     1      -6.147   2.973  -0.503  0.00  0.00    -0.164 OA
BRANCH  10  15
ATOM     13  C   UNL     1      -5.568   5.440   3.721  0.00  0.00    +0.024 A 
ATOM     14  C   UNL     1      -5.220   5.245   2.399  0.00  0.00    +0.029 A 
ATOM     15  C   UNL     1      -5.630   4.103   1.735  0.00  0.00    +0.094 A 
ATOM     16  C   UNL     1      -6.394   3.156   2.391  0.00  0.00    +0.029 A 
ATOM     17  C   UNL     1      -6.742   3.342   3.714  0.00  0.00    +0.024 A 
ATOM     18  C   UNL     1      -6.332   4.487   4.384  0.00  0.00    +0.025 A 
BRANCH  18  19
ATOM     19  N   UNL     1      -6.685   4.681   5.721  0.00  0.00    -0.358 N 
ATOM     20  H   UNL     1      -6.398   5.481   6.188  0.00  0.00    +0.142 HD
ATOM     21  H   UNL     1      -7.219   4.015   6.183  0.00  0.00    +0.142 HD
ENDBRANCH  18  19
ENDBRANCH  10  15
ENDBRANCH   4  10
ENDBRANCH   2   7
ENDBRANCH   1   2
BRANCH   1  22
ATOM     22  N   UNL     1       1.742   1.855   1.371  0.00  0.00    -0.329 N 
ATOM     23  H   UNL     1       1.422   2.579   1.931  0.00  0.00    +0.148 HD
BRANCH  22  24
ATOM     24  C   UNL     1       2.674   0.944   1.874  0.00  0.00    +0.028 A 
ATOM     25  C   UNL     1       3.130  -0.098   1.075  0.00  0.00    +0.025 A 
ATOM     26  C   UNL     1       4.055  -0.994   1.573  0.00  0.00    +0.029 A 
ATOM     27  C   UNL     1       4.520  -0.861   2.869  0.00  0.00    +0.094 A 
ATOM     28  C   UNL     1       4.065   0.172   3.668  0.00  0.00    +0.029 A 
ATOM     29  C   UNL     1       3.144   1.074   3.174  0.00  0.00    +0.025 A 
BRANCH  27  30
ATOM     30  S   UNL     1       5.697  -2.010   3.502  0.00  0.00    +0.025 S 
ATOM     31  O   UNL     1       6.372  -2.560   2.380  0.00  0.00    -0.164 OA
ATOM     32  O   UNL     1       6.383  -1.349   4.556  0.00  0.00    -0.164 OA
BRANCH  30  33
ATOM     33  C   UNL     1       4.791  -3.329   4.241  0.00  0.00    +0.094 A 
ATOM     34  C   UNL     1       4.447  -3.265   5.579  0.00  0.00    +0.029 A 
ATOM     35  C   UNL     1       3.732  -4.294   6.159  0.00  0.00    +0.024 A 
ATOM     36  C   UNL     1       3.369  -5.399   5.401  0.00  0.00    +0.025 A 
ATOM     37  C   UNL     1       3.721  -5.463   4.059  0.00  0.00    +0.024 A 
ATOM     38  C   UNL     1       4.431  -4.428   3.483  0.00  0.00    +0.029 A 
BRANCH  36  39
ATOM     39  N   UNL     1       2.651  -6.445   5.986  0.00  0.00    -0.358 N 
ATOM     40  H   UNL     1       2.397  -7.216   5.455  0.00  0.00    +0.142 HD
ATOM     41  H   UNL     1       2.405  -6.399   6.923  0.00  0.00    +0.142 HD
ENDBRANCH  36  39
ENDBRANCH  30  33
ENDBRANCH  27  30
ENDBRANCH  22  24
ENDBRANCH   1  22
TORSDOF 10
