REMARK  Name = ZINC63557086
REMARK  9 active torsions:
REMARK  status: ('A' for Active; 'I' for Inactive)
REMARK    1  A    between atoms: C_1  and  O_2
REMARK    2  A    between atoms: O_2  and  C_3
REMARK    3  A    between atoms: C_6  and  N_11
REMARK    4  A    between atoms: C_7  and  O_9
REMARK    5  A    between atoms: O_9  and  C_10
REMARK    6  A    between atoms: C_12  and  C_14
REMARK    7  A    between atoms: N_19  and  C_21
REMARK    8  A    between atoms: C_21  and  C_22
REMARK    9  A    between atoms: C_22  and  C_23
REMARK                            x       y       z     vdW  Elec       q    Type
REMARK                         _______ _______ _______ _____ _____    ______ ____
ROOT
ATOM      1  C   UNL     1       3.981  -2.440   6.253  0.00  0.00    +0.101 C 
ATOM      2  C   UNL     1       3.052  -3.263   7.176  0.00  0.00    +0.110 C 
ATOM      3  C   UNL     1       3.645  -3.081   8.556  0.00  0.00    +0.216 C 
ATOM      4  O   UNL     1       3.391  -3.775   9.517  0.00  0.00    -0.276 OA
ATOM      5  N   UNL     1       4.493  -2.038   8.560  0.00  0.00    -0.300 N 
ATOM      6  C   UNL     1       4.569  -1.406   7.238  0.00  0.00    +0.121 C 
ENDROOT
BRANCH   1   8
ATOM      7  N   UNL     1       2.546  -2.497   4.238  0.00  0.00    -0.282 N 
ATOM      8  C   UNL     1       3.192  -1.760   5.163  0.00  0.00    +0.222 C 
ATOM      9  O   UNL     1       3.140  -0.549   5.118  0.00  0.00    -0.275 OA
ATOM     10  H   UNL     1       2.521  -3.463   4.319  0.00  0.00    +0.155 HD
BRANCH   7  14
ATOM     11  C   UNL     1       0.654  -0.622   1.024  0.00  0.00    +0.124 A 
ATOM     12  C   UNL     1       1.711   0.003   1.669  0.00  0.00    +0.047 A 
ATOM     13  C   UNL     1       2.337  -0.617   2.733  0.00  0.00    +0.030 A 
ATOM     14  C   UNL     1       1.910  -1.867   3.158  0.00  0.00    +0.076 A 
ATOM     15  C   UNL     1       0.849  -2.495   2.511  0.00  0.00    +0.145 A 
ATOM     16  C   UNL     1       0.219  -1.868   1.448  0.00  0.00    +0.093 A 
BRANCH  11  18
ATOM     17  C   UNL     1       0.540   1.274  -0.408  0.00  0.00    +0.277 C 
ATOM     18  O   UNL     1       0.040  -0.009  -0.024  0.00  0.00    -0.495 OA
ENDBRANCH  11  18
BRANCH  15  19
ATOM     19  O   UNL     1       0.428  -3.720   2.925  0.00  0.00    -0.493 OA
ATOM     20  C   UNL     1      -0.666  -4.305   2.215  0.00  0.00    +0.277 C 
ENDBRANCH  15  19
ENDBRANCH   7  14
ENDBRANCH   1   8
BRANCH   5  21
ATOM     21  C   UNL     1       5.246  -1.591   9.735  0.00  0.00    +0.112 C 
BRANCH  21  22
ATOM     22  C   UNL     1       6.593  -2.315   9.783  0.00  0.00    +0.052 C 
BRANCH  22  23
ATOM     23  C   UNL     1       7.368  -1.855  10.991  0.00  0.00    -0.040 C 
ATOM     24  C   UNL     1       7.416  -2.454  12.203  0.00  0.00    +0.000 A 
ATOM     25  C   UNL     1       6.786  -3.667  12.738  0.00  0.00    +0.030 A 
ATOM     26  C   UNL     1       7.029  -4.021  14.021  0.00  0.00    +0.042 A 
ATOM     27  C   UNL     1       7.866  -3.259  14.850  0.00  0.00    +0.022 A 
ATOM     28  C   UNL     1       8.480  -2.134  14.429  0.00  0.00    +0.027 A 
ATOM     29  C   UNL     1       8.296  -1.669  13.098  0.00  0.00    +0.043 A 
ATOM     30  N   UNL     1       8.772  -0.625  12.464  0.00  0.00    -0.380 N 
ATOM     31  C   UNL     1       8.253  -0.633  11.092  0.00  0.00    +0.144 C 
ATOM     32 CL   UNL     1       6.285  -5.455  14.658  0.00  0.00    -0.084 Cl
ATOM     33  H   UNL     1       9.370   0.041  12.839  0.00  0.00    +0.160 HD
ENDBRANCH  22  23
ENDBRANCH  21  22
ENDBRANCH   5  21
TORSDOF 7
