REMARK  Name = ZINC14944232
REMARK  6 active torsions:
REMARK  status: ('A' for Active; 'I' for Inactive)
REMARK    1  A    between atoms: C_1  and  C_2
REMARK    2  A    between atoms: C_4  and  N_7
REMARK    3  A    between atoms: N_7  and  S_8
REMARK    4  A    between atoms: S_8  and  C_11
REMARK    5  A    between atoms: C_28  and  C_31
REMARK    6  A    between atoms: C_35  and  C_37
REMARK                            x       y       z     vdW  Elec       q    Type
REMARK                         _______ _______ _______ _____ _____    ______ ____
ROOT
ATOM      1  C   UNL     1      -2.050  -5.963  -0.022  0.00  0.00    +0.111 A 
ATOM      2  C   UNL     1      -2.564  -6.428   1.175  0.00  0.00    +0.031 A 
ATOM      3  C   UNL     1      -3.596  -7.345   1.187  0.00  0.00    +0.025 A 
ATOM      4  C   UNL     1      -4.127  -7.811  -0.006  0.00  0.00    +0.031 A 
ATOM      5  C   UNL     1      -3.587  -7.337  -1.217  0.00  0.00    -0.021 A 
ATOM      6  C   UNL     1      -2.574  -6.419  -1.222  0.00  0.00    +0.034 A 
ATOM      7  C   UNL     1      -4.209  -7.931  -2.429  0.00  0.00    +0.029 C 
ATOM      8  C   UNL     1      -3.456  -7.932  -3.763  0.00  0.00    -0.003 C 
ATOM      9  C   UNL     1      -2.154  -8.767  -3.621  0.00  0.00    +0.004 C 
ATOM     10  C   UNL     1      -2.583 -10.254  -3.589  0.00  0.00    +0.004 C 
ATOM     11  C   UNL     1      -4.151 -10.162  -3.449  0.00  0.00    -0.005 C 
ATOM     12  C   UNL     1      -4.391  -8.981  -4.499  0.00  0.00    +0.008 C 
ATOM     13  C   UNL     1      -4.290  -9.449  -2.105  0.00  0.00    +0.024 C 
ATOM     14  C   UNL     1      -5.391  -9.682  -1.125  0.00  0.00    +0.105 C 
ATOM     15  N   UNL     1      -5.185  -8.726  -0.011  0.00  0.00    -0.336 N 
ATOM     16  H   UNL     1      -5.803  -8.735   0.736  0.00  0.00    +0.147 HD
ENDROOT
BRANCH  14  17
ATOM     17  C   UNL     1      -5.331 -11.096  -0.610  0.00  0.00    -0.026 A 
ATOM     18  C   UNL     1      -4.433 -11.430   0.389  0.00  0.00    +0.005 A 
ATOM     19  C   UNL     1      -4.371 -12.726   0.869  0.00  0.00    +0.001 A 
ATOM     20  C   UNL     1      -5.204 -13.696   0.353  0.00  0.00    +0.015 A 
ATOM     21  C   UNL     1      -6.113 -13.367  -0.655  0.00  0.00    +0.063 A 
ATOM     22  C   UNL     1      -6.175 -12.055  -1.131  0.00  0.00    +0.020 A 
BRANCH  21  23
ATOM     23  C   UNL     1      -7.008 -14.400  -1.212  0.00  0.00    +0.387 C 
ATOM     24  O   UNL     1      -6.956 -15.547  -0.790  0.00  0.00    -0.241 OA
ATOM     25  O   UNL     1      -7.803 -14.109  -2.095  0.00  0.00    -0.241 OA
ENDBRANCH  21  23
ENDBRANCH  14  17
BRANCH   1  26
ATOM     26  S   UNL     1      -0.738  -4.787  -0.022  0.00  0.00    +0.093 S 
ATOM     27  O   UNL     1      -0.075  -4.918  -1.272  0.00  0.00    -0.148 OA
ATOM     28  O   UNL     1      -0.062  -4.933   1.218  0.00  0.00    -0.148 OA
BRANCH  26  29
ATOM     29  N   UNL     1      -1.430  -3.282  -0.010  0.00  0.00    -0.074 NA
BRANCH  29  33
ATOM     30  C   UNL     1      -0.018   1.503   0.010  0.00  0.00    +0.089 C 
ATOM     31  C   UNL     1       0.002  -0.004   0.002  0.00  0.00    +0.136 A 
ATOM     32  C   UNL     1      -1.076  -0.807   0.003  0.00  0.00    +0.094 A 
ATOM     33  C   UNL     1      -0.625  -2.147  -0.008  0.00  0.00    +0.205 A 
ATOM     34  N   UNL     1       0.684  -2.130  -0.014  0.00  0.00    -0.060 NA
ATOM     35  O   UNL     1       1.100  -0.776  -0.013  0.00  0.00    -0.358 OA
ENDBRANCH  29  33
ENDBRANCH  26  29
ENDBRANCH   1  26
TORSDOF 5
