REMARK  Name = ZINC17197448
REMARK  6 active torsions:
REMARK  status: ('A' for Active; 'I' for Inactive)
REMARK    1  A    between atoms: C_1  and  O_2
REMARK    2  A    between atoms: O_2  and  C_3
REMARK    3  A    between atoms: C_8  and  O_9
REMARK    4  A    between atoms: O_9  and  C_10
REMARK    5  A    between atoms: C_11  and  C_16
REMARK    6  A    between atoms: N_21  and  C_24
REMARK                            x       y       z     vdW  Elec       q    Type
REMARK                         _______ _______ _______ _____ _____    ______ ____
ROOT
ATOM      1  C   UNL     1      -1.453   4.656   2.332  0.00  0.00    +0.162 A 
ATOM      2  C   UNL     1      -1.220   3.294   2.263  0.00  0.00    +0.053 A 
ATOM      3  C   UNL     1      -0.917   2.695   1.049  0.00  0.00    -0.044 A 
ATOM      4  C   UNL     1      -0.843   3.459  -0.097  0.00  0.00    -0.050 A 
ATOM      5  C   UNL     1      -1.078   4.825  -0.032  0.00  0.00    +0.052 A 
ATOM      6  C   UNL     1      -1.383   5.427   1.176  0.00  0.00    +0.162 A 
ATOM      7  C   UNL     1      -0.511   2.853  -1.435  0.00  0.00    +0.001 C 
ATOM      8  N   UNL     1      -0.705   1.400  -1.404  0.00  0.00    +0.387 N 
ATOM      9  C   UNL     1       0.030   0.813  -0.272  0.00  0.00    -0.077 C 
ATOM     10  C   UNL     1      -0.675   1.206   1.026  0.00  0.00    +0.016 C 
ATOM     11  H   UNL     1      -1.776   1.175  -1.293  0.00  0.00    -0.085 HD
ATOM     12  H   UNL     1      -0.333   0.960  -2.341  0.00  0.00    -0.085 HD
ENDROOT
BRANCH   7  13
ATOM     13  C   UNL     1      -1.409   3.451  -2.488  0.00  0.00    +0.072 A 
ATOM     14  C   UNL     1      -0.890   4.233  -3.477  0.00  0.00    +0.258 A 
ATOM     15  N   UNL     1      -1.725   4.767  -4.424  0.00  0.00    -0.302 N 
ATOM     16  C   UNL     1      -3.048   4.524  -4.382  0.00  0.00    +0.164 A 
ATOM     17  S   UNL     1      -4.069   5.203  -5.577  0.00  0.00    -0.013 S 
ATOM     18  N   UNL     1      -3.580   3.755  -3.414  0.00  0.00    -0.285 N 
ATOM     19  C   UNL     1      -2.794   3.207  -2.467  0.00  0.00    +0.260 A 
ATOM     20  O   UNL     1      -3.280   2.507  -1.595  0.00  0.00    -0.267 OA
ATOM     21  O   UNL     1       0.437   4.480  -3.523  0.00  0.00    -0.267 OA
ATOM     22  H   UNL     1      -1.315   5.399  -5.226  0.00  0.00    +0.171 HD
BRANCH  18  23
ATOM     23  C   UNL     1      -5.024   3.508  -3.394  0.00  0.00    +0.093 C 
ATOM     24  C   UNL     1      -5.611   4.023  -2.078  0.00  0.00    +0.025 C 
ATOM     25  C   UNL     1      -7.119   3.765  -2.057  0.00  0.00    +0.002 C 
ATOM     26  C   UNL     1      -7.381   2.262  -2.178  0.00  0.00    +0.000 C 
ATOM     27  C   UNL     1      -6.793   1.747  -3.494  0.00  0.00    +0.002 C 
ATOM     28  C   UNL     1      -5.285   2.005  -3.515  0.00  0.00    +0.025 C 
ENDBRANCH  18  23
ENDBRANCH   7  13
BRANCH   1  30
ATOM     29  C   UNL     1      -1.805   4.384   4.668  0.00  0.00    +0.277 C 
ATOM     30  O   UNL     1      -1.750   5.239   3.525  0.00  0.00    -0.491 OA
ENDBRANCH   1  30
BRANCH   6  31
ATOM     31  O   UNL     1      -1.613   6.766   1.232  0.00  0.00    -0.491 OA
ATOM     32  C   UNL     1      -1.524   7.492   0.005  0.00  0.00    +0.277 C 
ENDBRANCH   6  31
TORSDOF 4
