REMARK  Name = ZINC36612932
REMARK  14 active torsions:
REMARK  status: ('A' for Active; 'I' for Inactive)
REMARK    1  A    between atoms: C_1  and  C_2
REMARK    2  A    between atoms: C_2  and  O_3
REMARK    3  A    between atoms: O_3  and  C_4
REMARK    4  A    between atoms: C_6  and  C_16
REMARK    5  A    between atoms: C_9  and  O_10
REMARK    6  A    between atoms: O_10  and  C_11
REMARK    7  A    between atoms: C_11  and  C_12
REMARK    8  A    between atoms: C_16  and  N_17
REMARK    9  A    between atoms: N_17  and  C_18
REMARK   10  A    between atoms: C_18  and  C_20
REMARK   11  A    between atoms: C_18  and  C_21
REMARK   12  A    between atoms: C_21  and  C_22
REMARK   13  A    between atoms: C_21  and  C_23
REMARK   14  A    between atoms: C_21  and  C_24
REMARK                            x       y       z     vdW  Elec       q    Type
REMARK                         _______ _______ _______ _____ _____    ______ ____
ROOT
ATOM      1  C   UNL     1      -1.498  -1.849   0.006  0.00  0.00    +0.162 A 
ATOM      2  C   UNL     1      -0.389  -2.680  -0.003  0.00  0.00    +0.052 A 
ATOM      3  C   UNL     1      -0.553  -4.052  -0.009  0.00  0.00    -0.047 A 
ATOM      4  C   UNL     1      -1.823  -4.600  -0.005  0.00  0.00    +0.023 A 
ATOM      5  C   UNL     1      -2.934  -3.777   0.004  0.00  0.00    +0.065 A 
ATOM      6  C   UNL     1      -2.776  -2.400   0.016  0.00  0.00    +0.164 A 
ATOM      7 BR   UNL     1      -2.041  -6.479  -0.013  0.00  0.00    -0.050 Br
ENDROOT
BRANCH   1   8
ATOM      8  O   UNL     1      -1.339  -0.499   0.012  0.00  0.00    -0.489 OA
BRANCH   8  10
ATOM      9  C   UNL     1      -0.019   1.526   0.010  0.00  0.00    +0.048 C 
ATOM     10  C   UNL     1       0.002  -0.004   0.002  0.00  0.00    +0.226 C 
ENDBRANCH   8  10
ENDBRANCH   1   8
BRANCH   6  11
ATOM     11  O   UNL     1      -3.868  -1.589   0.031  0.00  0.00    -0.479 OA
BRANCH  11  12
ATOM     12  C   UNL     1      -5.148  -2.224   0.040  0.00  0.00    +0.324 C 
BRANCH  12  13
ATOM     13  C   UNL     1      -6.229  -1.174   0.056  0.00  0.00    +0.248 C 
ATOM     14  O   UNL     1      -5.933   0.002   0.060  0.00  0.00    -0.272 OA
ATOM     15  N   UNL     1      -7.526  -1.542   0.067  0.00  0.00    -0.327 N 
ATOM     16  H   UNL     1      -7.763  -2.483   0.064  0.00  0.00    +0.145 HD
ATOM     17  H   UNL     1      -8.222  -0.867   0.077  0.00  0.00    +0.145 HD
ENDBRANCH  12  13
ENDBRANCH  11  12
ENDBRANCH   6  11
BRANCH   3  18
ATOM     18  C   UNL     1       0.655  -4.954  -0.019  0.00  0.00    -0.045 C 
BRANCH  18  19
ATOM     19  N   UNL     1       0.840  -5.540   1.315  0.00  0.00    +0.384 N 
ATOM     20  H   UNL     1       0.976  -4.803   1.990  0.00  0.00    -0.085 HD
ATOM     21  H   UNL     1       0.022  -6.077   1.562  0.00  0.00    -0.085 HD
BRANCH  19  22
ATOM     22  C   UNL     1       2.017  -6.419   1.304  0.00  0.00    -0.069 C 
ATOM     23  C   UNL     1       1.760  -7.605   0.372  0.00  0.00    -0.013 C 
BRANCH  22  24
ATOM     24  C   UNL     1       2.283  -6.932   2.721  0.00  0.00    -0.050 C 
ATOM     25  C   UNL     1       1.066  -7.715   3.217  0.00  0.00    +0.009 C 
ATOM     26  C   UNL     1       3.509  -7.847   2.710  0.00  0.00    +0.009 C 
ATOM     27  C   UNL     1       2.540  -5.746   3.653  0.00  0.00    +0.009 C 
ENDBRANCH  22  24
ENDBRANCH  19  22
ENDBRANCH  18  19
ENDBRANCH   3  18
TORSDOF 9
