REMARK  Name = ZINC04244698
REMARK  11 active torsions:
REMARK  status: ('A' for Active; 'I' for Inactive)
REMARK    1  A    between atoms: C_1  and  C_2
REMARK    2  A    between atoms: C_5  and  S_8
REMARK    3  A    between atoms: S_8  and  N_11
REMARK    4  A    between atoms: N_11  and  C_12
REMARK    5  A    between atoms: C_14  and  O_26
REMARK    6  A    between atoms: C_15  and  O_24
REMARK    7  A    between atoms: C_17  and  C_18
REMARK    8  A    between atoms: C_18  and  C_20
REMARK    9  A    between atoms: C_20  and  C_22
REMARK   10  A    between atoms: O_24  and  C_25
REMARK   11  A    between atoms: O_26  and  C_27
REMARK                            x       y       z     vdW  Elec       q    Type
REMARK                         _______ _______ _______ _____ _____    ______ ____
ROOT
ATOM      1  C   UNL     1       3.364   2.641   1.408  0.00  0.00    +0.062 A 
ATOM      2  C   UNL     1       4.012   2.633   2.633  0.00  0.00    +0.074 A 
ATOM      3  C   UNL     1       3.345   2.207   3.770  0.00  0.00    +0.163 A 
ATOM      4  C   UNL     1       2.014   1.788   3.691  0.00  0.00    +0.162 A 
ATOM      5  C   UNL     1       1.354   1.797   2.482  0.00  0.00    +0.062 A 
ATOM      6  C   UNL     1       2.021   2.227   1.325  0.00  0.00    +0.045 A 
ENDROOT
BRANCH   1   7
ATOM      7  N   UNL     1       4.035   3.062   0.267  0.00  0.00    -0.215 N 
ATOM      8  H   UNL     1       3.558   3.547  -0.425  0.00  0.00    +0.174 HD
BRANCH   7   9
ATOM      9  S   UNL     1       5.648   2.735   0.087  0.00  0.00    +0.072 S 
ATOM     10  O   UNL     1       6.006   3.163  -1.220  0.00  0.00    -0.150 OA
ATOM     11  O   UNL     1       6.295   3.227   1.253  0.00  0.00    -0.150 OA
BRANCH   9  16
ATOM     12  C   UNL     1       6.274  -3.265   0.168  0.00  0.00    +0.044 C 
ATOM     13  C   UNL     1       6.118  -1.767   0.148  0.00  0.00    -0.050 A 
ATOM     14  C   UNL     1       5.907  -1.110  -1.050  0.00  0.00    +0.005 A 
ATOM     15  C   UNL     1       5.764   0.265  -1.069  0.00  0.00    +0.029 A 
ATOM     16  C   UNL     1       5.831   0.983   0.111  0.00  0.00    +0.109 A 
ATOM     17  C   UNL     1       6.046   0.327   1.308  0.00  0.00    +0.029 A 
ATOM     18  C   UNL     1       6.185  -1.049   1.327  0.00  0.00    +0.005 A 
ENDBRANCH   9  16
ENDBRANCH   7   9
ENDBRANCH   1   7
BRANCH   6  19
ATOM     19  C   UNL     1       1.326   2.238   0.037  0.00  0.00    +0.178 C 
ATOM     20  O   UNL     1       0.536   3.123  -0.218  0.00  0.00    -0.291 OA
BRANCH  19  21
ATOM     21  C   UNL     1       1.592   1.151  -0.972  0.00  0.00    +0.124 C 
ATOM     22  C   UNL     1       2.774   1.553  -1.856  0.00  0.00    +0.028 C 
ATOM     23 BR   UNL     1       2.015  -0.525  -0.035  0.00  0.00    -0.080 Br
ENDBRANCH  19  21
ENDBRANCH   6  19
BRANCH   4  24
ATOM     24  O   UNL     1       1.367   1.372   4.814  0.00  0.00    -0.491 OA
ATOM     25  C   UNL     1       0.007   0.958   4.663  0.00  0.00    +0.277 C 
ENDBRANCH   4  24
BRANCH   3  26
ATOM     26  O   UNL     1       3.986   2.196   4.966  0.00  0.00    -0.491 OA
ATOM     27  C   UNL     1       5.346   2.636   4.977  0.00  0.00    +0.277 C 
ENDBRANCH   3  26
TORSDOF 7
