REMARK  Name = ZINC39430470
REMARK  7 active torsions:
REMARK  status: ('A' for Active; 'I' for Inactive)
REMARK    1  A    between atoms: C_1  and  O_2
REMARK    2  A    between atoms: O_2  and  C_3
REMARK    3  A    between atoms: C_8  and  C_22
REMARK    4  A    between atoms: C_17  and  C_20
REMARK    5  A    between atoms: C_20  and  O_21
REMARK    6  A    between atoms: C_22  and  N_23
REMARK    7  A    between atoms: N_23  and  C_24
REMARK                            x       y       z     vdW  Elec       q    Type
REMARK                         _______ _______ _______ _____ _____    ______ ____
ROOT
ATOM      1  C   UNL     1      -0.946  -0.898  -0.076  0.00  0.00    +0.122 A 
ATOM      2  C   UNL     1      -1.995   0.027  -0.060  0.00  0.00    +0.046 A 
ATOM      3  C   UNL     1      -3.290  -0.390  -0.070  0.00  0.00    +0.013 A 
ATOM      4  C   UNL     1      -3.583  -1.762  -0.096  0.00  0.00    +0.001 A 
ATOM      5  C   UNL     1      -4.915  -2.223  -0.108  0.00  0.00    +0.015 A 
ATOM      6  C   UNL     1      -5.134  -3.568  -0.134  0.00  0.00    -0.024 A 
ATOM      7  C   UNL     1      -4.047  -4.452  -0.149  0.00  0.00    +0.123 A 
ATOM      8  N   UNL     1      -2.804  -4.016  -0.138  0.00  0.00    -0.232 NA
ATOM      9  C   UNL     1      -2.528  -2.707  -0.113  0.00  0.00    +0.077 A 
ATOM     10  C   UNL     1      -1.200  -2.250  -0.107  0.00  0.00    +0.074 A 
ATOM     11  N   UNL     1      -4.285  -5.819  -0.176  0.00  0.00    -0.315 N 
ATOM     12  C   UNL     1      -4.394  -6.584   1.073  0.00  0.00    +0.106 C 
ATOM     13  C   UNL     1      -3.415  -7.761   1.017  0.00  0.00    +0.019 C 
ATOM     14  C   UNL     1      -3.681  -8.581  -0.247  0.00  0.00    +0.009 C 
ATOM     15  C   UNL     1      -3.455  -7.705  -1.482  0.00  0.00    +0.032 C 
ATOM     16  C   UNL     1      -4.440  -6.527  -1.454  0.00  0.00    +0.112 C 
ENDROOT
BRANCH   1  18
ATOM     17  C   UNL     1       0.538   0.959  -0.032  0.00  0.00    +0.277 C 
ATOM     18  O   UNL     1       0.339  -0.456  -0.065  0.00  0.00    -0.495 OA
ENDBRANCH   1  18
BRANCH  15  19
ATOM     19  C   UNL     1      -3.688  -8.535  -2.746  0.00  0.00    +0.160 C 
BRANCH  19  20
ATOM     20  O   UNL     1      -2.702  -9.566  -2.829  0.00  0.00    -0.395 OA
ATOM     21  H   UNL     1      -2.789 -10.132  -3.607  0.00  0.00    +0.209 HD
ENDBRANCH  19  20
ENDBRANCH  15  19
BRANCH   6  22
ATOM     22  C   UNL     1      -6.543  -4.103  -0.146  0.00  0.00    -0.043 C 
BRANCH  22  23
ATOM     23  N   UNL     1      -6.931  -4.490   1.216  0.00  0.00    +0.384 N 
ATOM     24  H   UNL     1      -6.263  -5.151   1.582  0.00  0.00    -0.085 HD
ATOM     25  H   UNL     1      -6.952  -3.671   1.806  0.00  0.00    -0.085 HD
BRANCH  23  26
ATOM     26  C   UNL     1      -8.264  -5.107   1.189  0.00  0.00    -0.071 C 
ATOM     27  C   UNL     1      -9.290  -4.058   0.712  0.00  0.00    -0.016 C 
ATOM     28  C   UNL     1     -10.508  -4.779   0.200  0.00  0.00    -0.002 C 
ATOM     29  C   UNL     1     -11.597  -4.935   1.278  0.00  0.00    -0.000 C 
ATOM     30  C   UNL     1     -11.023  -5.316   2.656  0.00  0.00    -0.000 C 
ATOM     31  C   UNL     1      -9.933  -6.348   2.561  0.00  0.00    -0.002 C 
ATOM     32  C   UNL     1      -8.573  -5.622   2.514  0.00  0.00    -0.016 C 
ENDBRANCH  23  26
ENDBRANCH  22  23
ENDBRANCH   6  22
TORSDOF 6
