REMARK  Name = ZINC56786674
REMARK  8 active torsions:
REMARK  status: ('A' for Active; 'I' for Inactive)
REMARK    1  A    between atoms: C_1  and  N_2
REMARK    2  A    between atoms: N_2  and  C_3
REMARK    3  A    between atoms: N_2  and  C_4
REMARK    4  A    between atoms: C_4  and  C_6
REMARK    5  A    between atoms: C_4  and  C_22
REMARK    6  A    between atoms: C_6  and  N_7
REMARK    7  A    between atoms: N_10  and  C_11
REMARK    8  A    between atoms: C_14  and  C_17
REMARK                            x       y       z     vdW  Elec       q    Type
REMARK                         _______ _______ _______ _____ _____    ______ ____
ROOT
ATOM      1  N   UNL     1      -1.779   1.535  -1.159  0.00  0.00    -0.300 N 
ATOM      2  C   UNL     1      -2.270   2.265  -2.180  0.00  0.00    +0.304 C 
ATOM      3  O   UNL     1      -2.954   1.734  -3.033  0.00  0.00    -0.253 OA
ATOM      4  N   UNL     1      -2.004   3.585  -2.254  0.00  0.00    -0.269 N 
ATOM      5  H   UNL     1      -1.233   1.959  -0.478  0.00  0.00    +0.150 HD
ATOM      6  H   UNL     1      -1.399   3.994  -1.616  0.00  0.00    +0.156 HD
ENDROOT
BRANCH   4   7
ATOM      7  C   UNL     1      -2.602   4.364  -3.251  0.00  0.00    +0.035 A 
ATOM      8  C   UNL     1      -3.894   4.079  -3.673  0.00  0.00    +0.024 A 
ATOM      9  C   UNL     1      -4.485   4.845  -4.655  0.00  0.00    +0.012 A 
ATOM     10  C   UNL     1      -3.784   5.907  -5.225  0.00  0.00    +0.003 A 
ATOM     11  C   UNL     1      -2.488   6.191  -4.800  0.00  0.00    +0.012 A 
ATOM     12  C   UNL     1      -1.903   5.425  -3.813  0.00  0.00    +0.024 A 
BRANCH  10  13
ATOM     13  C   UNL     1      -4.418   6.732  -6.283  0.00  0.00    +0.102 A 
ATOM     14  C   UNL     1      -3.778   7.784  -6.883  0.00  0.00    +0.097 A 
ATOM     15  S   UNL     1      -4.940   8.328  -7.965  0.00  0.00    +0.029 S 
ATOM     16  N   UNL     1      -6.124   7.274  -7.643  0.00  0.00    -0.110 NA
ATOM     17  N   UNL     1      -5.645   6.508  -6.727  0.00  0.00    -0.141 NA
ENDBRANCH  10  13
ENDBRANCH   4   7
BRANCH   1  18
ATOM     18  C   UNL     1      -2.068   0.101  -1.078  0.00  0.00    +0.095 C 
BRANCH  18  19
ATOM     19  C   UNL     1      -1.298  -0.509   0.094  0.00  0.00    -0.021 C 
BRANCH  19  20
ATOM     20  C   UNL     1      -1.812   0.068   1.388  0.00  0.00    -0.057 A 
ATOM     21  C   UNL     1      -2.976  -0.423   1.949  0.00  0.00    +0.002 A 
ATOM     22  C   UNL     1      -3.449   0.105   3.136  0.00  0.00    +0.003 A 
ATOM     23  C   UNL     1      -2.758   1.125   3.762  0.00  0.00    +0.038 A 
ATOM     24  C   UNL     1      -1.592   1.618   3.201  0.00  0.00    +0.124 A 
ATOM     25  C   UNL     1      -1.117   1.083   2.016  0.00  0.00    +0.040 A 
ATOM     26  F   UNL     1      -0.917   2.615   3.813  0.00  0.00    -0.205 F 
ENDBRANCH  19  20
BRANCH  19  28
ATOM     27  C   UNL     1      -0.894  -2.540  -1.117  0.00  0.00    -0.096 C 
ATOM     28  N   UNL     1      -1.486  -1.966   0.099  0.00  0.00    +0.382 N 
ATOM     29  C   UNL     1      -0.831  -2.541   1.281  0.00  0.00    -0.096 C 
ATOM     30  H   UNL     1      -2.473  -2.177   0.124  0.00  0.00    -0.082 HD
ENDBRANCH  19  28
ENDBRANCH  18  19
ENDBRANCH   1  18
TORSDOF 6
