REMARK  Name = ZINC54451790
REMARK  12 active torsions:
REMARK  status: ('A' for Active; 'I' for Inactive)
REMARK    1  A    between atoms: C_1  and  C_2
REMARK    2  A    between atoms: C_2  and  N_3
REMARK    3  A    between atoms: N_3  and  C_4
REMARK    4  A    between atoms: N_3  and  C_6
REMARK    5  A    between atoms: C_4  and  C_5
REMARK    6  A    between atoms: C_9  and  C_12
REMARK    7  A    between atoms: C_12  and  N_13
REMARK    8  A    between atoms: N_13  and  C_14
REMARK    9  A    between atoms: C_22  and  C_24
REMARK   10  A    between atoms: C_24  and  C_25
REMARK   11  A    between atoms: C_28  and  O_31
REMARK   12  A    between atoms: O_31  and  C_32
REMARK                            x       y       z     vdW  Elec       q    Type
REMARK                         _______ _______ _______ _____ _____    ______ ____
ROOT
ATOM      1  N   UNL     1      -2.193  -5.918  -1.191  0.00  0.00    -0.292 N 
ATOM      2  C   UNL     1      -2.368  -5.990   0.143  0.00  0.00    +0.220 C 
ATOM      3  O   UNL     1      -1.407  -5.977   0.883  0.00  0.00    -0.275 OA
ENDROOT
BRANCH   1   4
ATOM      4  C   UNL     1      -3.355  -5.827  -2.079  0.00  0.00    +0.099 C 
ATOM      5  C   UNL     1      -2.879  -5.559  -3.517  0.00  0.00    +0.046 C 
ATOM      6  C   UNL     1      -4.084  -5.779  -4.475  0.00  0.00    +0.168 C 
ATOM      7  S   UNL     1      -4.843  -7.281  -3.723  0.00  0.00    -0.029 S 
ATOM      8  O   UNL     1      -4.309  -8.435  -4.357  0.00  0.00    -0.174 OA
ATOM      9  O   UNL     1      -6.251  -7.105  -3.660  0.00  0.00    -0.174 OA
ATOM     10  C   UNL     1      -4.146  -7.156  -2.026  0.00  0.00    +0.188 C 
ENDBRANCH   1   4
BRANCH   1  11
ATOM     11  C   UNL     1      -0.840  -5.929  -1.754  0.00  0.00    +0.143 C 
BRANCH  11  15
ATOM     12  C   UNL     1       0.751  -1.964  -1.720  0.00  0.00    +0.013 A 
ATOM     13  C   UNL     1       0.826  -2.749  -0.585  0.00  0.00    +0.022 A 
ATOM     14  C   UNL     1       0.311  -4.032  -0.595  0.00  0.00    +0.007 A 
ATOM     15  C   UNL     1      -0.280  -4.530  -1.742  0.00  0.00    -0.030 A 
ATOM     16  C   UNL     1      -0.355  -3.745  -2.877  0.00  0.00    +0.007 A 
ATOM     17  C   UNL     1       0.156  -2.461  -2.865  0.00  0.00    +0.022 A 
BRANCH  12  18
ATOM     18  N   UNL     1       1.272  -0.667  -1.709  0.00  0.00    -0.394 NA
ATOM     19  H   UNL     1       1.129  -0.240  -2.612  0.00  0.00    +0.126 HD
BRANCH  18  21
ATOM     20  C   UNL     1      -0.877   0.320  -1.072  0.00  0.00    +0.022 C 
ATOM     21  C   UNL     1       0.589   0.126  -0.678  0.00  0.00    +0.081 C 
ENDBRANCH  18  21
BRANCH  18  22
ATOM     22  C   UNL     1       2.710  -0.720  -1.414  0.00  0.00    +0.081 C 
ATOM     23  C   UNL     1       3.435  -1.459  -2.540  0.00  0.00    +0.022 C 
ENDBRANCH  18  22
ENDBRANCH  12  18
ENDBRANCH  11  15
ENDBRANCH   1  11
BRANCH   2  24
ATOM     24  C   UNL     1      -3.759  -6.088   0.716  0.00  0.00    +0.131 C 
BRANCH  24  25
ATOM     25  C   UNL     1      -3.690  -5.998   2.219  0.00  0.00    -0.038 A 
ATOM     26  C   UNL     1      -3.542  -7.148   2.973  0.00  0.00    +0.007 A 
ATOM     27  C   UNL     1      -3.480  -7.068   4.350  0.00  0.00    +0.046 A 
ATOM     28  C   UNL     1      -3.565  -5.834   4.977  0.00  0.00    +0.120 A 
ATOM     29  C   UNL     1      -3.713  -4.682   4.218  0.00  0.00    +0.046 A 
ATOM     30  C   UNL     1      -3.770  -4.766   2.841  0.00  0.00    +0.007 A 
BRANCH  28  31
ATOM     31  O   UNL     1      -3.505  -5.753   6.333  0.00  0.00    -0.495 OA
ATOM     32  C   UNL     1      -3.599  -4.449   6.910  0.00  0.00    +0.277 C 
ENDBRANCH  28  31
ENDBRANCH  24  25
ENDBRANCH   2  24
TORSDOF 9
