REMARK  Name = ZINC36612929
REMARK  8 active torsions:
REMARK  status: ('A' for Active; 'I' for Inactive)
REMARK    1  A    between atoms: C_1  and  C_2
REMARK    2  A    between atoms: C_2  and  C_4
REMARK    3  A    between atoms: C_2  and  N_10
REMARK    4  A    between atoms: N_10  and  C_11
REMARK    5  A    between atoms: C_11  and  C_12
REMARK    6  A    between atoms: C_15  and  O_19
REMARK    7  A    between atoms: O_19  and  C_20
REMARK    8  A    between atoms: C_20  and  C_21
REMARK                            x       y       z     vdW  Elec       q    Type
REMARK                         _______ _______ _______ _____ _____    ______ ____
ROOT
ATOM      1  C   UNL     1       0.620  -0.579  -3.634  0.00  0.00    -0.062 A 
ATOM      2  C   UNL     1       1.552   0.229  -4.258  0.00  0.00    +0.020 A 
ATOM      3  C   UNL     1       2.200  -0.215  -5.396  0.00  0.00    +0.061 A 
ATOM      4  C   UNL     1       1.915  -1.472  -5.911  0.00  0.00    +0.149 A 
ATOM      5  C   UNL     1       0.979  -2.280  -5.281  0.00  0.00    +0.061 A 
ATOM      6  C   UNL     1       0.338  -1.834  -4.141  0.00  0.00    +0.020 A 
ATOM      7 BR   UNL     1       0.587  -3.994  -5.978  0.00  0.00    -0.046 Br
ATOM      8 BR   UNL     1       3.474   0.891  -6.251  0.00  0.00    -0.046 Br
ENDROOT
BRANCH   1   9
ATOM      9  C   UNL     1      -0.086  -0.093  -2.394  0.00  0.00    -0.046 C 
BRANCH   9  10
ATOM     10  N   UNL     1       0.690  -0.478  -1.207  0.00  0.00    +0.386 N 
ATOM     11  H   UNL     1       1.608  -0.063  -1.256  0.00  0.00    -0.085 HD
ATOM     12  H   UNL     1       0.776  -1.482  -1.172  0.00  0.00    -0.085 HD
BRANCH  10  14
ATOM     13  C   UNL     1      -0.019   1.526   0.010  0.00  0.00    -0.009 C 
ATOM     14  C   UNL     1       0.002  -0.004   0.002  0.00  0.00    -0.044 C 
BRANCH  14  15
ATOM     15  C   UNL     1       0.731  -0.503   1.223  0.00  0.00    -0.062 A 
ATOM     16  C   UNL     1       2.113  -0.514   1.247  0.00  0.00    +0.002 A 
ATOM     17  C   UNL     1       2.782  -0.972   2.366  0.00  0.00    +0.000 A 
ATOM     18  C   UNL     1       2.068  -1.419   3.463  0.00  0.00    +0.000 A 
ATOM     19  C   UNL     1       0.686  -1.407   3.439  0.00  0.00    +0.000 A 
ATOM     20  C   UNL     1       0.017  -0.945   2.321  0.00  0.00    +0.002 A 
ENDBRANCH  14  15
ENDBRANCH  10  14
ENDBRANCH   9  10
ENDBRANCH   1   9
BRANCH   4  21
ATOM     21  O   UNL     1       2.550  -1.909  -7.030  0.00  0.00    -0.481 OA
BRANCH  21  22
ATOM     22  C   UNL     1       3.775  -2.622  -6.843  0.00  0.00    +0.324 C 
BRANCH  22  23
ATOM     23  C   UNL     1       4.330  -3.026  -8.185  0.00  0.00    +0.248 C 
ATOM     24  O   UNL     1       3.737  -2.732  -9.200  0.00  0.00    -0.272 OA
ATOM     25  N   UNL     1       5.488  -3.713  -8.256  0.00  0.00    -0.327 N 
ATOM     26  H   UNL     1       5.963  -3.949  -7.443  0.00  0.00    +0.145 HD
ATOM     27  H   UNL     1       5.845  -3.973  -9.119  0.00  0.00    +0.145 HD
ENDBRANCH  22  23
ENDBRANCH  21  22
ENDBRANCH   4  21
TORSDOF 7
