REMARK  Name = ZINC08932709
REMARK  8 active torsions:
REMARK  status: ('A' for Active; 'I' for Inactive)
REMARK    1  A    between atoms: C_1  and  C_2
REMARK    2  A    between atoms: C_2  and  C_3
REMARK    3  A    between atoms: C_2  and  C_4
REMARK    4  A    between atoms: C_14  and  C_16
REMARK    5  A    between atoms: N_19  and  S_22
REMARK    6  A    between atoms: S_22  and  C_25
REMARK    7  A    between atoms: C_30  and  S_31
REMARK    8  A    between atoms: S_31  and  C_32
REMARK                            x       y       z     vdW  Elec       q    Type
REMARK                         _______ _______ _______ _____ _____    ______ ____
ROOT
ATOM      1  C   UNL     1       3.117  -2.148   9.715  0.00  0.00    +0.078 C 
ATOM      2  C   UNL     1       2.293  -1.694  10.922  0.00  0.00    +0.030 C 
ATOM      3  C   UNL     1       2.817  -2.389  12.183  0.00  0.00    +0.110 C 
ATOM      4  N   UNL     1       4.258  -2.127  12.304  0.00  0.00    -0.177 NA
ATOM      5  C   UNL     1       5.130  -2.443  11.165  0.00  0.00    +0.110 C 
ATOM      6  C   UNL     1       4.581  -1.748   9.915  0.00  0.00    +0.030 C 
ENDROOT
BRANCH   1  17
ATOM      7  C   UNL     1      -0.714   1.134   2.840  0.00  0.00    -0.044 A 
ATOM      8  C   UNL     1       0.611   1.520   2.987  0.00  0.00    +0.006 A 
ATOM      9  C   UNL     1       1.372   1.081   4.038  0.00  0.00    +0.029 A 
ATOM     10  C   UNL     1       0.826   0.215   5.014  0.00  0.00    +0.080 A 
ATOM     11  C   UNL     1      -0.526  -0.156   4.832  0.00  0.00    +0.041 A 
ATOM     12  C   UNL     1      -1.282   0.292   3.778  0.00  0.00    +0.021 A 
ATOM     13  S   UNL     1      -0.819  -1.214   6.229  0.00  0.00    -0.052 S 
ATOM     14  C   UNL     1       0.816  -1.101   6.942  0.00  0.00    +0.165 A 
ATOM     15  N   UNL     1       1.433  -0.303   6.103  0.00  0.00    -0.225 NA
ATOM     16  N   UNL     1       1.307  -1.704   8.089  0.00  0.00    -0.264 N 
ATOM     17  C   UNL     1       2.583  -1.493   8.467  0.00  0.00    +0.222 C 
ATOM     18  O   UNL     1       3.302  -0.777   7.804  0.00  0.00    -0.275 OA
ATOM     19  H   UNL     1       0.732  -2.277   8.621  0.00  0.00    +0.157 HD
BRANCH   7  21
ATOM     20  C   UNL     1      -0.870   1.187   0.365  0.00  0.00    +0.012 C 
ATOM     21  C   UNL     1      -1.527   1.633   1.673  0.00  0.00    +0.013 C 
ATOM     22  C   UNL     1      -1.594   3.161   1.714  0.00  0.00    +0.012 C 
ENDBRANCH   7  21
ENDBRANCH   1  17
BRANCH   4  23
ATOM     23  S   UNL     1       4.886  -1.489  13.697  0.00  0.00    +0.062 S 
ATOM     24  O   UNL     1       3.897  -1.658  14.703  0.00  0.00    -0.153 OA
ATOM     25  O   UNL     1       6.201  -2.012  13.826  0.00  0.00    -0.153 OA
BRANCH  23  26
ATOM     26  C   UNL     1       5.056   0.246  13.444  0.00  0.00    +0.119 A 
ATOM     27  C   UNL     1       6.313   0.815  13.376  0.00  0.00    +0.029 A 
ATOM     28  C   UNL     1       6.448   2.176  13.173  0.00  0.00    +0.002 A 
ATOM     29  C   UNL     1       5.325   2.975  13.049  0.00  0.00    +0.001 A 
ATOM     30  C   UNL     1       4.066   2.414  13.121  0.00  0.00    +0.016 A 
ATOM     31  C   UNL     1       3.926   1.046  13.319  0.00  0.00    +0.034 A 
BRANCH  31  32
ATOM     32  S   UNL     1       2.321   0.326  13.413  0.00  0.00    -0.127 S 
ATOM     33  C   UNL     1       1.196   1.732  13.199  0.00  0.00    +0.090 C 
ENDBRANCH  31  32
ENDBRANCH  23  26
ENDBRANCH   4  23
TORSDOF 5
