REMARK  Name = ZINC21971120
REMARK  6 active torsions:
REMARK  status: ('A' for Active; 'I' for Inactive)
REMARK    1  A    between atoms: C_1  and  C_2
REMARK    2  A    between atoms: C_5  and  C_8
REMARK    3  A    between atoms: N_13  and  C_14
REMARK    4  A    between atoms: C_14  and  C_15
REMARK    5  A    between atoms: N_17  and  N_18
REMARK    6  A    between atoms: C_19  and  C_21
REMARK                            x       y       z     vdW  Elec       q    Type
REMARK                         _______ _______ _______ _____ _____    ______ ____
ROOT
ATOM      1  C   UNL     1      -7.105   1.153  -0.041  0.00  0.00    +0.249 C 
ATOM      2  O   UNL     1      -6.798   2.324   0.040  0.00  0.00    -0.272 OA
ATOM      3  N   UNL     1      -6.149   0.204  -0.034  0.00  0.00    -0.233 N 
ATOM      4  H   UNL     1      -6.427  -0.858  -0.107  0.00  0.00    +0.173 HD
ENDROOT
BRANCH   3   5
ATOM      5  N   UNL     1      -4.800   0.569   0.065  0.00  0.00    -0.230 N 
ATOM      6  C   UNL     1      -3.844  -0.381   0.072  0.00  0.00    +0.267 C 
ATOM      7  O   UNL     1      -4.152  -1.556  -0.009  0.00  0.00    -0.268 OA
ATOM      8  H   UNL     1      -4.521   1.630   0.138  0.00  0.00    +0.173 HD
BRANCH   6   9
ATOM      9  C   UNL     1      -2.432   0.000   0.176  0.00  0.00    +0.076 A 
ATOM     10  C   UNL     1      -1.309  -0.807   0.201  0.00  0.00    +0.024 A 
ATOM     11  C   UNL     1      -0.065  -0.196   0.314  0.00  0.00    -0.036 A 
ATOM     12  C   UNL     1      -0.060   1.155   0.363  0.00  0.00    -0.006 A 
ATOM     13  S   UNL     1      -1.712   1.629   0.306  0.00  0.00    -0.088 S 
ATOM     14  C   UNL     1       1.161   2.047   0.434  0.00  0.00    +0.043 C 
ATOM     15  C   UNL     1       1.813   1.815   1.807  0.00  0.00    +0.005 C 
ATOM     16  C   UNL     1       2.624   0.541   1.796  0.00  0.00    +0.001 C 
ATOM     17  C   UNL     1       1.846  -0.750   1.774  0.00  0.00    +0.005 C 
ATOM     18  C   UNL     1       1.224  -1.019   0.403  0.00  0.00    +0.036 C 
ENDBRANCH   6   9
ENDBRANCH   3   5
BRANCH   1  19
ATOM     19  C   UNL     1      -8.556   0.761  -0.148  0.00  0.00    +0.223 C 
BRANCH  19  25
ATOM     20  C   UNL     1      -9.949   2.549   0.986  0.00  0.00    +0.165 A 
ATOM     21  N   UNL     1     -10.620   3.603   0.612  0.00  0.00    -0.128 NA
ATOM     22  N   UNL     1     -10.512   3.715  -0.781  0.00  0.00    -0.121 NA
ATOM     23  C   UNL     1      -9.748   2.691  -1.212  0.00  0.00    +0.203 A 
ATOM     24  S   UNL     1      -9.311   2.371  -2.836  0.00  0.00    -0.009 SA
ATOM     25  N   UNL     1      -9.390   1.966  -0.134  0.00  0.00    -0.292 N 
BRANCH  20  30
ATOM     26  C   UNL     1      -9.399   0.656   6.393  0.00  0.00    +0.044 C 
ATOM     27  C   UNL     1      -9.543   1.152   4.977  0.00  0.00    -0.050 A 
ATOM     28  C   UNL     1     -10.597   1.983   4.642  0.00  0.00    +0.004 A 
ATOM     29  C   UNL     1     -10.734   2.440   3.348  0.00  0.00    +0.012 A 
ATOM     30  C   UNL     1      -9.807   2.063   2.376  0.00  0.00    +0.019 A 
ATOM     31  C   UNL     1      -8.750   1.220   2.719  0.00  0.00    +0.012 A 
ATOM     32  C   UNL     1      -8.620   0.774   4.018  0.00  0.00    +0.004 A 
ENDBRANCH  20  30
ENDBRANCH  19  25
ENDBRANCH   1  19
TORSDOF 5
