REMARK  Name = ZINC30597468
REMARK  7 active torsions:
REMARK  status: ('A' for Active; 'I' for Inactive)
REMARK    1  A    between atoms: C_1  and  C_2
REMARK    2  A    between atoms: C_2  and  C_4
REMARK    3  A    between atoms: C_2  and  N_10
REMARK    4  A    between atoms: N_6  and  C_7
REMARK    5  A    between atoms: C_7  and  C_8
REMARK    6  A    between atoms: N_13  and  S_16
REMARK    7  A    between atoms: S_16  and  C_19
REMARK                            x       y       z     vdW  Elec       q    Type
REMARK                         _______ _______ _______ _____ _____    ______ ____
ROOT
ATOM      1  N   UNL     1      -3.611   1.792   0.029  0.00  0.00    +0.389 N 
ATOM      2  C   UNL     1      -3.581   2.638   1.229  0.00  0.00    -0.060 C 
ATOM      3  C   UNL     1      -4.662   3.719   1.116  0.00  0.00    +0.091 C 
ATOM      4  N   UNL     1      -5.952   3.063   0.849  0.00  0.00    -0.180 NA
ATOM      5  C   UNL     1      -6.025   2.095  -0.256  0.00  0.00    +0.091 C 
ATOM      6  C   UNL     1      -4.890   1.079  -0.088  0.00  0.00    -0.060 C 
ATOM      7  H   UNL     1      -3.514   2.450  -0.847  0.00  0.00    -0.081 HD
ENDROOT
BRANCH   4   8
ATOM      8  S   UNL     1      -7.286   3.407   1.768  0.00  0.00    +0.061 S 
ATOM      9  O   UNL     1      -7.075   4.698   2.323  0.00  0.00    -0.153 OA
ATOM     10  O   UNL     1      -8.419   3.097   0.970  0.00  0.00    -0.153 OA
BRANCH   8  11
ATOM     11  C   UNL     1      -7.295   2.274   3.117  0.00  0.00    +0.107 A 
ATOM     12  C   UNL     1      -7.950   1.062   2.998  0.00  0.00    +0.028 A 
ATOM     13  C   UNL     1      -7.953   0.171   4.054  0.00  0.00    +0.003 A 
ATOM     14  C   UNL     1      -7.311   0.494   5.234  0.00  0.00    +0.020 A 
ATOM     15  C   UNL     1      -6.660   1.709   5.356  0.00  0.00    +0.043 A 
ATOM     16  C   UNL     1      -6.652   2.599   4.297  0.00  0.00    +0.048 A 
ATOM     17 CL   UNL     1      -5.854   2.117   6.839  0.00  0.00    -0.083 Cl
ENDBRANCH   8  11
ENDBRANCH   4   8
BRANCH   1  19
ATOM     18  C   UNL     1      -2.545  -0.035   1.263  0.00  0.00    -0.004 C 
ATOM     19  C   UNL     1      -2.482   0.853   0.018  0.00  0.00    +0.016 C 
BRANCH  19  20
ATOM     20  C   UNL     1      -1.187   1.624   0.017  0.00  0.00    +0.200 C 
ATOM     21  O   UNL     1      -1.204   2.837   0.023  0.00  0.00    -0.278 OA
ATOM     22  N   UNL     1      -0.011   0.966   0.007  0.00  0.00    -0.306 N 
ATOM     23  H   UNL     1       0.004  -0.134   0.006  0.00  0.00    +0.150 HD
BRANCH  22  24
ATOM     24  C   UNL     1       1.248   1.716  -0.001  0.00  0.00    +0.193 C 
BRANCH  24  25
ATOM     25  C   UNL     1       2.379   0.774  -0.017  0.00  0.00    -0.087 C 
ATOM     26  C   UNL     1       3.282   0.024  -0.029  0.00  0.00    +0.005 C 
ENDBRANCH  24  25
ENDBRANCH  22  24
ENDBRANCH  19  20
ENDBRANCH   1  19
TORSDOF 6
