REMARK  Name = ZINC46577281
REMARK  3 active torsions:
REMARK  status: ('A' for Active; 'I' for Inactive)
REMARK    1  A    between atoms: C_5  and  C_6
REMARK    2  A    between atoms: C_12  and  C_15
REMARK    3  A    between atoms: C_23  and  C_25
REMARK                            x       y       z     vdW  Elec       q    Type
REMARK                         _______ _______ _______ _____ _____    ______ ____
ROOT
ATOM      1  C   UNL     1      -3.403  -4.584  -0.517  0.00  0.00    +0.220 C 
ATOM      2  O   UNL     1      -3.231  -5.749  -0.228  0.00  0.00    -0.275 OA
ATOM      3  N   UNL     1      -4.645  -4.132  -0.780  0.00  0.00    -0.298 N 
ATOM      4  C   UNL     1      -4.884  -2.703  -1.028  0.00  0.00    +0.126 C 
ATOM      5  C   UNL     1      -5.586  -2.552  -2.383  0.00  0.00    +0.127 C 
ATOM      6  N   UNL     1      -6.726  -3.479  -2.427  0.00  0.00    -0.298 N 
ATOM      7  C   UNL     1      -6.488  -4.907  -2.179  0.00  0.00    +0.127 C 
ATOM      8  C   UNL     1      -5.784  -5.059  -0.829  0.00  0.00    +0.126 C 
ATOM      9  C   UNL     1      -7.968  -3.026  -2.690  0.00  0.00    +0.222 C 
ATOM     10  O   UNL     1      -8.140  -1.863  -2.986  0.00  0.00    -0.275 OA
ENDROOT
BRANCH   9  11
ATOM     11  C   UNL     1      -9.144  -3.966  -2.616  0.00  0.00    +0.048 C 
ATOM     12  C   UNL     1      -8.975  -5.077  -3.654  0.00  0.00    +0.019 C 
ATOM     13  C   UNL     1     -10.168  -6.032  -3.579  0.00  0.00    -0.009 C 
ATOM     14  C   UNL     1     -11.458  -5.259  -3.865  0.00  0.00    +0.007 C 
ATOM     15  C   UNL     1     -11.627  -4.148  -2.826  0.00  0.00    -0.009 C 
ATOM     16  C   UNL     1     -10.433  -3.194  -2.902  0.00  0.00    +0.019 C 
ATOM     17  C   UNL     1     -11.700  -4.764  -1.428  0.00  0.00    +0.007 C 
ATOM     18  C   UNL     1     -10.411  -5.536  -1.142  0.00  0.00    -0.009 C 
ATOM     19  C   UNL     1     -10.242  -6.647  -2.180  0.00  0.00    +0.007 C 
ATOM     20  C   UNL     1      -9.217  -4.582  -1.217  0.00  0.00    +0.019 C 
ENDBRANCH   9  11
BRANCH   1  27
ATOM     21  C   UNL     1       0.715  -2.789   1.171  0.00  0.00    +0.250 C 
ATOM     22  O   UNL     1       0.349  -3.072   2.296  0.00  0.00    -0.270 OA
ATOM     23  N   UNL     1       0.092  -3.328   0.104  0.00  0.00    -0.297 N 
ATOM     24  C   UNL     1       0.579  -3.068  -1.257  0.00  0.00    +0.108 C 
ATOM     25  C   UNL     1      -0.582  -2.535  -2.103  0.00  0.00    +0.020 C 
ATOM     26  C   UNL     1      -1.753  -3.517  -2.031  0.00  0.00    +0.016 C 
ATOM     27  C   UNL     1      -2.229  -3.642  -0.582  0.00  0.00    +0.092 C 
ATOM     28  C   UNL     1      -1.083  -4.192   0.281  0.00  0.00    +0.120 C 
BRANCH  21  33
ATOM     29  C   UNL     1       2.930  -1.973  -0.003  0.00  0.00    +0.054 A 
ATOM     30  C   UNL     1       3.712  -0.898   0.186  0.00  0.00    +0.195 A 
ATOM     31  O   UNL     1       3.199  -0.151   1.176  0.00  0.00    -0.470 OA
ATOM     32  C   UNL     1       2.082  -0.702   1.661  0.00  0.00    +0.207 A 
ATOM     33  C   UNL     1       1.838  -1.856   0.974  0.00  0.00    +0.074 A 
ENDBRANCH  21  33
ENDBRANCH   1  27
TORSDOF 3
