REMARK  Name = ZINC04167707
REMARK  6 active torsions:
REMARK  status: ('A' for Active; 'I' for Inactive)
REMARK    1  A    between atoms: C_1  and  N_51
REMARK    2  A    between atoms: C_7  and  C_9
REMARK    3  A    between atoms: C_9  and  S_10
REMARK    4  A    between atoms: S_10  and  C_11
REMARK    5  A    between atoms: C_16  and  N_20
REMARK    6  A    between atoms: C_21  and  C_23
REMARK                            x       y       z     vdW  Elec       q    Type
REMARK                         _______ _______ _______ _____ _____    ______ ____
ROOT
ATOM      1  C   UNL     1       1.079   2.066  -0.200  0.00  0.00    +0.136 A 
ATOM      2  N   UNL     1      -0.008   1.349  -0.027  0.00  0.00    -0.233 NA
ATOM      3  C   UNL     1       0.010  -0.003  -0.010  0.00  0.00    +0.080 A 
ATOM      4  C   UNL     1      -1.080  -0.887   0.166  0.00  0.00    +0.031 A 
ATOM      5  C   UNL     1      -0.896  -2.234   0.157  0.00  0.00    +0.025 A 
ATOM      6  C   UNL     1       0.365  -2.797  -0.023  0.00  0.00    +0.035 A 
ATOM      7  C   UNL     1       1.461  -1.960  -0.199  0.00  0.00    +0.040 A 
ATOM      8  C   UNL     1       1.278  -0.601  -0.191  0.00  0.00    +0.042 A 
ATOM      9  S   UNL     1       2.341   0.812  -0.370  0.00  0.00    -0.061 S 
ENDROOT
BRANCH   6  10
ATOM     10  N   UNL     1       0.527  -4.188  -0.028  0.00  0.00    -0.281 N 
ATOM     11  C   UNL     1       1.662  -4.736   0.451  0.00  0.00    +0.248 C 
ATOM     12  O   UNL     1       2.503  -4.031   0.975  0.00  0.00    -0.270 OA
ATOM     13  H   UNL     1      -0.177  -4.757  -0.376  0.00  0.00    +0.155 HD
BRANCH  11  14
ATOM     14  C   UNL     1       1.883  -6.192   0.340  0.00  0.00    +0.037 A 
ATOM     15  C   UNL     1       0.916  -7.004  -0.256  0.00  0.00    +0.016 A 
ATOM     16  C   UNL     1       1.130  -8.361  -0.362  0.00  0.00    +0.039 A 
ATOM     17  C   UNL     1       2.297  -8.922   0.132  0.00  0.00    +0.123 A 
ATOM     18  C   UNL     1       3.259  -8.122   0.729  0.00  0.00    +0.039 A 
ATOM     19  C   UNL     1       3.058  -6.762   0.836  0.00  0.00    +0.016 A 
ATOM     20  F   UNL     1       2.500 -10.254   0.029  0.00  0.00    -0.205 F 
ENDBRANCH  11  14
ENDBRANCH   6  10
BRANCH   1  21
ATOM     21  S   UNL     1       1.250   3.819  -0.253  0.00  0.00    -0.089 S 
BRANCH  21  22
ATOM     22  C   UNL     1      -0.474   4.310  -0.002  0.00  0.00    +0.172 C 
BRANCH  22  29
ATOM     23  C   UNL     1      -4.779   8.084   2.560  0.00  0.00    -0.096 C 
ATOM     24  C   UNL     1      -2.661   8.306   1.408  0.00  0.00    -0.060 C 
ATOM     25  C   UNL     1      -1.891   7.876   0.155  0.00  0.00    +0.089 C 
ATOM     26  N   UNL     1      -1.771   6.410   0.159  0.00  0.00    -0.304 N 
ATOM     27  C   UNL     1      -2.992   5.613   0.348  0.00  0.00    +0.089 C 
ATOM     28  C   UNL     1      -3.718   6.131   1.600  0.00  0.00    -0.060 C 
ATOM     29  C   UNL     1      -0.575   5.814  -0.010  0.00  0.00    +0.226 C 
ATOM     30  O   UNL     1       0.422   6.487  -0.170  0.00  0.00    -0.275 OA
ATOM     31  N   UNL     1      -3.951   7.583   1.444  0.00  0.00    +0.380 N 
ATOM     32  H   UNL     1      -4.449   7.747   0.560  0.00  0.00    -0.082 HD
ENDBRANCH  22  29
ENDBRANCH  21  22
ENDBRANCH   1  21
TORSDOF 5
