REMARK  Name = ZINC49843289
REMARK  4 active torsions:
REMARK  status: ('A' for Active; 'I' for Inactive)
REMARK    1  A    between atoms: C_3  and  C_7
REMARK    2  A    between atoms: N_12  and  S_13
REMARK    3  A    between atoms: S_13  and  C_16
REMARK    4  A    between atoms: C_19  and  N_23
REMARK                            x       y       z     vdW  Elec       q    Type
REMARK                         _______ _______ _______ _____ _____    ______ ____
ROOT
ATOM      1  S   UNL     1       3.811  -0.901  -2.310  0.00  0.00    +0.064 S 
ATOM      2  O   UNL     1       3.949  -2.311  -2.420  0.00  0.00    -0.153 OA
ATOM      3  O   UNL     1       2.619  -0.221  -2.679  0.00  0.00    -0.153 OA
ENDROOT
BRANCH   1   4
ATOM      4  C   UNL     1       5.111  -0.192  -3.264  0.00  0.00    +0.141 A 
ATOM      5  C   UNL     1       5.988  -1.010  -3.951  0.00  0.00    +0.033 A 
ATOM      6  C   UNL     1       7.008  -0.458  -4.701  0.00  0.00    +0.025 A 
ATOM      7  C   UNL     1       7.154   0.922  -4.764  0.00  0.00    +0.027 A 
ATOM      8  C   UNL     1       6.273   1.744  -4.073  0.00  0.00    +0.063 A 
ATOM      9  C   UNL     1       5.250   1.185  -3.328  0.00  0.00    +0.151 A 
ATOM     10  F   UNL     1       4.388   1.982  -2.659  0.00  0.00    -0.203 F 
BRANCH   7  11
ATOM     11  N   UNL     1       8.186   1.483  -5.520  0.00  0.00    -0.358 N 
ATOM     12  H   UNL     1       8.801   0.909  -6.003  0.00  0.00    +0.142 HD
ATOM     13  H   UNL     1       8.287   2.447  -5.564  0.00  0.00    +0.142 HD
ENDBRANCH   7  11
ENDBRANCH   1   4
BRANCH   1  18
ATOM     14  C   UNL     1       3.614   0.681  -0.029  0.00  0.00    +0.126 C 
ATOM     15  C   UNL     1       4.153   0.627   1.416  0.00  0.00    +0.028 C 
ATOM     16  C   UNL     1       5.380  -0.315   1.294  0.00  0.00    +0.019 C 
ATOM     17  C   UNL     1       4.892  -1.326   0.228  0.00  0.00    +0.110 C 
ATOM     18  N   UNL     1       4.102  -0.519  -0.725  0.00  0.00    -0.168 NA
BRANCH  14  21
ATOM     19  C   UNL     1      -0.016   1.344   0.009  0.00  0.00    +0.019 A 
ATOM     20  C   UNL     1       1.322   1.784  -0.001  0.00  0.00    +0.024 A 
ATOM     21  C   UNL     1       2.107   0.688  -0.014  0.00  0.00    +0.035 A 
ATOM     22  N   UNL     1       1.303  -0.413  -0.013  0.00  0.00    -0.363 N 
ATOM     23  H   UNL     1       1.606  -1.334  -0.021  0.00  0.00    +0.165 HD
ATOM     24  C   UNL     1       0.002  -0.004   0.002  0.00  0.00    +0.083 A 
ENDBRANCH  14  21
ENDBRANCH   1  18
TORSDOF 4
