REMARK  Name = ZINC06795880
REMARK  4 active torsions:
REMARK  status: ('A' for Active; 'I' for Inactive)
REMARK    1  A    between atoms: C_1  and  C_2
REMARK    2  A    between atoms: C_14  and  O_27
REMARK    3  A    between atoms: C_16  and  O_26
REMARK    4  A    between atoms: C_20  and  C_25
REMARK                            x       y       z     vdW  Elec       q    Type
REMARK                         _______ _______ _______ _____ _____    ______ ____
ROOT
ATOM      1  C   UNL     1      -1.048   3.076  -1.288  0.00  0.00    +0.011 C 
ATOM      2  C   UNL     1      -0.836   1.565  -1.213  0.00  0.00    -0.029 C 
ATOM      3  C   UNL     1      -2.229   0.893  -1.173  0.00  0.00    +0.007 C 
ATOM      4  C   UNL     1      -2.698   1.207   0.276  0.00  0.00    +0.001 C 
ATOM      5  C   UNL     1      -1.408   1.443   1.107  0.00  0.00    +0.004 C 
ATOM      6  C   UNL     1      -0.280   1.079   0.140  0.00  0.00    -0.002 C 
ATOM      7  C   UNL     1       1.107   1.556   0.440  0.00  0.00    -0.004 C 
ATOM      8  C   UNL     1       1.185   2.997   0.918  0.00  0.00    +0.004 C 
ATOM      9  C   UNL     1       2.623   3.305   1.336  0.00  0.00    +0.007 C 
ATOM     10  C   UNL     1       3.578   3.134   0.159  0.00  0.00    +0.026 C 
ATOM     11  C   UNL     1       3.515   4.336  -0.765  0.00  0.00    +0.147 C 
ATOM     12  C   UNL     1       4.487   4.165  -1.934  0.00  0.00    +0.143 C 
ATOM     13  C   UNL     1       4.095   2.901  -2.702  0.00  0.00    +0.034 C 
ATOM     14  C   UNL     1       4.264   1.686  -1.802  0.00  0.00    +0.010 C 
ATOM     15  C   UNL     1       3.454   1.783  -0.507  0.00  0.00    -0.024 C 
ATOM     16  C   UNL     1       2.035   1.291  -0.740  0.00  0.00    -0.001 C 
ATOM     17  C   UNL     1       1.468   1.707  -2.084  0.00  0.00    +0.005 C 
ATOM     18  C   UNL     1       0.078   1.087  -2.318  0.00  0.00    +0.007 C 
ATOM     19  C   UNL     1       4.116   0.753   0.459  0.00  0.00    +0.012 C 
ENDROOT
BRANCH  12  20
ATOM     20  O   UNL     1       4.402   5.298  -2.799  0.00  0.00    -0.389 OA
ATOM     21  H   UNL     1       4.993   5.255  -3.562  0.00  0.00    +0.210 HD
ENDBRANCH  12  20
BRANCH  11  22
ATOM     22  O   UNL     1       2.203   4.571  -1.264  0.00  0.00    -0.389 OA
ATOM     23  H   UNL     1       2.138   5.333  -1.855  0.00  0.00    +0.210 HD
ENDBRANCH  11  22
TORSDOF 2
