REMARK  Name = ZINC20325894
REMARK  3 active torsions:
REMARK  status: ('A' for Active; 'I' for Inactive)
REMARK    1  A    between atoms: C_6  and  C_7
REMARK    2  A    between atoms: C_7  and  N_8
REMARK    3  A    between atoms: C_11  and  C_25
REMARK                            x       y       z     vdW  Elec       q    Type
REMARK                         _______ _______ _______ _____ _____    ______ ____
ROOT
ATOM      1  N   UNL     1       0.258   0.024   0.091  0.00  0.00    -0.341 N 
ATOM      2  C   UNL     1       1.488  -0.371   0.438  0.00  0.00    +0.098 A 
ATOM      3  C   UNL     1       1.815  -1.704   0.539  0.00  0.00    +0.044 A 
ATOM      4  C   UNL     1       2.993  -2.499   0.876  0.00  0.00    +0.075 A 
ATOM      5  N   UNL     1       2.613  -3.764   0.769  0.00  0.00    -0.276 N 
ATOM      6  N   UNL     1       1.385  -3.888   0.419  0.00  0.00    -0.173 NA
ATOM      7  C   UNL     1       0.791  -2.726   0.248  0.00  0.00    +0.104 A 
ATOM      8  C   UNL     1      -0.543  -2.250  -0.134  0.00  0.00    +0.030 A 
ATOM      9  C   UNL     1      -0.761  -0.860  -0.199  0.00  0.00    +0.055 A 
ATOM     10  C   UNL     1      -2.019  -0.387  -0.559  0.00  0.00    +0.076 A 
ATOM     11  C   UNL     1      -3.041  -1.273  -0.849  0.00  0.00    +0.164 A 
ATOM     12  C   UNL     1      -2.821  -2.650  -0.784  0.00  0.00    +0.163 A 
ATOM     13  C   UNL     1      -1.578  -3.136  -0.427  0.00  0.00    +0.061 A 
ATOM     14  O   UNL     1      -3.820  -3.529  -1.074  0.00  0.00    -0.485 OA
ATOM     15  C   UNL     1      -5.155  -3.012  -1.065  0.00  0.00    +0.270 C 
ATOM     16  C   UNL     1      -5.162  -1.689  -1.843  0.00  0.00    +0.270 C 
ATOM     17  O   UNL     1      -4.264  -0.782  -1.194  0.00  0.00    -0.485 OA
ATOM     18  H   UNL     1       3.330  -4.573   0.975  0.00  0.00    +0.189 HD
ENDROOT
BRANCH   4  19
ATOM     19  C   UNL     1       4.332  -1.996   1.257  0.00  0.00    +0.001 A 
ATOM     20  C   UNL     1       4.835  -0.832   0.674  0.00  0.00    +0.011 A 
ATOM     21  C   UNL     1       6.082  -0.366   1.037  0.00  0.00    +0.020 A 
ATOM     22  C   UNL     1       6.837  -1.056   1.970  0.00  0.00    +0.041 A 
ATOM     23  C   UNL     1       6.345  -2.214   2.548  0.00  0.00    +0.020 A 
ATOM     24  C   UNL     1       5.098  -2.687   2.196  0.00  0.00    +0.011 A 
ATOM     25 CL   UNL     1       8.408  -0.466   2.416  0.00  0.00    -0.084 Cl
ENDBRANCH   4  19
BRANCH   1  26
ATOM     26  C   UNL     1      -0.018   1.461   0.010  0.00  0.00    +0.157 C 
BRANCH  26  32
ATOM     27  C   UNL     1      -1.931   2.061   1.508  0.00  0.00    +0.008 A 
ATOM     28  C   UNL     1      -2.434   2.498   2.719  0.00  0.00    +0.038 A 
ATOM     29  C   UNL     1      -1.570   2.828   3.749  0.00  0.00    +0.123 A 
ATOM     30  C   UNL     1      -0.202   2.714   3.566  0.00  0.00    +0.038 A 
ATOM     31  C   UNL     1       0.299   2.272   2.357  0.00  0.00    +0.008 A 
ATOM     32  C   UNL     1      -0.565   1.943   1.329  0.00  0.00    -0.028 A 
ATOM     33  F   UNL     1      -2.060   3.260   4.931  0.00  0.00    -0.205 F 
ENDBRANCH  26  32
ENDBRANCH   1  26
TORSDOF 3
