REMARK  Name = ZINC35335789
REMARK  3 active torsions:
REMARK  status: ('A' for Active; 'I' for Inactive)
REMARK    1  A    between atoms: C_7  and  C_15
REMARK    2  A    between atoms: N_20  and  C_23
REMARK    3  A    between atoms: C_26  and  N_29
REMARK                            x       y       z     vdW  Elec       q    Type
REMARK                         _______ _______ _______ _____ _____    ______ ____
ROOT
ATOM      1  C   UNL     1       0.896  -2.687   1.385  0.00  0.00    +0.228 C 
ATOM      2  O   UNL     1       0.804  -1.902   2.306  0.00  0.00    -0.275 OA
ATOM      3  N   UNL     1       0.740  -4.007   1.607  0.00  0.00    -0.298 N 
ATOM      4  C   UNL     1       0.963  -4.978   0.526  0.00  0.00    +0.126 C 
ATOM      5  C   UNL     1       2.001  -6.004   0.996  0.00  0.00    +0.124 C 
ATOM      6  N   UNL     1       1.606  -6.499   2.322  0.00  0.00    -0.327 N 
ATOM      7  C   UNL     1       1.383  -5.528   3.403  0.00  0.00    +0.124 C 
ATOM      8  C   UNL     1       0.351  -4.502   2.935  0.00  0.00    +0.126 C 
ENDROOT
BRANCH   1  15
ATOM      9  C   UNL     1      -2.044  -2.748  -1.868  0.00  0.00    +0.001 A 
ATOM     10  C   UNL     1      -2.514  -1.457  -2.022  0.00  0.00    +0.004 A 
ATOM     11  C   UNL     1      -1.787  -0.394  -1.525  0.00  0.00    +0.046 A 
ATOM     12  C   UNL     1      -0.582  -0.619  -0.868  0.00  0.00    +0.133 A 
ATOM     13  C   UNL     1      -0.114  -1.914  -0.715  0.00  0.00    +0.011 A 
ATOM     14  C   UNL     1      -0.848  -2.976  -1.216  0.00  0.00    +0.008 A 
ATOM     15  C   UNL     1       1.185  -2.185  -0.006  0.00  0.00    +0.142 C 
ATOM     16  C   UNL     1       2.013  -0.932   0.081  0.00  0.00    +0.011 A 
ATOM     17  C   UNL     1       3.365  -1.030   0.360  0.00  0.00    +0.008 A 
ATOM     18  C   UNL     1       4.142   0.109   0.445  0.00  0.00    +0.001 A 
ATOM     19  C   UNL     1       3.570   1.353   0.251  0.00  0.00    +0.004 A 
ATOM     20  C   UNL     1       2.223   1.457  -0.029  0.00  0.00    +0.046 A 
ATOM     21  C   UNL     1       1.437   0.313  -0.115  0.00  0.00    +0.133 A 
ATOM     22  O   UNL     1       0.116   0.437  -0.387  0.00  0.00    -0.455 OA
ENDBRANCH   1  15
BRANCH   6  23
ATOM     23  C   UNL     1       1.444  -7.870   2.553  0.00  0.00    +0.030 A 
ATOM     24  C   UNL     1       0.952  -8.316   3.772  0.00  0.00    +0.025 A 
ATOM     25  C   UNL     1       0.792  -9.669   3.999  0.00  0.00    +0.024 A 
ATOM     26  C   UNL     1       1.124 -10.583   3.008  0.00  0.00    +0.025 A 
ATOM     27  C   UNL     1       1.617 -10.137   1.788  0.00  0.00    +0.024 A 
ATOM     28  C   UNL     1       1.771  -8.784   1.559  0.00  0.00    +0.025 A 
BRANCH  26  29
ATOM     29  N   UNL     1       0.963 -11.955   3.238  0.00  0.00    -0.358 N 
ATOM     30  H   UNL     1       0.620 -12.266   4.090  0.00  0.00    +0.142 HD
ATOM     31  H   UNL     1       1.195 -12.593   2.546  0.00  0.00    +0.142 HD
ENDBRANCH  26  29
ENDBRANCH   6  23
TORSDOF 3
