REMARK  Name = ZINC14877615
REMARK  4 active torsions:
REMARK  status: ('A' for Active; 'I' for Inactive)
REMARK    1  A    between atoms: C_1  and  C_2
REMARK    2  A    between atoms: N_7  and  C_10
REMARK    3  A    between atoms: C_12  and  C_13
REMARK    4  A    between atoms: N_15  and  C_16
REMARK                            x       y       z     vdW  Elec       q    Type
REMARK                         _______ _______ _______ _____ _____    ______ ____
ROOT
ATOM      1  C   UNL     1       1.692   3.562  -0.514  0.00  0.00    +0.046 C 
ATOM      2  C   UNL     1       1.289   2.124  -0.312  0.00  0.00    -0.017 A 
ATOM      3  C   UNL     1       2.261   1.121  -0.291  0.00  0.00    +0.076 A 
ATOM      4  C   UNL     1       1.784  -0.195  -0.096  0.00  0.00    +0.116 A 
ATOM      5  N   UNL     1       2.603  -1.238  -0.055  0.00  0.00    -0.230 NA
ATOM      6  C   UNL     1       3.894  -1.100  -0.194  0.00  0.00    +0.203 A 
ATOM      7  N   UNL     1       4.468   0.113  -0.387  0.00  0.00    -0.302 N 
ATOM      8  C   UNL     1       3.729   1.238  -0.444  0.00  0.00    +0.262 A 
ATOM      9  O   UNL     1       4.255   2.323  -0.617  0.00  0.00    -0.267 OA
ATOM     10  C   UNL     1       5.923   0.202  -0.535  0.00  0.00    +0.153 C 
ATOM     11  S   UNL     1       0.028   0.025   0.047  0.00  0.00    -0.064 S 
ATOM     12  C   UNL     1      -0.026   1.799  -0.150  0.00  0.00    +0.080 A 
ENDROOT
BRANCH  12  13
ATOM     13  C   UNL     1      -1.194   2.685  -0.144  0.00  0.00    +0.255 C 
ATOM     14  O   UNL     1      -1.048   3.884  -0.294  0.00  0.00    -0.269 OA
ATOM     15  N   UNL     1      -2.428   2.171   0.026  0.00  0.00    -0.281 N 
ATOM     16  H   UNL     1      -2.552   1.210   0.069  0.00  0.00    +0.155 HD
BRANCH  15  17
ATOM     17  C   UNL     1      -3.530   3.024   0.142  0.00  0.00    +0.035 A 
ATOM     18  C   UNL     1      -4.767   2.634  -0.354  0.00  0.00    +0.023 A 
ATOM     19  C   UNL     1      -5.854   3.478  -0.239  0.00  0.00    +0.003 A 
ATOM     20  C   UNL     1      -5.712   4.712   0.371  0.00  0.00    +0.015 A 
ATOM     21  C   UNL     1      -4.481   5.104   0.866  0.00  0.00    +0.020 A 
ATOM     22  C   UNL     1      -3.391   4.261   0.759  0.00  0.00    +0.038 A 
ATOM     23 BR   UNL     1      -4.292   6.791   1.699  0.00  0.00    -0.050 Br
ENDBRANCH  15  17
ENDBRANCH  12  13
TORSDOF 2
