REMARK  Name = ZINC39371882
REMARK  5 active torsions:
REMARK  status: ('A' for Active; 'I' for Inactive)
REMARK    1  A    between atoms: C_1  and  C_2
REMARK    2  A    between atoms: C_4  and  C_31
REMARK    3  A    between atoms: C_6  and  N_8
REMARK    4  A    between atoms: C_14  and  N_19
REMARK    5  A    between atoms: C_20  and  C_22
REMARK                            x       y       z     vdW  Elec       q    Type
REMARK                         _______ _______ _______ _____ _____    ______ ____
ROOT
ATOM      1  N   UNL     1       0.052  -2.796   2.390  0.00  0.00    -0.246 N 
ATOM      2  C   UNL     1       0.148  -2.242   3.745  0.00  0.00    +0.123 C 
ATOM      3  C   UNL     1       1.369  -1.332   3.900  0.00  0.00    +0.029 C 
ATOM      4  C   UNL     1       1.590  -1.061   5.391  0.00  0.00    +0.004 C 
ATOM      5  C   UNL     1       1.961  -2.344   6.133  0.00  0.00    +0.027 C 
ATOM      6  C   UNL     1       0.791  -3.341   6.075  0.00  0.00    +0.102 C 
ATOM      7  C   UNL     1       0.370  -3.461   4.626  0.00  0.00    -0.013 C 
ATOM      8  C   UNL     1       0.228  -4.523   3.882  0.00  0.00    +0.091 C 
ATOM      9  N   UNL     1      -0.026  -4.189   2.560  0.00  0.00    -0.271 N 
ATOM     10  H   UNL     1      -0.226  -4.824   1.855  0.00  0.00    +0.169 HD
ENDROOT
BRANCH   1  16
ATOM     11  C   UNL     1      -0.154   1.498   0.009  0.00  0.00    +0.044 C 
ATOM     12  C   UNL     1      -0.063  -0.006   0.001  0.00  0.00    -0.048 A 
ATOM     13  C   UNL     1       0.006  -0.688  -1.200  0.00  0.00    +0.006 A 
ATOM     14  C   UNL     1       0.090  -2.068  -1.211  0.00  0.00    -0.048 A 
ATOM     15  C   UNL     1       0.105  -2.771  -0.022  0.00  0.00    +0.028 A 
ATOM     16  C   UNL     1       0.037  -2.089   1.186  0.00  0.00    +0.049 A 
ATOM     17  C   UNL     1      -0.042  -0.702   1.194  0.00  0.00    +0.028 A 
ATOM     18  C   UNL     1       0.163  -2.807  -2.523  0.00  0.00    +0.044 C 
ENDBRANCH   1  16
BRANCH   6  19
ATOM     19  N   UNL     1       1.219  -4.645   6.586  0.00  0.00    -0.307 N 
ATOM     20  C   UNL     1       1.188  -4.893   7.910  0.00  0.00    +0.244 C 
ATOM     21  O   UNL     1       0.805  -4.037   8.679  0.00  0.00    -0.273 OA
ATOM     22  H   UNL     1       1.524  -5.330   5.971  0.00  0.00    +0.149 HD
BRANCH  20  23
ATOM     23  C   UNL     1       1.628  -6.236   8.436  0.00  0.00    +0.241 C 
ATOM     24  C   UNL     1       0.505  -7.248   8.330  0.00  0.00    -0.012 C 
ATOM     25  C   UNL     1       0.259  -7.614   9.587  0.00  0.00    +0.065 C 
ATOM     26  C   UNL     1      -0.860  -8.639   9.614  0.00  0.00    +0.057 C 
ATOM     27  C   UNL     1      -1.546  -8.523   8.236  0.00  0.00    +0.011 C 
ATOM     28  C   UNL     1      -0.401  -7.963   7.362  0.00  0.00    +0.035 C 
ATOM     29  N   UNL     1       1.091  -6.949  10.434  0.00  0.00    -0.158 NA
ATOM     30  N   UNL     1       1.879  -6.171   9.886  0.00  0.00    -0.170 NA
ENDBRANCH  20  23
ENDBRANCH   6  19
TORSDOF 3
