REMARK  Name = ZINC19226517
REMARK  9 active torsions:
REMARK  status: ('A' for Active; 'I' for Inactive)
REMARK    1  A    between atoms: C_1  and  C_2
REMARK    2  A    between atoms: C_2  and  C_3
REMARK    3  A    between atoms: C_3  and  C_4
REMARK    4  A    between atoms: C_6  and  C_10
REMARK    5  A    between atoms: C_10  and  N_11
REMARK    6  A    between atoms: N_11  and  C_12
REMARK    7  A    between atoms: N_11  and  C_13
REMARK    8  A    between atoms: C_13  and  C_14
REMARK    9  A    between atoms: C_18  and  C_20
REMARK                            x       y       z     vdW  Elec       q    Type
REMARK                         _______ _______ _______ _____ _____    ______ ____
ROOT
ATOM      1  C   UNL     1       1.178   1.781   0.000  0.00  0.00    -0.063 A 
ATOM      2  C   UNL     1      -0.013   1.076   0.008  0.00  0.00    +0.002 A 
ATOM      3  C   UNL     1      -1.222   1.748   0.017  0.00  0.00    +0.001 A 
ATOM      4  C   UNL     1      -1.248   3.127   0.030  0.00  0.00    +0.011 A 
ATOM      5  C   UNL     1      -0.050   3.845   0.022  0.00  0.00    +0.018 A 
ATOM      6  C   UNL     1       1.167   3.160   0.007  0.00  0.00    +0.013 A 
ENDROOT
BRANCH   5   7
ATOM      7  C   UNL     1      -0.070   5.322   0.029  0.00  0.00    +0.141 A 
ATOM      8  N   UNL     1      -1.266   5.976   0.043  0.00  0.00    -0.307 N 
ATOM      9  H   UNL     1      -2.205   5.405   0.052  0.00  0.00    +0.170 HD
ATOM     10  C   UNL     1      -1.286   7.325   0.047  0.00  0.00    +0.256 A 
ATOM     11  O   UNL     1      -2.345   7.929   0.060  0.00  0.00    -0.267 OA
ATOM     12  C   UNL     1      -0.060   8.027   0.034  0.00  0.00    +0.052 A 
ATOM     13  C   UNL     1       1.101   7.321   0.025  0.00  0.00    +0.054 A 
ATOM     14  N   UNL     1       1.066   5.984   0.026  0.00  0.00    -0.234 NA
ATOM     15  C   UNL     1       2.444   8.004   0.021  0.00  0.00    +0.071 C 
ATOM     16  C   UNL     1       2.285   9.466  -0.397  0.00  0.00    +0.087 C 
ATOM     17  N   UNL     1       1.218  10.071   0.417  0.00  0.00    -0.311 NA
ATOM     18  C   UNL     1      -0.087   9.530   0.024  0.00  0.00    +0.123 C 
ATOM     19  H   UNL     1       1.396   9.846   1.480  0.00  0.00    +0.122 HD
ENDBRANCH   5   7
BRANCH   1  20
ATOM     20  C   UNL     1       2.490   1.040  -0.016  0.00  0.00    -0.043 C 
BRANCH  20  21
ATOM     21  N   UNL     1       2.904   0.806  -1.406  0.00  0.00    +0.384 N 
ATOM     22  C   UNL     1       1.977  -0.110  -2.084  0.00  0.00    -0.095 C 
ATOM     23  H   UNL     1       2.873   1.771  -1.934  0.00  0.00    -0.081 HD
BRANCH  21  24
ATOM     24  C   UNL     1       4.282   0.302  -1.467  0.00  0.00    -0.021 C 
BRANCH  24  27
ATOM     25  C   UNL     1       5.719   0.954  -4.797  0.00  0.00    +0.036 A 
ATOM     26  C   UNL     1       5.486   1.326  -3.517  0.00  0.00    +0.045 A 
ATOM     27  C   UNL     1       4.755   0.307  -2.898  0.00  0.00    +0.047 A 
ATOM     28  N   UNL     1       4.549  -0.640  -3.778  0.00  0.00    -0.181 NA
ATOM     29  N   UNL     1       5.147  -0.254  -4.984  0.00  0.00    -0.281 N 
ATOM     30  H   UNL     1       5.212  -0.747  -5.965  0.00  0.00    +0.189 HD
BRANCH  25  31
ATOM     31  C   UNL     1       6.475   1.750  -5.830  0.00  0.00    +0.054 C 
BRANCH  31  33
ATOM     32  C   UNL     1       6.295   3.557  -7.546  0.00  0.00    +0.004 C 
ATOM     33  C   UNL     1       5.528   2.749  -6.497  0.00  0.00    +0.003 C 
ENDBRANCH  31  33
ENDBRANCH  25  31
ENDBRANCH  24  27
ENDBRANCH  21  24
ENDBRANCH  20  21
ENDBRANCH   1  20
TORSDOF 7
