REMARK  Name = ZINC39467828
REMARK  4 active torsions:
REMARK  status: ('A' for Active; 'I' for Inactive)
REMARK    1  A    between atoms: C_1  and  O_2
REMARK    2  A    between atoms: O_2  and  P_3
REMARK    3  A    between atoms: C_12  and  S_21
REMARK    4  A    between atoms: S_21  and  C_22
REMARK                            x       y       z     vdW  Elec       q    Type
REMARK                         _______ _______ _______ _____ _____    ______ ____
ROOT
ATOM      1  P   UNL     1      -1.336  -0.899   0.010  0.00  0.00    +0.421 P 
ATOM      2  O   UNL     1      -2.289  -0.406  -1.010  0.00  0.00    -0.239 OA
ATOM      3  N   UNL     1      -2.031  -0.876   1.506  0.00  0.00    -0.156 NA
ATOM      4  N   UNL     1      -1.483  -1.685   2.482  0.00  0.00    -0.228 NA
ATOM      5  C   UNL     1      -2.317  -1.542   3.687  0.00  0.00    +0.111 C 
ATOM      6  C   UNL     1      -1.763  -2.369   4.838  0.00  0.00    +0.035 C 
ATOM      7  C   UNL     1      -0.382  -1.903   5.211  0.00  0.00    -0.006 C 
ATOM      8  C   UNL     1       0.435  -2.727   5.861  0.00  0.00    +0.023 C 
ATOM      9  C   UNL     1      -0.034  -4.082   6.217  0.00  0.00    +0.017 C 
ATOM     10  C   UNL     1      -1.052  -4.629   5.543  0.00  0.00    -0.007 C 
ATOM     11  C   UNL     1      -1.693  -3.842   4.426  0.00  0.00    +0.022 C 
ATOM     12  C   UNL     1      -0.832  -3.955   3.167  0.00  0.00    +0.031 C 
ATOM     13  C   UNL     1      -1.401  -3.081   2.043  0.00  0.00    +0.100 C 
ATOM     14  C   UNL     1      -0.470  -3.237   0.835  0.00  0.00    +0.191 C 
ATOM     15  O   UNL     1      -0.972  -2.461  -0.267  0.00  0.00    -0.294 OA
ATOM     16  I   UNL     1       2.370  -2.109   6.377  0.00  0.00    -0.043 I 
ATOM     17  H   UNL     1      -2.799  -0.314   1.694  0.00  0.00    +0.153 HD
ENDROOT
BRANCH   1  19
ATOM     18  C   UNL     1      -0.017   1.425   0.010  0.00  0.00    +0.206 C 
ATOM     19  O   UNL     1       0.002  -0.004   0.002  0.00  0.00    -0.299 OA
ENDBRANCH   1  19
BRANCH   9  20
ATOM     20  S   UNL     1       0.744  -4.974   7.523  0.00  0.00    -0.128 S 
ATOM     21  C   UNL     1      -0.160  -6.546   7.580  0.00  0.00    +0.090 C 
ENDBRANCH   9  20
TORSDOF 2
