REMARK  Name = ZINC09444869
REMARK  5 active torsions:
REMARK  status: ('A' for Active; 'I' for Inactive)
REMARK    1  A    between atoms: C_1  and  N_2
REMARK    2  A    between atoms: C_6  and  S_20
REMARK    3  A    between atoms: N_11  and  C_12
REMARK    4  A    between atoms: C_12  and  C_14
REMARK    5  A    between atoms: S_20  and  C_23
REMARK                            x       y       z     vdW  Elec       q    Type
REMARK                         _______ _______ _______ _____ _____    ______ ____
ROOT
ATOM      1  C   UNL     1       0.002  -0.004   0.002  0.00  0.00    +0.151 C 
ATOM      2  N   UNL     1      -0.018   1.461   0.010  0.00  0.00    -0.324 N 
ATOM      3  C   UNL     1       1.172   2.166   0.003  0.00  0.00    +0.057 A 
ATOM      4  C   UNL     1       2.477   1.643  -0.012  0.00  0.00    +0.029 A 
ATOM      5  C   UNL     1       3.571   2.475  -0.018  0.00  0.00    +0.029 A 
ATOM      6  C   UNL     1       3.426   3.852  -0.009  0.00  0.00    +0.089 A 
ATOM      7  C   UNL     1       2.153   4.396   0.005  0.00  0.00    +0.044 A 
ATOM      8  C   UNL     1       1.059   3.564   0.011  0.00  0.00    +0.041 A 
ATOM      9  S   UNL     1      -0.697   3.834   0.029  0.00  0.00    -0.052 S 
ATOM     10  C   UNL     1      -1.209   2.123   0.019  0.00  0.00    +0.166 A 
ATOM     11  N   UNL     1      -2.439   1.624   0.022  0.00  0.00    -0.152 NA
ENDROOT
BRANCH   6  12
ATOM     12  S   UNL     1       4.843   4.899  -0.016  0.00  0.00    -0.006 S 
ATOM     13  O   UNL     1       5.863   4.125  -0.633  0.00  0.00    -0.170 OA
ATOM     14  O   UNL     1       4.396   6.111  -0.608  0.00  0.00    -0.170 OA
ATOM     15  C   UNL     1       5.234   5.166   1.735  0.00  0.00    +0.200 C 
ENDBRANCH   6  12
BRANCH  11  16
ATOM     16  C   UNL     1      -3.497   2.447   0.032  0.00  0.00    +0.276 C 
ATOM     17  O   UNL     1      -3.329   3.655   0.038  0.00  0.00    -0.267 OA
BRANCH  16  18
ATOM     18  C   UNL     1      -4.858   1.893   0.035  0.00  0.00    +0.077 A 
ATOM     19  C   UNL     1      -6.071   2.561   0.051  0.00  0.00    +0.022 A 
ATOM     20  C   UNL     1      -7.209   1.792   0.047  0.00  0.00    +0.024 A 
ATOM     21  C   UNL     1      -7.094   0.437   0.040  0.00  0.00    +0.056 A 
ATOM     22  S   UNL     1      -5.378   0.187   0.029  0.00  0.00    -0.077 S 
ATOM     23 BR   UNL     1      -8.470  -0.860   0.040  0.00  0.00    -0.043 Br
ENDBRANCH  16  18
ENDBRANCH  11  16
TORSDOF 3
