REMARK  Name = ZINC22556108
REMARK  6 active torsions:
REMARK  status: ('A' for Active; 'I' for Inactive)
REMARK    1  A    between atoms: C_1  and  C_2
REMARK    2  A    between atoms: C_3  and  C_7
REMARK    3  A    between atoms: C_10  and  S_13
REMARK    4  A    between atoms: N_11  and  N_12
REMARK    5  A    between atoms: S_13  and  C_14
REMARK    6  A    between atoms: C_14  and  C_15
REMARK                            x       y       z     vdW  Elec       q    Type
REMARK                         _______ _______ _______ _____ _____    ______ ____
ROOT
ATOM      1  C   UNL     1      -2.658  -4.971  -1.676  0.00  0.00    +0.185 A 
ATOM      2  N   UNL     1      -2.640  -4.678  -0.396  0.00  0.00    -0.127 NA
ATOM      3  N   UNL     1      -2.604  -3.403  -0.238  0.00  0.00    -0.121 NA
ATOM      4  C   UNL     1      -2.606  -2.803  -1.405  0.00  0.00    +0.209 A 
ATOM      5  N   UNL     1      -2.637  -3.779  -2.362  0.00  0.00    -0.224 N 
ENDROOT
BRANCH   1   8
ATOM      6  C   UNL     1      -2.694  -7.683  -0.105  0.00  0.00    +0.087 C 
ATOM      7  C   UNL     1      -2.709  -7.512  -1.602  0.00  0.00    +0.112 A 
ATOM      8  C   UNL     1      -2.694  -6.326  -2.267  0.00  0.00    +0.061 A 
ATOM      9  C   UNL     1      -2.713  -6.670  -3.695  0.00  0.00    +0.053 A 
ATOM     10  C   UNL     1      -2.743  -8.011  -3.752  0.00  0.00    +0.196 A 
ATOM     11  O   UNL     1      -2.744  -8.503  -2.504  0.00  0.00    -0.467 OA
ENDBRANCH   1   8
BRANCH   5  12
ATOM     12  N   UNL     1      -2.645  -3.607  -3.717  0.00  0.00    -0.295 N 
ATOM     13  H   UNL     1      -2.626  -2.593  -4.143  0.00  0.00    +0.163 HD
ATOM     14  H   UNL     1      -2.671  -4.482  -4.383  0.00  0.00    +0.163 HD
ENDBRANCH   5  12
BRANCH   4  15
ATOM     15  S   UNL     1      -2.569  -1.064  -1.687  0.00  0.00    -0.080 S 
BRANCH  15  16
ATOM     16  C   UNL     1      -2.540  -0.469   0.023  0.00  0.00    +0.113 C 
BRANCH  16  17
ATOM     17  C   UNL     1      -2.506   1.037   0.030  0.00  0.00    -0.020 A 
ATOM     18  C   UNL     1      -3.654   1.761   0.044  0.00  0.00    +0.097 A 
ATOM     19  C   UNL     1      -3.595   3.171   0.051  0.00  0.00    +0.338 A 
ATOM     20  O   UNL     1      -4.632   3.808   0.063  0.00  0.00    -0.245 OA
ATOM     21  O   UNL     1      -2.424   3.827   0.044  0.00  0.00    -0.422 OA
ATOM     22  C   UNL     1      -1.246   3.167   0.030  0.00  0.00    +0.140 A 
ATOM     23  C   UNL     1      -1.231   1.761   0.017  0.00  0.00    +0.022 A 
ATOM     24  C   UNL     1      -0.013   1.076   0.008  0.00  0.00    +0.013 A 
ATOM     25  C   UNL     1       1.160   1.778   0.001  0.00  0.00    +0.016 A 
ATOM     26  C   UNL     1       1.149   3.166   0.008  0.00  0.00    +0.021 A 
ATOM     27  C   UNL     1      -0.043   3.861   0.023  0.00  0.00    +0.062 A 
ATOM     28 BR   UNL     1       2.785   4.115  -0.001  0.00  0.00    -0.050 Br
ENDBRANCH  16  17
ENDBRANCH  15  16
ENDBRANCH   4  15
TORSDOF 5
