REMARK  Name = ZINC18350518
REMARK  6 active torsions:
REMARK  status: ('A' for Active; 'I' for Inactive)
REMARK    1  A    between atoms: C_1  and  C_2
REMARK    2  A    between atoms: C_4  and  N_26
REMARK    3  A    between atoms: C_7  and  N_8
REMARK    4  A    between atoms: C_9  and  C_11
REMARK    5  A    between atoms: C_11  and  N_12
REMARK    6  A    between atoms: C_20  and  C_22
REMARK                            x       y       z     vdW  Elec       q    Type
REMARK                         _______ _______ _______ _____ _____    ______ ____
ROOT
ATOM      1  N   UNL     1      -3.409   0.315   6.847  0.00  0.00    -0.284 N 
ATOM      2  C   UNL     1      -2.968   0.354   5.573  0.00  0.00    +0.235 C 
ATOM      3  O   UNL     1      -1.778   0.406   5.344  0.00  0.00    -0.274 OA
ATOM      4  H   UNL     1      -4.360   0.358   7.032  0.00  0.00    +0.155 HD
ENDROOT
BRANCH   1  11
ATOM      5  C   UNL     1      -4.188   1.296   9.400  0.00  0.00    +0.046 C 
ATOM      6  C   UNL     1      -2.833   0.679   9.165  0.00  0.00    -0.028 A 
ATOM      7  C   UNL     1      -1.931   0.574  10.206  0.00  0.00    +0.028 A 
ATOM      8  C   UNL     1      -0.681   0.011   9.988  0.00  0.00    +0.030 A 
ATOM      9  C   UNL     1      -0.339  -0.451   8.723  0.00  0.00    +0.025 A 
ATOM     10  C   UNL     1      -1.242  -0.350   7.684  0.00  0.00    +0.025 A 
ATOM     11  C   UNL     1      -2.492   0.213   7.902  0.00  0.00    +0.036 A 
BRANCH   8  12
ATOM     12  N   UNL     1       0.234  -0.091  11.041  0.00  0.00    -0.330 N 
ATOM     13  C   UNL     1       0.730  -1.484  11.182  0.00  0.00    +0.105 C 
ATOM     14  C   UNL     1       2.049  -1.312  11.976  0.00  0.00    +0.020 C 
ATOM     15  C   UNL     1       2.634  -0.004  11.393  0.00  0.00    +0.020 C 
ATOM     16  C   UNL     1       1.431   0.739  10.785  0.00  0.00    +0.105 C 
ENDBRANCH   8  12
ENDBRANCH   1  11
BRANCH   2  17
ATOM     17  C   UNL     1      -3.955   0.335   4.434  0.00  0.00    +0.214 C 
BRANCH  17  18
ATOM     18  N   UNL     1      -3.231   0.385   3.161  0.00  0.00    -0.215 N 
ATOM     19  C   UNL     1      -2.901   1.526   2.521  0.00  0.00    +0.247 C 
ATOM     20  O   UNL     1      -3.138   2.661   2.876  0.00  0.00    -0.273 OA
ATOM     21  C   UNL     1      -2.175   1.091   1.269  0.00  0.00    +0.115 C 
ATOM     22  C   UNL     1      -2.926   1.559   0.028  0.00  0.00    +0.035 C 
ATOM     23  C   UNL     1      -2.192   1.078  -1.226  0.00  0.00    +0.003 C 
ATOM     24  C   UNL     1      -0.768   1.639  -1.229  0.00  0.00    +0.000 C 
ATOM     25  C   UNL     1      -0.021   1.144   0.011  0.00  0.00    +0.006 C 
ATOM     26  C   UNL     1      -0.747   1.625   1.270  0.00  0.00    +0.018 C 
ATOM     27  C   UNL     1      -0.011   1.114   2.510  0.00  0.00    +0.010 C 
ATOM     28  N   UNL     1      -2.175  -0.375   1.348  0.00  0.00    -0.285 N 
ATOM     29  C   UNL     1      -2.816  -0.695   2.489  0.00  0.00    +0.310 C 
ATOM     30  O   UNL     1      -2.995  -1.837   2.866  0.00  0.00    -0.252 OA
ATOM     31  H   UNL     1      -1.790  -0.991   0.706  0.00  0.00    +0.151 HD
ENDBRANCH  17  18
ENDBRANCH   2  17
TORSDOF 4
