REMARK  Name = ZINC37746518
REMARK  3 active torsions:
REMARK  status: ('A' for Active; 'I' for Inactive)
REMARK    1  A    between atoms: C_5  and  N_7
REMARK    2  A    between atoms: N_10  and  C_13
REMARK    3  A    between atoms: C_18  and  N_19
REMARK                            x       y       z     vdW  Elec       q    Type
REMARK                         _______ _______ _______ _____ _____    ______ ____
ROOT
ATOM      1  N   UNL     1       1.236  -2.079  -0.021  0.00  0.00    -0.325 N 
ATOM      2  C   UNL     1       1.254  -2.834   1.239  0.00  0.00    +0.124 C 
ATOM      3  C   UNL     1       0.076  -3.815   1.240  0.00  0.00    +0.124 C 
ATOM      4  N   UNL     1       0.081  -4.556  -0.030  0.00  0.00    -0.325 N 
ATOM      5  C   UNL     1       0.063  -3.801  -1.290  0.00  0.00    +0.124 C 
ATOM      6  C   UNL     1       1.236  -2.820  -1.291  0.00  0.00    +0.124 C 
ENDROOT
BRANCH   1  11
ATOM      7  C   UNL     1      -0.017   1.377   0.010  0.00  0.00    +0.002 A 
ATOM      8  C   UNL     1       1.170   2.087   0.002  0.00  0.00    +0.003 A 
ATOM      9  C   UNL     1       2.380   1.418  -0.013  0.00  0.00    +0.040 A 
ATOM     10  C   UNL     1       2.406   0.035  -0.021  0.00  0.00    +0.144 A 
ATOM     11  C   UNL     1       1.214  -0.681  -0.013  0.00  0.00    +0.065 A 
ATOM     12  C   UNL     1       0.002  -0.004   0.002  0.00  0.00    +0.026 A 
ATOM     13  F   UNL     1       3.588  -0.619  -0.036  0.00  0.00    -0.204 F 
ENDBRANCH   1  11
BRANCH   4  14
ATOM     14  C   UNL     1       0.103  -5.957  -0.038  0.00  0.00    +0.051 A 
ATOM     15  C   UNL     1      -1.086  -6.670  -0.041  0.00  0.00    +0.026 A 
ATOM     16  C   UNL     1      -1.062  -8.053  -0.050  0.00  0.00    +0.017 A 
ATOM     17  C   UNL     1       0.146  -8.728  -0.054  0.00  0.00    +0.020 A 
ATOM     18  C   UNL     1       1.336  -8.023  -0.051  0.00  0.00    +0.039 A 
ATOM     19  C   UNL     1       1.321  -6.636  -0.048  0.00  0.00    +0.047 A 
ATOM     20 BR   UNL     1       0.169 -10.618  -0.065  0.00  0.00    -0.050 Br
BRANCH  19  21
ATOM     21  N   UNL     1       2.524  -5.921  -0.050  0.00  0.00    -0.357 N 
ATOM     22  H   UNL     1       2.512  -4.951  -0.044  0.00  0.00    +0.142 HD
ATOM     23  H   UNL     1       3.370  -6.395  -0.057  0.00  0.00    +0.142 HD
ENDBRANCH  19  21
ENDBRANCH   4  14
TORSDOF 3
