REMARK  Name = ZINC63730405
REMARK  5 active torsions:
REMARK  status: ('A' for Active; 'I' for Inactive)
REMARK    1  A    between atoms: C_6  and  N_7
REMARK    2  A    between atoms: C_8  and  S_18
REMARK    3  A    between atoms: S_18  and  C_19
REMARK    4  A    between atoms: C_19  and  C_20
REMARK    5  A    between atoms: C_20  and  C_22
REMARK                            x       y       z     vdW  Elec       q    Type
REMARK                         _______ _______ _______ _____ _____    ______ ____
ROOT
ATOM      1  N   UNL     1      -1.198  -0.721   0.010  0.00  0.00    -0.236 N 
ATOM      2  C   UNL     1      -1.185  -2.182  -0.102  0.00  0.00    +0.261 C 
ATOM      3  N   UNL     1      -2.439  -2.939  -0.095  0.00  0.00    -0.230 NA
ATOM      4  C   UNL     1      -3.575  -2.329   0.012  0.00  0.00    +0.186 C 
ATOM      5  C   UNL     1      -3.622  -0.847   0.127  0.00  0.00    +0.103 C 
ATOM      6  C   UNL     1      -4.944  -0.546   0.219  0.00  0.00    +0.151 C 
ATOM      7  N   UNL     1      -5.642  -1.696   0.167  0.00  0.00    -0.155 NA
ATOM      8  N   UNL     1      -4.884  -2.727   0.049  0.00  0.00    -0.129 NA
ATOM      9  C   UNL     1      -2.378  -0.070   0.127  0.00  0.00    +0.258 C 
ATOM     10  O   UNL     1      -2.407   1.141   0.226  0.00  0.00    -0.269 OA
ENDROOT
BRANCH   1  16
ATOM     11  C   UNL     1       0.296   0.850  -1.054  0.00  0.00    +0.025 A 
ATOM     12  C   UNL     1       1.482   1.557  -1.059  0.00  0.00    +0.017 A 
ATOM     13  C   UNL     1       2.378   1.415  -0.014  0.00  0.00    +0.018 A 
ATOM     14  C   UNL     1       2.088   0.565   1.039  0.00  0.00    +0.017 A 
ATOM     15  C   UNL     1       0.903  -0.144   1.050  0.00  0.00    +0.025 A 
ATOM     16  C   UNL     1       0.002  -0.004   0.002  0.00  0.00    +0.039 A 
ATOM     17 BR   UNL     1       4.002   2.384  -0.025  0.00  0.00    -0.050 Br
ENDBRANCH   1  16
BRANCH   2  18
ATOM     18  S   UNL     1      -0.320  -2.594  -1.642  0.00  0.00    -0.107 S 
BRANCH  18  19
ATOM     19  C   UNL     1      -1.312  -1.791  -2.932  0.00  0.00    +0.152 C 
BRANCH  19  20
ATOM     20  C   UNL     1      -0.694  -2.059  -4.280  0.00  0.00    +0.173 C 
ATOM     21  O   UNL     1       0.316  -2.725  -4.363  0.00  0.00    -0.291 OA
BRANCH  20  22
ATOM     22  C   UNL     1      -1.316  -1.511  -5.495  0.00  0.00    +0.020 A 
ATOM     23  C   UNL     1      -2.478  -0.737  -5.402  0.00  0.00    +0.013 A 
ATOM     24  C   UNL     1      -3.056  -0.227  -6.545  0.00  0.00    +0.022 A 
ATOM     25  C   UNL     1      -2.489  -0.479  -7.784  0.00  0.00    +0.059 A 
ATOM     26  C   UNL     1      -1.338  -1.246  -7.884  0.00  0.00    +0.060 A 
ATOM     27  C   UNL     1      -0.746  -1.757  -6.748  0.00  0.00    +0.032 A 
ATOM     28 CL   UNL     1      -0.637  -1.556  -9.442  0.00  0.00    -0.082 Cl
ATOM     29 CL   UNL     1      -3.224   0.167  -9.218  0.00  0.00    -0.082 Cl
ENDBRANCH  20  22
ENDBRANCH  19  20
ENDBRANCH  18  19
ENDBRANCH   2  18
TORSDOF 5
