REMARK  Name = ZINC22920734
REMARK  13 active torsions:
REMARK  status: ('A' for Active; 'I' for Inactive)
REMARK    1  A    between atoms: C_1  and  C_2
REMARK    2  A    between atoms: C_2  and  O_3
REMARK    3  A    between atoms: O_3  and  C_4
REMARK    4  A    between atoms: C_4  and  C_6
REMARK    5  A    between atoms: C_7  and  C_37
REMARK    6  A    between atoms: C_8  and  C_34
REMARK    7  A    between atoms: C_10  and  N_11
REMARK    8  A    between atoms: C_12  and  C_14
REMARK    9  A    between atoms: C_14  and  N_15
REMARK   10  A    between atoms: N_18  and  C_21
REMARK   11  A    between atoms: C_21  and  C_22
REMARK   12  A    between atoms: C_21  and  C_28
REMARK   13  A    between atoms: C_34  and  C_36
REMARK                            x       y       z     vdW  Elec       q    Type
REMARK                         _______ _______ _______ _____ _____    ______ ____
ROOT
ATOM      1  N   UNL     1      -0.244   3.168   1.245  0.00  0.00    +0.387 N 
ATOM      2  C   UNL     1      -0.437   1.712   1.283  0.00  0.00    -0.063 C 
ATOM      3  C   UNL     1       0.119   1.092  -0.001  0.00  0.00    +0.067 C 
ATOM      4  N   UNL     1      -0.563   1.681  -1.162  0.00  0.00    -0.295 NA
ATOM      5  C   UNL     1      -0.369   3.137  -1.200  0.00  0.00    +0.067 C 
ATOM      6  C   UNL     1      -0.925   3.757   0.084  0.00  0.00    -0.063 C 
ATOM      7  H   UNL     1       0.834   3.365   1.142  0.00  0.00    -0.081 HD
ENDROOT
BRANCH   1   8
ATOM      8  C   UNL     1      -0.698   3.792   2.495  0.00  0.00    +0.019 C 
BRANCH   8  10
ATOM      9  N   UNL     1      -0.042   3.794   4.880  0.00  0.00    -0.281 N 
ATOM     10  C   UNL     1       0.187   3.345   3.630  0.00  0.00    +0.201 C 
ATOM     11  O   UNL     1       1.105   2.582   3.419  0.00  0.00    -0.278 OA
ATOM     12  H   UNL     1      -0.875   4.486   5.072  0.00  0.00    +0.155 HD
BRANCH   9  17
ATOM     13  C   UNL     1       0.692   3.736   7.273  0.00  0.00    +0.091 A 
ATOM     14  C   UNL     1       1.627   3.192   8.136  0.00  0.00    -0.017 A 
ATOM     15  C   UNL     1       2.571   2.337   7.594  0.00  0.00    +0.060 A 
ATOM     16  S   UNL     1       2.123   2.305   5.869  0.00  0.00    -0.070 S 
ATOM     17  C   UNL     1       0.768   3.385   5.919  0.00  0.00    +0.087 A 
ATOM     18  C   UNL     1       1.617   3.517   9.607  0.00  0.00    +0.046 C 
BRANCH  15  19
ATOM     19  C   UNL     1       3.620   1.657   8.245  0.00  0.00    +0.167 C 
ATOM     20  O   UNL     1       3.780   1.790   9.442  0.00  0.00    -0.292 OA
ATOM     21  C   UNL     1       4.544   0.765   7.456  0.00  0.00    +0.092 C 
ENDBRANCH  15  19
BRANCH  13  22
ATOM     22  C   UNL     1      -0.346   4.653   7.760  0.00  0.00    +0.342 C 
ATOM     23  O   UNL     1      -1.415   4.215   8.139  0.00  0.00    -0.245 OA
BRANCH  22  24
ATOM     24  O   UNL     1      -0.113   5.981   7.788  0.00  0.00    -0.461 OA
BRANCH  24  26
ATOM     25  C   UNL     1      -0.739   8.290   8.239  0.00  0.00    +0.048 C 
ATOM     26  C   UNL     1      -1.184   6.827   8.282  0.00  0.00    +0.229 C 
ENDBRANCH  24  26
ENDBRANCH  22  24
ENDBRANCH  13  22
ENDBRANCH   9  17
ENDBRANCH   8  10
ENDBRANCH   1   8
BRANCH   4  27
ATOM     27  C   UNL     1      -0.109   1.057  -2.412  0.00  0.00    +0.117 C 
BRANCH  27  28
ATOM     28  C   UNL     1      -0.347  -0.430  -2.346  0.00  0.00    -0.026 A 
ATOM     29  C   UNL     1      -1.542  -0.917  -1.851  0.00  0.00    +0.005 A 
ATOM     30  C   UNL     1      -1.763  -2.280  -1.795  0.00  0.00    +0.000 A 
ATOM     31  C   UNL     1      -0.785  -3.157  -2.226  0.00  0.00    +0.000 A 
ATOM     32  C   UNL     1       0.412  -2.670  -2.716  0.00  0.00    +0.000 A 
ATOM     33  C   UNL     1       0.631  -1.307  -2.776  0.00  0.00    +0.005 A 
ENDBRANCH  27  28
BRANCH  27  34
ATOM     34  C   UNL     1      -0.876   1.638  -3.571  0.00  0.00    -0.026 A 
ATOM     35  C   UNL     1      -2.244   1.810  -3.478  0.00  0.00    +0.005 A 
ATOM     36  C   UNL     1      -2.947   2.348  -4.540  0.00  0.00    +0.000 A 
ATOM     37  C   UNL     1      -2.284   2.704  -5.699  0.00  0.00    +0.000 A 
ATOM     38  C   UNL     1      -0.916   2.527  -5.794  0.00  0.00    +0.000 A 
ATOM     39  C   UNL     1      -0.212   1.994  -4.730  0.00  0.00    +0.005 A 
ENDBRANCH  27  34
ENDBRANCH   4  27
TORSDOF 10
