REMARK  Name = ZINC09359416
REMARK  5 active torsions:
REMARK  status: ('A' for Active; 'I' for Inactive)
REMARK    1  A    between atoms: C_1  and  C_2
REMARK    2  A    between atoms: C_7  and  C_8
REMARK    3  A    between atoms: N_24  and  C_27
REMARK    4  A    between atoms: C_30  and  N_34
REMARK    5  A    between atoms: C_32  and  C_33
REMARK                            x       y       z     vdW  Elec       q    Type
REMARK                         _______ _______ _______ _____ _____    ______ ____
ROOT
ATOM      1  C   UNL     1      -4.964   1.849   0.058  0.00  0.00    +0.044 C 
ATOM      2  C   UNL     1      -3.520   2.283   0.043  0.00  0.00    -0.046 A 
ATOM      3  C   UNL     1      -3.203   3.629   0.037  0.00  0.00    +0.004 A 
ATOM      4  C   UNL     1      -1.880   4.027   0.027  0.00  0.00    +0.005 A 
ATOM      5  C   UNL     1      -0.869   3.089   0.028  0.00  0.00    -0.027 A 
ATOM      6  C   UNL     1      -1.180   1.730   0.017  0.00  0.00    +0.039 A 
ATOM      7  C   UNL     1      -2.516   1.338   0.036  0.00  0.00    -0.026 A 
ATOM      8  C   UNL     1      -2.867  -0.128   0.041  0.00  0.00    +0.046 C 
ATOM      9  N   UNL     1      -0.011   0.966   0.007  0.00  0.00    -0.286 N 
ATOM     10  C   UNL     1       1.095   1.732   0.001  0.00  0.00    +0.212 C 
ATOM     11  O   UNL     1       2.245   1.347  -0.017  0.00  0.00    -0.277 OA
ATOM     12  C   UNL     1       0.626   3.165   0.021  0.00  0.00    +0.053 C 
ATOM     13  C   UNL     1       1.198   3.963  -1.133  0.00  0.00    +0.089 C 
ATOM     14  C   UNL     1       0.924   5.397  -0.549  0.00  0.00    +0.074 C 
ATOM     15  C   UNL     1       1.240   5.328   0.884  0.00  0.00    -0.054 C 
ATOM     16  C   UNL     1       0.322   3.674   2.394  0.00  0.00    -0.076 C 
ATOM     17  C   UNL     1       0.027   5.074   2.970  0.00  0.00    -0.020 C 
ATOM     18  C   UNL     1       0.121   6.003   1.719  0.00  0.00    -0.016 C 
ATOM     19  C   UNL     1       1.103   6.236  -1.710  0.00  0.00    +0.228 C 
ATOM     20  O   UNL     1       1.584   7.347  -1.761  0.00  0.00    -0.275 OA
ATOM     21  N   UNL     1       0.602   5.479  -2.746  0.00  0.00    -0.210 N 
ATOM     22  C   UNL     1       0.445   4.162  -2.412  0.00  0.00    +0.229 C 
ATOM     23  O   UNL     1      -0.178   3.324  -3.027  0.00  0.00    -0.275 OA
ATOM     24  H   UNL     1       0.002  -0.004   0.002  0.00  0.00    +0.155 HD
ATOM     25  N   UNL     1       1.186   3.887   1.195  0.00  0.00    +0.395 N 
ATOM     26  H   UNL     1       2.132   3.539   1.391  0.00  0.00    -0.079 HD
ENDROOT
BRANCH  21  27
ATOM     27  C   UNL     1       0.286   6.003  -4.007  0.00  0.00    +0.047 A 
ATOM     28  C   UNL     1      -0.991   6.485  -4.261  0.00  0.00    +0.026 A 
ATOM     29  C   UNL     1      -1.298   7.004  -5.503  0.00  0.00    +0.034 A 
ATOM     30  C   UNL     1      -0.337   7.035  -6.497  0.00  0.00    +0.127 A 
ATOM     31  C   UNL     1       0.934   6.551  -6.250  0.00  0.00    +0.038 A 
ATOM     32  C   UNL     1       1.248   6.035  -5.008  0.00  0.00    -0.026 A 
ATOM     33  C   UNL     1       2.633   5.506  -4.739  0.00  0.00    +0.046 C 
BRANCH  30  34
ATOM     34  N   UNL     1      -0.671   7.586  -7.830  0.00  0.00    +0.056 N 
ATOM     35  O   UNL     1       0.174   7.613  -8.707  0.00  0.00    -0.126 OA
ATOM     36  O   UNL     1      -1.791   8.013  -8.050  0.00  0.00    -0.126 OA
ENDBRANCH  30  34
ENDBRANCH  21  27
TORSDOF 2
