REMARK  Name = ZINC62410683
REMARK  4 active torsions:
REMARK  status: ('A' for Active; 'I' for Inactive)
REMARK    1  A    between atoms: C_1  and  N_2
REMARK    2  A    between atoms: N_2  and  C_3
REMARK    3  A    between atoms: C_4  and  C_6
REMARK    4  A    between atoms: C_9  and  N_13
REMARK                            x       y       z     vdW  Elec       q    Type
REMARK                         _______ _______ _______ _____ _____    ______ ____
ROOT
ATOM      1  N   UNL     1      -1.628  -5.759  -1.516  0.00  0.00    -0.269 N 
ATOM      2  C   UNL     1      -1.719  -6.235  -2.774  0.00  0.00    +0.307 C 
ATOM      3  O   UNL     1      -1.416  -5.528  -3.715  0.00  0.00    -0.252 OA
ATOM      4  N   UNL     1      -2.147  -7.495  -2.987  0.00  0.00    -0.282 N 
ATOM      5  C   UNL     1      -2.673  -8.236  -1.876  0.00  0.00    +0.113 C 
ATOM      6  C   UNL     1      -3.779  -9.169  -2.265  0.00  0.00    +0.007 C 
ATOM      7  C   UNL     1      -4.805  -8.521  -3.180  0.00  0.00    +0.008 C 
ATOM      8  C   UNL     1      -4.470  -8.611  -4.655  0.00  0.00    -0.009 C 
ATOM      9  C   UNL     1      -4.110 -10.046  -5.050  0.00  0.00    +0.007 C 
ATOM     10  C   UNL     1      -2.902 -10.459  -4.205  0.00  0.00    -0.009 C 
ATOM     11  C   UNL     1      -3.339 -10.524  -2.742  0.00  0.00    +0.008 C 
ATOM     12  C   UNL     1      -1.742  -9.508  -4.390  0.00  0.00    +0.026 C 
ATOM     13  C   UNL     1      -2.059  -8.036  -4.332  0.00  0.00    +0.078 C 
ATOM     14  C   UNL     1      -3.339  -7.686  -5.082  0.00  0.00    +0.026 C 
ATOM     15  H   UNL     1      -1.747  -6.356  -0.761  0.00  0.00    +0.156 HD
ENDROOT
BRANCH   1  19
ATOM     16  C   UNL     1      -0.831  -1.721  -0.869  0.00  0.00    +0.055 A 
ATOM     17  C   UNL     1      -1.466  -2.478   0.120  0.00  0.00    +0.016 A 
ATOM     18  C   UNL     1      -1.727  -3.811  -0.097  0.00  0.00    +0.024 A 
ATOM     19  C   UNL     1      -1.361  -4.407  -1.300  0.00  0.00    +0.036 A 
ATOM     20  C   UNL     1      -0.729  -3.659  -2.288  0.00  0.00    +0.044 A 
ATOM     21  C   UNL     1      -0.470  -2.321  -2.080  0.00  0.00    +0.055 A 
ATOM     22 CL   UNL     1       0.311  -1.385  -3.316  0.00  0.00    -0.083 Cl
BRANCH  16  26
ATOM     23  C   UNL     1      -1.278   1.977  -0.130  0.00  0.00    +0.132 C 
ATOM     24  N   UNL     1      -1.551   0.550  -0.316  0.00  0.00    -0.304 N 
ATOM     25  C   UNL     1      -2.913   0.037  -0.150  0.00  0.00    +0.132 C 
ATOM     26  C   UNL     1      -0.549  -0.291  -0.639  0.00  0.00    +0.248 C 
ATOM     27  O   UNL     1       0.588   0.128  -0.742  0.00  0.00    -0.270 OA
ENDBRANCH  16  26
ENDBRANCH   1  19
TORSDOF 2
