REMARK  Name = ZINC08940066
REMARK  11 active torsions:
REMARK  status: ('A' for Active; 'I' for Inactive)
REMARK    1  A    between atoms: C_1  and  C_2
REMARK    2  A    between atoms: C_2  and  O_3
REMARK    3  A    between atoms: O_3  and  C_4
REMARK    4  A    between atoms: C_4  and  C_6
REMARK    5  A    between atoms: C_7  and  C_33
REMARK    6  A    between atoms: C_8  and  C_29
REMARK    7  A    between atoms: C_10  and  N_11
REMARK    8  A    between atoms: C_12  and  C_14
REMARK    9  A    between atoms: C_14  and  N_15
REMARK   10  A    between atoms: C_23  and  C_25
REMARK   11  A    between atoms: N_31  and  C_32
REMARK                            x       y       z     vdW  Elec       q    Type
REMARK                         _______ _______ _______ _____ _____    ______ ____
ROOT
ATOM      1  N   UNL     1      -4.867  -3.797   2.768  0.00  0.00    -0.278 N 
ATOM      2  C   UNL     1      -4.421  -2.566   2.451  0.00  0.00    +0.236 C 
ATOM      3  O   UNL     1      -5.084  -1.846   1.734  0.00  0.00    -0.274 OA
ATOM      4  H   UNL     1      -4.336  -4.373   3.340  0.00  0.00    +0.155 HD
ENDROOT
BRANCH   1   9
ATOM      5  C   UNL     1      -6.708  -5.472   2.488  0.00  0.00    +0.091 A 
ATOM      6  C   UNL     1      -7.936  -5.682   1.879  0.00  0.00    -0.015 A 
ATOM      7  C   UNL     1      -8.448  -4.670   1.115  0.00  0.00    +0.079 A 
ATOM      8  S   UNL     1      -7.200  -3.404   1.252  0.00  0.00    -0.068 S 
ATOM      9  C   UNL     1      -6.079  -4.240   2.276  0.00  0.00    +0.087 A 
ATOM     10  C   UNL     1      -8.682  -6.980   2.055  0.00  0.00    +0.046 C 
BRANCH   7  11
ATOM     11  C   UNL     1      -9.710  -4.633   0.372  0.00  0.00    +0.251 C 
ATOM     12  O   UNL     1     -10.456  -5.595   0.391  0.00  0.00    -0.270 OA
ATOM     13  N   UNL     1     -10.046  -3.533  -0.332  0.00  0.00    -0.314 N 
ATOM     14  C   UNL     1     -11.308  -3.496  -1.074  0.00  0.00    +0.128 C 
ATOM     15  H   UNL     1      -9.452  -2.767  -0.347  0.00  0.00    +0.149 HD
ENDBRANCH   7  11
BRANCH   5  16
ATOM     16  C   UNL     1      -6.089  -6.506   3.325  0.00  0.00    +0.342 C 
ATOM     17  O   UNL     1      -6.319  -6.540   4.518  0.00  0.00    -0.245 OA
BRANCH  16  18
ATOM     18  O   UNL     1      -5.265  -7.418   2.771  0.00  0.00    -0.461 OA
BRANCH  18  20
ATOM     19  C   UNL     1      -3.789  -9.353   2.856  0.00  0.00    +0.048 C 
ATOM     20  C   UNL     1      -4.689  -8.412   3.659  0.00  0.00    +0.229 C 
ENDBRANCH  18  20
ENDBRANCH  16  18
ENDBRANCH   5  16
ENDBRANCH   1   9
BRANCH   2  21
ATOM     21  C   UNL     1      -3.098  -2.082   2.987  0.00  0.00    +0.214 C 
BRANCH  21  22
ATOM     22  N   UNL     1      -2.842  -0.724   2.502  0.00  0.00    -0.215 N 
ATOM     23  C   UNL     1      -2.193  -0.438   1.354  0.00  0.00    +0.247 C 
ATOM     24  O   UNL     1      -1.729  -1.226   0.558  0.00  0.00    -0.273 OA
ATOM     25  C   UNL     1      -2.167   1.071   1.270  0.00  0.00    +0.115 C 
ATOM     26  C   UNL     1      -2.911   1.548   0.027  0.00  0.00    +0.035 C 
ATOM     27  C   UNL     1      -2.185   1.054  -1.227  0.00  0.00    +0.003 C 
ATOM     28  C   UNL     1      -0.753   1.593  -1.231  0.00  0.00    +0.000 C 
ATOM     29  C   UNL     1      -0.013   1.086   0.008  0.00  0.00    +0.006 C 
ATOM     30  C   UNL     1      -0.730   1.580   1.267  0.00  0.00    +0.018 C 
ATOM     31  C   UNL     1      -0.001   1.056   2.507  0.00  0.00    +0.010 C 
ATOM     32  N   UNL     1      -2.865   1.508   2.486  0.00  0.00    -0.285 N 
ATOM     33  C   UNL     1      -3.222   0.388   3.143  0.00  0.00    +0.310 C 
ATOM     34  O   UNL     1      -3.823   0.387   4.199  0.00  0.00    -0.252 OA
ATOM     35  H   UNL     1      -3.035   2.422   2.761  0.00  0.00    +0.151 HD
ENDBRANCH  21  22
ENDBRANCH   2  21
TORSDOF 7
