REMARK  Name = ZINC08738284
REMARK  13 active torsions:
REMARK  status: ('A' for Active; 'I' for Inactive)
REMARK    1  A    between atoms: C_1  and  C_2
REMARK    2  A    between atoms: C_1  and  O_31
REMARK    3  A    between atoms: C_4  and  O_30
REMARK    4  A    between atoms: C_6  and  O_29
REMARK    5  A    between atoms: C_8  and  O_28
REMARK    6  A    between atoms: C_10  and  O_13
REMARK    7  A    between atoms: O_13  and  C_14
REMARK    8  A    between atoms: C_14  and  C_15
REMARK    9  A    between atoms: C_17  and  O_27
REMARK   10  A    between atoms: C_19  and  O_26
REMARK   11  A    between atoms: C_21  and  C_23
REMARK   12  A    between atoms: C_21  and  O_25
REMARK   13  A    between atoms: C_23  and  O_24
REMARK                            x       y       z     vdW  Elec       q    Type
REMARK                         _______ _______ _______ _____ _____    ______ ____
ROOT
ATOM      1  O   UNL     1      -0.064  -0.322   2.438  0.00  0.00    -0.346 OA
ENDROOT
BRANCH   1   6
ATOM      2  C   UNL     1      -0.013   1.086   0.008  0.00  0.00    +0.178 C 
ATOM      3  C   UNL     1       1.423   1.616  -0.003  0.00  0.00    +0.177 C 
ATOM      4  C   UNL     1       2.140   1.154   1.270  0.00  0.00    +0.179 C 
ATOM      5  C   UNL     1       1.351   1.637   2.491  0.00  0.00    +0.201 C 
ATOM      6  C   UNL     1      -0.083   1.106   2.405  0.00  0.00    +0.282 C 
ATOM      7  O   UNL     1      -0.680   1.547   1.184  0.00  0.00    -0.341 OA
BRANCH   5   8
ATOM      8  O   UNL     1       1.970   1.150   3.683  0.00  0.00    -0.384 OA
ATOM      9  H   UNL     1       1.522   1.419   4.497  0.00  0.00    +0.210 HD
ENDBRANCH   5   8
BRANCH   4  10
ATOM     10  O   UNL     1       2.216  -0.273   1.284  0.00  0.00    -0.386 OA
ATOM     11  H   UNL     1       2.658  -0.636   2.064  0.00  0.00    +0.210 HD
ENDBRANCH   4  10
BRANCH   3  12
ATOM     12  O   UNL     1       2.111   1.110  -1.149  0.00  0.00    -0.386 OA
ATOM     13  H   UNL     1       3.028   1.407  -1.220  0.00  0.00    +0.210 HD
ENDBRANCH   3  12
BRANCH   2  14
ATOM     14  C   UNL     1      -0.753   1.593  -1.231  0.00  0.00    +0.190 C 
BRANCH  14  15
ATOM     15  O   UNL     1      -2.055   1.006  -1.282  0.00  0.00    -0.392 OA
ATOM     16  H   UNL     1      -2.582   1.283  -2.043  0.00  0.00    +0.210 HD
ENDBRANCH  14  15
ENDBRANCH   2  14
ENDBRANCH   1   6
BRANCH   1  17
ATOM     17  C   UNL     1      -1.362  -0.919   2.478  0.00  0.00    +0.197 C 
BRANCH  17  18
ATOM     18  C   UNL     1      -1.222  -2.442   2.511  0.00  0.00    +0.178 C 
ATOM     19  C   UNL     1      -2.611  -3.112   2.427  0.00  0.00    +0.179 C 
ATOM     20  C   UNL     1      -2.495  -4.337   3.362  0.00  0.00    +0.207 C 
ATOM     21  C   UNL     1      -1.048  -4.262   3.900  0.00  0.00    +0.220 C 
ATOM     22  O   UNL     1      -0.682  -2.870   3.780  0.00  0.00    -0.336 OA
BRANCH  21  23
ATOM     23  O   UNL     1      -0.180  -5.075   3.108  0.00  0.00    -0.361 OA
ATOM     24  H   UNL     1       0.741  -5.067   3.400  0.00  0.00    +0.213 HD
ENDBRANCH  21  23
BRANCH  20  25
ATOM     25  O   UNL     1      -3.433  -4.239   4.435  0.00  0.00    -0.384 OA
ATOM     26  H   UNL     1      -4.357  -4.220   4.149  0.00  0.00    +0.210 HD
ENDBRANCH  20  25
BRANCH  19  27
ATOM     27  O   UNL     1      -3.626  -2.221   2.894  0.00  0.00    -0.386 OA
ATOM     28  H   UNL     1      -4.519  -2.591   2.864  0.00  0.00    +0.210 HD
ENDBRANCH  19  27
BRANCH  21  29
ATOM     29  C   UNL     1      -1.002  -4.701   5.365  0.00  0.00    +0.223 C 
BRANCH  29  30
ATOM     30  O   UNL     1       0.343  -4.624   5.843  0.00  0.00    -0.390 OA
ATOM     31  H   UNL     1       0.448  -4.888   6.767  0.00  0.00    +0.210 HD
ENDBRANCH  29  30
ENDBRANCH  21  29
ENDBRANCH  17  18
ENDBRANCH   1  17
TORSDOF 13
