REMARK  Name = ZINC35476624
REMARK  5 active torsions:
REMARK  status: ('A' for Active; 'I' for Inactive)
REMARK    1  A    between atoms: C_4  and  C_7
REMARK    2  A    between atoms: C_7  and  N_8
REMARK    3  A    between atoms: C_15  and  C_19
REMARK    4  A    between atoms: C_19  and  N_20
REMARK    5  A    between atoms: N_20  and  C_21
REMARK                            x       y       z     vdW  Elec       q    Type
REMARK                         _______ _______ _______ _____ _____    ______ ____
ROOT
ATOM      1  N   UNL     1       4.152  -0.952   1.338  0.00  0.00    -0.308 N 
ATOM      2  C   UNL     1       5.349  -1.622   1.577  0.00  0.00    +0.237 A 
ATOM      3  N   UNL     1       5.840  -1.902   2.766  0.00  0.00    -0.125 NA
ATOM      4  N   UNL     1       7.051  -2.577   2.561  0.00  0.00    -0.158 N 
ATOM      5  C   UNL     1       7.981  -3.101   3.406  0.00  0.00    +0.276 A 
ATOM      6  O   UNL     1       7.818  -3.017   4.746  0.00  0.00    -0.266 OA
ATOM      7  C   UNL     1       9.084  -3.716   2.876  0.00  0.00    +0.097 A 
ATOM      8  C   UNL     1       9.223  -3.787   1.492  0.00  0.00    +0.067 A 
ATOM      9  N   UNL     1       8.304  -3.269   0.703  0.00  0.00    -0.214 NA
ATOM     10  C   UNL     1       7.222  -2.667   1.208  0.00  0.00    +0.258 A 
ATOM     11  N   UNL     1       6.173  -2.084   0.637  0.00  0.00    -0.176 NA
ATOM     12  H   UNL     1       3.610  -0.648   2.082  0.00  0.00    +0.149 HD
ENDROOT
BRANCH   1  13
ATOM     13  C   UNL     1       3.711  -0.707  -0.038  0.00  0.00    +0.139 C 
BRANCH  13  17
ATOM     14  C   UNL     1      -0.017   1.378   0.010  0.00  0.00    +0.000 A 
ATOM     15  C   UNL     1       1.171   2.086   0.002  0.00  0.00    +0.000 A 
ATOM     16  C   UNL     1       2.377   1.411  -0.013  0.00  0.00    +0.005 A 
ATOM     17  C   UNL     1       2.396   0.029  -0.020  0.00  0.00    -0.030 A 
ATOM     18  C   UNL     1       1.208  -0.679  -0.012  0.00  0.00    +0.005 A 
ATOM     19  C   UNL     1       0.002  -0.004   0.002  0.00  0.00    +0.000 A 
ENDBRANCH  13  17
ENDBRANCH   1  13
BRANCH   8  20
ATOM     20  C   UNL     1      10.431  -4.460   0.893  0.00  0.00    +0.157 C 
BRANCH  20  21
ATOM     21  N   UNL     1      10.346  -4.405  -0.568  0.00  0.00    -0.338 N 
ATOM     22  H   UNL     1       9.587  -3.979  -0.995  0.00  0.00    +0.146 HD
BRANCH  21  23
ATOM     23  C   UNL     1      11.360  -4.969  -1.348  0.00  0.00    +0.027 A 
ATOM     24  C   UNL     1      12.445  -5.585  -0.739  0.00  0.00    +0.024 A 
ATOM     25  C   UNL     1      13.446  -6.141  -1.512  0.00  0.00    +0.017 A 
ATOM     26  C   UNL     1      13.367  -6.083  -2.893  0.00  0.00    +0.018 A 
ATOM     27  C   UNL     1      12.287  -5.470  -3.502  0.00  0.00    +0.017 A 
ATOM     28  C   UNL     1      11.281  -4.918  -2.734  0.00  0.00    +0.024 A 
ATOM     29 BR   UNL     1      14.740  -6.844  -3.948  0.00  0.00    -0.050 Br
ENDBRANCH  21  23
ENDBRANCH  20  21
ENDBRANCH   8  20
TORSDOF 5
