REMARK  Name = ZINC41012312
REMARK  12 active torsions:
REMARK  status: ('A' for Active; 'I' for Inactive)
REMARK    1  A    between atoms: C_1  and  C_2
REMARK    2  A    between atoms: C_2  and  C_3
REMARK    3  A    between atoms: C_3  and  C_4
REMARK    4  A    between atoms: C_4  and  C_5
REMARK    5  A    between atoms: C_5  and  O_6
REMARK    6  A    between atoms: O_6  and  C_7
REMARK    7  A    between atoms: C_10  and  C_15
REMARK    8  A    between atoms: C_12  and  O_13
REMARK    9  A    between atoms: O_13  and  C_14
REMARK   10  A    between atoms: C_16  and  C_17
REMARK   11  A    between atoms: C_23  and  C_30
REMARK   12  A    between atoms: C_25  and  C_29
REMARK                            x       y       z     vdW  Elec       q    Type
REMARK                         _______ _______ _______ _____ _____    ______ ____
ROOT
ATOM      1  C   UNL     1       3.965  -6.431  -6.894  0.00  0.00    +0.013 C 
ATOM      2  C   UNL     1       4.514  -5.680  -7.872  0.00  0.00    +0.068 C 
ENDROOT
BRANCH   2   3
ATOM      3  C   UNL     1       5.164  -6.325  -9.012  0.00  0.00    +0.243 C 
ATOM      4  O   UNL     1       5.210  -7.540  -9.079  0.00  0.00    -0.270 OA
ATOM      5  N   UNL     1       5.713  -5.575  -9.988  0.00  0.00    -0.261 N 
ATOM      6  C   UNL     1       6.328  -6.186 -11.067  0.00  0.00    +0.166 A 
ATOM      7  N   UNL     1       6.917  -5.632 -12.101  0.00  0.00    -0.224 NA
ATOM      8  C   UNL     1       7.482  -6.358 -13.090  0.00  0.00    +0.083 A 
ATOM      9  C   UNL     1       8.142  -5.889 -14.249  0.00  0.00    -0.024 A 
ATOM     10  C   UNL     1       8.662  -6.769 -15.162  0.00  0.00    +0.009 A 
ATOM     11  C   UNL     1       8.562  -8.142 -14.985  0.00  0.00    -0.049 A 
ATOM     12  C   UNL     1       7.923  -8.635 -13.863  0.00  0.00    +0.020 A 
ATOM     13  C   UNL     1       7.399  -7.761 -12.943  0.00  0.00    +0.041 A 
ATOM     14  S   UNL     1       6.530  -7.930 -11.402  0.00  0.00    -0.052 S 
ATOM     15  C   UNL     1       9.143  -9.085 -16.007  0.00  0.00    +0.044 C 
ATOM     16  C   UNL     1       8.275  -4.407 -14.484  0.00  0.00    +0.046 C 
ATOM     17  H   UNL     1       5.677  -4.607  -9.934  0.00  0.00    +0.157 HD
ENDBRANCH   2   3
BRANCH   1  21
ATOM     18  C   UNL     1       2.078  -4.552  -3.589  0.00  0.00    +0.162 A 
ATOM     19  C   UNL     1       2.645  -3.781  -4.595  0.00  0.00    +0.050 A 
ATOM     20  C   UNL     1       3.258  -4.386  -5.670  0.00  0.00    +0.012 A 
ATOM     21  C   UNL     1       3.311  -5.782  -5.749  0.00  0.00    -0.021 A 
ATOM     22  C   UNL     1       2.740  -6.559  -4.734  0.00  0.00    +0.057 A 
ATOM     23  C   UNL     1       2.131  -5.944  -3.658  0.00  0.00    +0.162 A 
BRANCH  23  24
ATOM     24  O   UNL     1       1.580  -6.696  -2.668  0.00  0.00    -0.491 OA
ATOM     25  C   UNL     1       1.671  -8.115  -2.803  0.00  0.00    +0.277 C 
ENDBRANCH  23  24
BRANCH  18  26
ATOM     26  O   UNL     1       1.474  -3.950  -2.532  0.00  0.00    -0.488 OA
BRANCH  26  27
ATOM     27  C   UNL     1       1.455  -2.521  -2.524  0.00  0.00    +0.229 C 
BRANCH  27  28
ATOM     28  C   UNL     1       0.739  -2.027  -1.265  0.00  0.00    +0.041 C 
BRANCH  28  29
ATOM     29  C   UNL     1       0.718  -0.497  -1.257  0.00  0.00    +0.003 C 
BRANCH  29  31
ATOM     30  C   UNL     1      -0.019   1.526   0.010  0.00  0.00    +0.004 C 
ATOM     31  C   UNL     1       0.002  -0.004   0.002  0.00  0.00    -0.003 C 
ENDBRANCH  29  31
ENDBRANCH  28  29
ENDBRANCH  27  28
ENDBRANCH  26  27
ENDBRANCH  18  26
ENDBRANCH   1  21
TORSDOF 8
