REMARK  Name = ZINC45124906
REMARK  16 active torsions:
REMARK  status: ('A' for Active; 'I' for Inactive)
REMARK    1  A    between atoms: C_1  and  C_2
REMARK    2  A    between atoms: C_2  and  N_3
REMARK    3  A    between atoms: N_3  and  C_4
REMARK    4  A    between atoms: N_3  and  C_6
REMARK    5  A    between atoms: C_4  and  C_5
REMARK    6  A    between atoms: C_6  and  C_8
REMARK    7  A    between atoms: C_6  and  C_12
REMARK    8  A    between atoms: C_8  and  C_9
REMARK    9  A    between atoms: C_9  and  C_10
REMARK   10  A    between atoms: C_9  and  C_11
REMARK   11  A    between atoms: C_12  and  N_13
REMARK   12  A    between atoms: N_16  and  C_17
REMARK   13  A    between atoms: C_17  and  C_19
REMARK   14  A    between atoms: C_17  and  C_20
REMARK   15  A    between atoms: C_24  and  S_26
REMARK   16  A    between atoms: S_26  and  N_29
REMARK                            x       y       z     vdW  Elec       q    Type
REMARK                         _______ _______ _______ _____ _____    ______ ____
ROOT
ATOM      1  N   UNL     1       1.993   1.918   0.747  0.00  0.00    -0.301 N 
ATOM      2  C   UNL     1       2.349   3.176   1.075  0.00  0.00    +0.300 C 
ATOM      3  O   UNL     1       3.038   3.377   2.057  0.00  0.00    -0.253 OA
ATOM      4  N   UNL     1       1.942   4.212   0.315  0.00  0.00    -0.293 N 
ATOM      5  H   UNL     1       1.444   1.758  -0.036  0.00  0.00    +0.150 HD
ATOM      6  H   UNL     1       1.393   4.052  -0.469  0.00  0.00    +0.151 HD
ENDROOT
BRANCH   4   7
ATOM      7  C   UNL     1       2.329   5.579   0.671  0.00  0.00    +0.102 C 
ATOM      8  C   UNL     1       1.343   6.136   1.700  0.00  0.00    +0.033 C 
BRANCH   7   9
ATOM      9  C   UNL     1       2.311   6.444  -0.562  0.00  0.00    -0.026 A 
ATOM     10  C   UNL     1       1.301   6.297  -1.495  0.00  0.00    +0.005 A 
ATOM     11  C   UNL     1       1.284   7.091  -2.626  0.00  0.00    +0.002 A 
ATOM     12  C   UNL     1       2.277   8.032  -2.826  0.00  0.00    +0.028 A 
ATOM     13  C   UNL     1       3.287   8.179  -1.893  0.00  0.00    +0.105 A 
ATOM     14  C   UNL     1       3.301   7.388  -0.759  0.00  0.00    +0.034 A 
BRANCH  13  15
ATOM     15  S   UNL     1       4.553   9.378  -2.147  0.00  0.00    +0.056 S 
ATOM     16  O   UNL     1       5.680   8.943  -1.399  0.00  0.00    -0.153 OA
ATOM     17  O   UNL     1       4.613   9.615  -3.547  0.00  0.00    -0.153 OA
BRANCH  15  18
ATOM     18  N   UNL     1       4.038  10.789  -1.450  0.00  0.00    -0.204 NA
ATOM     19  H   UNL     1       3.174  10.826  -1.010  0.00  0.00    +0.144 HD
ATOM     20  H   UNL     1       4.600  11.579  -1.482  0.00  0.00    +0.144 HD
ENDBRANCH  15  18
ENDBRANCH  13  15
ENDBRANCH   7   9
ENDBRANCH   4   7
BRANCH   1  21
ATOM     21  C   UNL     1       2.436   0.793   1.573  0.00  0.00    +0.090 C 
BRANCH  21  22
ATOM     22  C   UNL     1       1.820  -0.503   1.042  0.00  0.00    -0.051 C 
BRANCH  22  23
ATOM     23  N   UNL     1       0.370  -0.490   1.281  0.00  0.00    +0.382 N 
ATOM     24  H   UNL     1       0.048  -1.433   1.441  0.00  0.00    -0.081 HD
BRANCH  23  26
ATOM     25  C   UNL     1       0.641  -0.342   3.711  0.00  0.00    -0.017 C 
ATOM     26  C   UNL     1       0.076   0.335   2.461  0.00  0.00    -0.082 C 
ENDBRANCH  23  26
BRANCH  23  27
ATOM     27  C   UNL     1      -0.314   0.070   0.109  0.00  0.00    -0.082 C 
ATOM     28  C   UNL     1      -0.057  -0.823  -1.107  0.00  0.00    -0.017 C 
ENDBRANCH  23  27
ENDBRANCH  22  23
BRANCH  22  29
ATOM     29  C   UNL     1       2.445  -1.698   1.764  0.00  0.00    -0.011 C 
BRANCH  29  30
ATOM     30  C   UNL     1       1.889  -2.997   1.177  0.00  0.00    -0.019 C 
ATOM     31  C   UNL     1       2.348  -3.137  -0.276  0.00  0.00    +0.007 C 
ATOM     32  C   UNL     1       2.402  -4.186   1.991  0.00  0.00    +0.007 C 
ENDBRANCH  29  30
ENDBRANCH  22  29
ENDBRANCH  21  22
ENDBRANCH   1  21
TORSDOF 11
