REMARK  Name = ZINC03470275
REMARK  6 active torsions:
REMARK  status: ('A' for Active; 'I' for Inactive)
REMARK    1  A    between atoms: C_3  and  C_21
REMARK    2  A    between atoms: C_5  and  N_7
REMARK    3  A    between atoms: C_8  and  C_10
REMARK    4  A    between atoms: N_12  and  N_13
REMARK    5  A    between atoms: C_14  and  C_15
REMARK    6  A    between atoms: C_15  and  N_16
REMARK                            x       y       z     vdW  Elec       q    Type
REMARK                         _______ _______ _______ _____ _____    ______ ____
ROOT
ATOM      1  C   UNL     1      -0.920   3.707   6.588  0.00  0.00    +0.315 C 
ATOM      2  O   UNL     1       0.205   3.394   6.258  0.00  0.00    -0.264 OA
ATOM      3  N   UNL     1      -1.143   4.232   7.809  0.00  0.00    -0.228 N 
ATOM      4  H   UNL     1      -2.042   4.482   8.073  0.00  0.00    +0.173 HD
ENDROOT
BRANCH   3   5
ATOM      5  N   UNL     1      -0.075   4.416   8.697  0.00  0.00    -0.252 N 
ATOM      6  C   UNL     1      -0.301   4.949   9.939  0.00  0.00    +0.104 C 
ATOM      7  H   UNL     1       0.824   4.165   8.434  0.00  0.00    +0.171 HD
ATOM      8  H   UNL     1      -1.761   5.668  11.148  0.00  0.00    +0.157 HD
ATOM      9  N   UNL     1      -1.542   5.268  10.236  0.00  0.00    -0.388 N 
ATOM     10  H   UNL     1      -2.290   5.113   9.550  0.00  0.00    +0.157 HD
BRANCH   6  11
ATOM     11  C   UNL     1       0.847   5.147  10.895  0.00  0.00    +0.215 C 
BRANCH  11  12
ATOM     12  N   UNL     1       0.348   5.727  12.144  0.00  0.00    -0.245 N 
ATOM     13  C   UNL     1       0.517   5.237  13.384  0.00  0.00    +0.219 A 
ATOM     14  N   UNL     1      -0.077   6.044  14.224  0.00  0.00    -0.223 NA
ATOM     15  C   UNL     1      -0.634   7.057  13.561  0.00  0.00    +0.245 A 
ATOM     16  N   UNL     1      -0.396   6.910  12.284  0.00  0.00    -0.158 NA
ENDBRANCH  11  12
ENDBRANCH   6  11
ENDBRANCH   3   5
BRANCH   1  18
ATOM     17  N   UNL     1      -1.836   2.986   4.419  0.00  0.00    -0.278 N 
ATOM     18  C   UNL     1      -2.058   3.511   5.641  0.00  0.00    +0.305 C 
ATOM     19  O   UNL     1      -3.183   3.824   5.971  0.00  0.00    -0.265 OA
ATOM     20  H   UNL     1      -0.949   2.674   4.180  0.00  0.00    +0.155 HD
BRANCH  17  25
ATOM     21  C   UNL     1      -5.205   2.528   3.023  0.00  0.00    +0.002 A 
ATOM     22  C   UNL     1      -4.956   2.711   1.675  0.00  0.00    +0.012 A 
ATOM     23  C   UNL     1      -3.672   2.976   1.235  0.00  0.00    +0.057 A 
ATOM     24  C   UNL     1      -2.635   3.069   2.143  0.00  0.00    +0.035 A 
ATOM     25  C   UNL     1      -2.882   2.892   3.498  0.00  0.00    +0.034 A 
ATOM     26  C   UNL     1      -4.173   2.620   3.936  0.00  0.00    +0.023 A 
BRANCH  23  27
ATOM     27  C   UNL     1      -3.405   3.168  -0.235  0.00  0.00    +0.417 C 
ATOM     28  F   UNL     1      -3.093   1.935  -0.818  0.00  0.00    -0.166 F 
ATOM     29  F   UNL     1      -2.329   4.048  -0.402  0.00  0.00    -0.166 F 
ATOM     30  F   UNL     1      -4.543   3.701  -0.850  0.00  0.00    -0.166 F 
ENDBRANCH  23  27
ENDBRANCH  17  25
ENDBRANCH   1  18
TORSDOF 6
