REMARK  Name = ZINC49979569
REMARK  5 active torsions:
REMARK  status: ('A' for Active; 'I' for Inactive)
REMARK    1  A    between atoms: C_1  and  C_2
REMARK    2  A    between atoms: C_5  and  N_9
REMARK    3  A    between atoms: C_6  and  C_8
REMARK    4  A    between atoms: N_9  and  C_10
REMARK    5  A    between atoms: C_12  and  N_18
REMARK                            x       y       z     vdW  Elec       q    Type
REMARK                         _______ _______ _______ _____ _____    ______ ____
ROOT
ATOM      1  N   UNL     1       0.052  -4.157  -0.022  0.00  0.00    -0.287 N 
ATOM      2  C   UNL     1       1.333  -4.867  -0.041  0.00  0.00    +0.137 C 
ATOM      3  C   UNL     1      -1.143  -4.875  -0.019  0.00  0.00    +0.146 A 
ATOM      4  C   UNL     1      -1.688  -5.319  -1.227  0.00  0.00    +0.066 A 
ATOM      5  C   UNL     1      -2.878  -6.033  -1.205  0.00  0.00    +0.043 A 
ATOM      6  C   UNL     1      -3.481  -6.277   0.022  0.00  0.00    +0.038 A 
ATOM      7  C   UNL     1      -2.884  -5.808   1.175  0.00  0.00    +0.128 A 
ATOM      8  N   UNL     1      -1.748  -5.135   1.127  0.00  0.00    -0.237 NA
ATOM      9 BR   UNL     1      -5.104  -7.244   0.114  0.00  0.00    -0.049 Br
ENDROOT
BRANCH   1  14
ATOM     10  C   UNL     1      -0.048   1.513   0.036  0.00  0.00    +0.044 C 
ATOM     11  C   UNL     1      -0.022   0.006   0.021  0.00  0.00    -0.050 A 
ATOM     12  C   UNL     1      -0.019  -0.671  -1.185  0.00  0.00    +0.005 A 
ATOM     13  C   UNL     1       0.005  -2.052  -1.203  0.00  0.00    +0.024 A 
ATOM     14  C   UNL     1       0.028  -2.760  -0.008  0.00  0.00    +0.038 A 
ATOM     15  C   UNL     1       0.026  -2.076   1.201  0.00  0.00    -0.029 A 
ATOM     16  C   UNL     1       0.006  -0.695   1.212  0.00  0.00    +0.008 A 
ATOM     17  C   UNL     1       0.050  -2.841   2.500  0.00  0.00    +0.045 C 
ENDBRANCH   1  14
BRANCH   4  18
ATOM     18  N   UNL     1      -1.044  -5.047  -2.440  0.00  0.00    -0.355 N 
ATOM     19  H   UNL     1      -0.175  -4.615  -2.442  0.00  0.00    +0.142 HD
ATOM     20  H   UNL     1      -1.466  -5.291  -3.278  0.00  0.00    +0.142 HD
ENDBRANCH   4  18
TORSDOF 2
