REMARK  Name = ZINC13306356
REMARK  7 active torsions:
REMARK  status: ('A' for Active; 'I' for Inactive)
REMARK    1  A    between atoms: C_1  and  C_2
REMARK    2  A    between atoms: C_2  and  N_3
REMARK    3  A    between atoms: N_8  and  C_18
REMARK    4  A    between atoms: C_11  and  O_16
REMARK    5  A    between atoms: O_16  and  C_17
REMARK    6  A    between atoms: N_21  and  C_22
REMARK    7  A    between atoms: C_29  and  C_31
REMARK                            x       y       z     vdW  Elec       q    Type
REMARK                         _______ _______ _______ _____ _____    ______ ____
ROOT
ATOM      1  N   UNL     1       5.719   2.732  -0.062  0.00  0.00    -0.246 N 
ATOM      2  C   UNL     1       4.398   2.688  -0.087  0.00  0.00    +0.261 C 
ATOM      3  O   UNL     1       3.746   3.715  -0.188  0.00  0.00    -0.269 OA
ATOM      4  C   UNL     1       3.757   1.440   0.004  0.00  0.00    +0.106 C 
ATOM      5  C   UNL     1       2.400   1.148  -0.000  0.00  0.00    +0.092 C 
ATOM      6  N   UNL     1       1.336   2.009   0.049  0.00  0.00    -0.296 N 
ATOM      7  C   UNL     1       0.043   1.516   0.035  0.00  0.00    +0.052 A 
ATOM      8  C   UNL     1      -1.152   2.254   0.085  0.00  0.00    +0.070 A 
ATOM      9  C   UNL     1      -2.376   1.620   0.058  0.00  0.00    +0.122 A 
ATOM     10  C   UNL     1      -2.466   0.235  -0.009  0.00  0.00    +0.047 A 
ATOM     11  C   UNL     1      -1.303  -0.513  -0.054  0.00  0.00    +0.020 A 
ATOM     12  C   UNL     1      -0.084   0.121  -0.032  0.00  0.00    +0.035 A 
ATOM     13  S   UNL     1       1.600  -0.446  -0.072  0.00  0.00    -0.071 S 
ATOM     14  C   UNL     1       1.567   3.454   0.118  0.00  0.00    +0.136 C 
ATOM     15  S   UNL     1       5.152   0.331   0.136  0.00  0.00    -0.046 S 
ATOM     16  C   UNL     1       6.444   1.562   0.052  0.00  0.00    +0.168 C 
ATOM     17  N   UNL     1       7.750   1.398   0.093  0.00  0.00    -0.225 NA
ENDROOT
BRANCH  17  18
ATOM     18  C   UNL     1       8.278   0.140   0.211  0.00  0.00    +0.069 A 
ATOM     19  C   UNL     1       7.733  -0.752   1.145  0.00  0.00    +0.029 A 
ATOM     20  C   UNL     1       8.258  -2.011   1.259  0.00  0.00    +0.019 A 
ATOM     21  C   UNL     1       9.316  -2.386   0.466  0.00  0.00    +0.039 A 
ATOM     22  C   UNL     1       9.903  -1.521  -0.486  0.00  0.00    +0.080 A 
ATOM     23  C   UNL     1       9.345  -0.229  -0.591  0.00  0.00    +0.056 A 
ATOM     24  N   UNL     1      10.932  -2.059  -1.173  0.00  0.00    -0.244 NA
ATOM     25  C   UNL     1      11.347  -3.278  -0.972  0.00  0.00    +0.076 A 
ATOM     26  S   UNL     1      10.289  -3.860   0.276  0.00  0.00    -0.072 S 
ATOM     27  C   UNL     1      12.473  -4.008  -1.657  0.00  0.00    +0.073 C 
ENDBRANCH  17  18
BRANCH   1  29
ATOM     28  C   UNL     1       6.623   4.588   1.248  0.00  0.00    +0.025 C 
ATOM     29  C   UNL     1       6.412   4.019  -0.156  0.00  0.00    +0.112 C 
ENDBRANCH   1  29
BRANCH   9  30
ATOM     30  O   UNL     1      -3.514   2.362   0.103  0.00  0.00    -0.495 OA
ATOM     31  C   UNL     1      -4.753   1.652   0.077  0.00  0.00    +0.277 C 
ENDBRANCH   9  30
TORSDOF 3
