REMARK  Name = ZINC13169435
REMARK  10 active torsions:
REMARK  status: ('A' for Active; 'I' for Inactive)
REMARK    1  A    between atoms: C_1  and  C_2
REMARK    2  A    between atoms: C_4  and  O_12
REMARK    3  A    between atoms: C_5  and  C_9
REMARK    4  A    between atoms: C_9  and  C_10
REMARK    5  A    between atoms: C_9  and  C_11
REMARK    6  A    between atoms: O_12  and  C_13
REMARK    7  A    between atoms: C_13  and  C_14
REMARK    8  A    between atoms: N_16  and  C_17
REMARK    9  A    between atoms: C_19  and  C_25
REMARK   10  A    between atoms: C_21  and  C_23
REMARK                            x       y       z     vdW  Elec       q    Type
REMARK                         _______ _______ _______ _____ _____    ______ ____
ROOT
ATOM      1  C   UNL     1      -1.242   5.921  -0.056  0.00  0.00    +0.255 C 
ATOM      2  O   UNL     1      -2.286   5.303  -0.049  0.00  0.00    -0.272 OA
ATOM      3  N   UNL     1      -0.069   5.262   0.031  0.00  0.00    -0.283 N 
ATOM      4  H   UNL     1       0.761   5.758   0.103  0.00  0.00    +0.155 HD
ENDROOT
BRANCH   3   5
ATOM      5  C   UNL     1      -0.050   3.862   0.018  0.00  0.00    +0.035 A 
ATOM      6  C   UNL     1      -0.987   3.165  -0.730  0.00  0.00    +0.038 A 
ATOM      7  C   UNL     1      -0.971   1.768  -0.746  0.00  0.00    +0.066 A 
ATOM      8  C   UNL     1      -0.011   1.076  -0.009  0.00  0.00    +0.030 A 
ATOM      9  C   UNL     1       0.925   1.780   0.745  0.00  0.00    +0.066 A 
ATOM     10  C   UNL     1       0.906   3.176   0.752  0.00  0.00    +0.038 A 
BRANCH   9  11
ATOM     11  C   UNL     1       1.941   1.050   1.532  0.00  0.00    +0.387 C 
ATOM     12  O   UNL     1       2.757   1.665   2.190  0.00  0.00    -0.241 OA
ATOM     13  O   UNL     1       1.962  -0.296   1.521  0.00  0.00    -0.241 OA
ENDBRANCH   9  11
BRANCH   7  14
ATOM     14  C   UNL     1      -1.970   1.026  -1.542  0.00  0.00    +0.387 C 
ATOM     15  O   UNL     1      -2.806   1.630  -2.183  0.00  0.00    -0.241 OA
ATOM     16  O   UNL     1      -1.954  -0.321  -1.556  0.00  0.00    -0.241 OA
ENDBRANCH   7  14
ENDBRANCH   3   5
BRANCH   1  17
ATOM     17  C   UNL     1      -1.256   7.424  -0.161  0.00  0.00    +0.324 C 
BRANCH  17  18
ATOM     18  O   UNL     1      -2.607   7.883  -0.240  0.00  0.00    -0.482 OA
BRANCH  18  22
ATOM     19  C   UNL     1      -0.718  12.377  -0.488  0.00  0.00    +0.045 C 
ATOM     20  C   UNL     1      -1.902  11.446  -0.465  0.00  0.00    -0.029 A 
ATOM     21  C   UNL     1      -1.707  10.082  -0.362  0.00  0.00    +0.050 A 
ATOM     22  C   UNL     1      -2.797   9.225  -0.341  0.00  0.00    +0.125 A 
ATOM     23  C   UNL     1      -4.083   9.740  -0.427  0.00  0.00    -0.002 A 
ATOM     24  C   UNL     1      -4.275  11.104  -0.525  0.00  0.00    +0.027 A 
ATOM     25  C   UNL     1      -3.185  11.957  -0.546  0.00  0.00    +0.044 A 
ATOM     26 CL   UNL     1      -3.429  13.671  -0.675  0.00  0.00    -0.083 Cl
BRANCH  23  27
ATOM     27  C   UNL     1      -5.270   8.811  -0.410  0.00  0.00    +0.016 C 
ATOM     28  C   UNL     1      -6.164   9.148   0.784  0.00  0.00    +0.012 C 
ATOM     29  C   UNL     1      -6.065   8.976  -1.707  0.00  0.00    +0.012 C 
ENDBRANCH  23  27
ENDBRANCH  18  22
ENDBRANCH  17  18
ENDBRANCH   1  17
TORSDOF 7
