REMARK  Name = ZINC39795187
REMARK  6 active torsions:
REMARK  status: ('A' for Active; 'I' for Inactive)
REMARK    1  A    between atoms: C_1  and  C_2
REMARK    2  A    between atoms: C_7  and  N_8
REMARK    3  A    between atoms: C_12  and  C_13
REMARK    4  A    between atoms: C_16  and  C_18
REMARK    5  A    between atoms: C_21  and  S_24
REMARK    6  A    between atoms: S_24  and  N_27
REMARK                            x       y       z     vdW  Elec       q    Type
REMARK                         _______ _______ _______ _____ _____    ______ ____
ROOT
ATOM      1  C   UNL     1      -1.841   2.106   6.232  0.00  0.00    +0.130 A 
ATOM      2  C   UNL     1      -2.783   2.584   7.126  0.00  0.00    +0.050 A 
ATOM      3  C   UNL     1      -2.077   3.193   8.167  0.00  0.00    +0.050 A 
ATOM      4  C   UNL     1      -0.747   3.069   7.878  0.00  0.00    +0.136 A 
ATOM      5  O   UNL     1      -0.617   2.408   6.714  0.00  0.00    -0.455 OA
ENDROOT
BRANCH   1  10
ATOM      6  N   UNL     1       0.025  -0.013   2.419  0.00  0.00    -0.196 N 
ATOM      7  C   UNL     1      -1.124   0.288   2.998  0.00  0.00    +0.265 C 
ATOM      8  O   UNL     1      -2.185  -0.026   2.489  0.00  0.00    -0.269 OA
ATOM      9  C   UNL     1      -1.084   0.993   4.239  0.00  0.00    +0.083 C 
ATOM     10  C   UNL     1      -2.113   1.417   5.030  0.00  0.00    +0.066 C 
ATOM     11  S   UNL     1       0.679   1.169   4.475  0.00  0.00    -0.025 S 
ATOM     12  C   UNL     1       1.202   0.331   2.987  0.00  0.00    +0.290 C 
ATOM     13  O   UNL     1       2.332   0.124   2.585  0.00  0.00    -0.262 OA
BRANCH   6  20
ATOM     14  C   UNL     1      -0.018   1.503   0.010  0.00  0.00    +0.045 C 
ATOM     15  C   UNL     1       0.002  -0.004   0.002  0.00  0.00    -0.029 A 
ATOM     16  C   UNL     1       0.006  -0.689  -1.198  0.00  0.00    +0.005 A 
ATOM     17  C   UNL     1       0.024  -2.071  -1.206  0.00  0.00    +0.000 A 
ATOM     18  C   UNL     1       0.039  -2.773  -0.014  0.00  0.00    +0.002 A 
ATOM     19  C   UNL     1       0.036  -2.094   1.188  0.00  0.00    +0.024 A 
ATOM     20  C   UNL     1       0.023  -0.705   1.200  0.00  0.00    +0.048 A 
ENDBRANCH   6  20
ENDBRANCH   1  10
BRANCH   4  21
ATOM     21  C   UNL     1       0.363   3.572   8.710  0.00  0.00    +0.017 A 
ATOM     22  C   UNL     1       0.096   4.236   9.910  0.00  0.00    +0.013 A 
ATOM     23  C   UNL     1       1.139   4.703  10.682  0.00  0.00    +0.029 A 
ATOM     24  C   UNL     1       2.447   4.516  10.271  0.00  0.00    +0.105 A 
ATOM     25  C   UNL     1       2.719   3.859   9.084  0.00  0.00    +0.029 A 
ATOM     26  C   UNL     1       1.687   3.381   8.305  0.00  0.00    +0.013 A 
BRANCH  24  27
ATOM     27  S   UNL     1       3.773   5.117  11.264  0.00  0.00    +0.056 S 
ATOM     28  O   UNL     1       4.882   5.297  10.395  0.00  0.00    -0.153 OA
ATOM     29  O   UNL     1       3.243   6.174  12.053  0.00  0.00    -0.153 OA
BRANCH  27  30
ATOM     30  N   UNL     1       4.187   3.905  12.314  0.00  0.00    -0.204 NA
ATOM     31  H   UNL     1       3.712   3.059  12.291  0.00  0.00    +0.144 HD
ATOM     32  H   UNL     1       4.905   4.040  12.952  0.00  0.00    +0.144 HD
ENDBRANCH  27  30
ENDBRANCH  24  27
ENDBRANCH   4  21
TORSDOF 5
