REMARK  Name = ZINC08765774
REMARK  8 active torsions:
REMARK  status: ('A' for Active; 'I' for Inactive)
REMARK    1  A    between atoms: C_1  and  C_2
REMARK    2  A    between atoms: C_3  and  C_35
REMARK    3  A    between atoms: C_6  and  N_11
REMARK    4  A    between atoms: N_11  and  S_22
REMARK    5  A    between atoms: C_12  and  C_14
REMARK    6  A    between atoms: C_15  and  C_16
REMARK    7  A    between atoms: S_22  and  C_25
REMARK    8  A    between atoms: C_35  and  C_37
REMARK                            x       y       z     vdW  Elec       q    Type
REMARK                         _______ _______ _______ _____ _____    ______ ____
ROOT
ATOM      1  N   UNL     1       0.919   8.292  -1.469  0.00  0.00    -0.136 N 
ATOM      2  C   UNL     1      -0.223   8.216  -2.180  0.00  0.00    +0.263 C 
ATOM      3  O   UNL     1      -0.182   8.152  -3.394  0.00  0.00    -0.269 OA
ENDROOT
BRANCH   1   9
ATOM      4  C   UNL     1       6.521  10.976  -5.521  0.00  0.00    +0.087 C 
ATOM      5  C   UNL     1       5.508  10.253  -4.671  0.00  0.00    +0.114 A 
ATOM      6  C   UNL     1       4.284  10.745  -4.318  0.00  0.00    +0.065 A 
ATOM      7  C   UNL     1       3.655   9.692  -3.492  0.00  0.00    +0.033 A 
ATOM      8  C   UNL     1       2.432   9.572  -2.844  0.00  0.00    +0.037 A 
ATOM      9  C   UNL     1       2.147   8.420  -2.130  0.00  0.00    +0.061 A 
ATOM     10  C   UNL     1       3.079   7.387  -2.073  0.00  0.00    +0.029 A 
ATOM     11  C   UNL     1       4.290   7.500  -2.718  0.00  0.00    +0.049 A 
ATOM     12  C   UNL     1       4.593   8.652  -3.435  0.00  0.00    +0.136 A 
ATOM     13  O   UNL     1       5.674   9.034  -4.149  0.00  0.00    -0.459 OA
BRANCH   6  14
ATOM     14  C   UNL     1       3.715  12.041  -4.681  0.00  0.00    +0.164 C 
ATOM     15  O   UNL     1       2.988  12.135  -5.649  0.00  0.00    -0.292 OA
ATOM     16  C   UNL     1       4.031  13.261  -3.855  0.00  0.00    +0.092 C 
ENDBRANCH   6  14
ENDBRANCH   1   9
BRANCH   1  17
ATOM     17  S   UNL     1       0.871   8.235   0.185  0.00  0.00    +0.081 S 
ATOM     18  O   UNL     1       2.194   7.952   0.620  0.00  0.00    -0.149 OA
ATOM     19  O   UNL     1      -0.236   7.415   0.531  0.00  0.00    -0.149 OA
BRANCH  17  20
ATOM     20  C   UNL     1       0.491   9.860   0.752  0.00  0.00    +0.110 A 
ATOM     21  C   UNL     1      -0.827  10.187   1.065  0.00  0.00    +0.029 A 
ATOM     22  C   UNL     1      -1.154  11.432   1.505  0.00  0.00    +0.010 A 
ATOM     23  C   UNL     1      -0.150  12.406   1.647  0.00  0.00    -0.018 A 
ATOM     24  C   UNL     1      -0.450  13.703   2.099  0.00  0.00    +0.008 A 
ATOM     25  C   UNL     1       0.548  14.619   2.223  0.00  0.00    +0.001 A 
ATOM     26  C   UNL     1       1.866  14.294   1.905  0.00  0.00    +0.001 A 
ATOM     27  C   UNL     1       2.194  13.046   1.470  0.00  0.00    +0.008 A 
ATOM     28  C   UNL     1       1.190  12.073   1.329  0.00  0.00    -0.016 A 
ATOM     29  C   UNL     1       1.490  10.776   0.877  0.00  0.00    +0.037 A 
ENDBRANCH  17  20
ENDBRANCH   1  17
BRANCH   2  30
ATOM     30  C   UNL     1      -1.515   8.209  -1.490  0.00  0.00    +0.070 C 
ATOM     31  C   UNL     1      -2.654   8.050  -2.194  0.00  0.00    +0.013 C 
BRANCH  31  32
ATOM     32  C   UNL     1      -3.952   8.043  -1.501  0.00  0.00    -0.025 A 
ATOM     33  C   UNL     1      -4.008   8.195  -0.112  0.00  0.00    +0.008 A 
ATOM     34  C   UNL     1      -5.229   8.193   0.530  0.00  0.00    +0.001 A 
ATOM     35  C   UNL     1      -6.396   8.029  -0.196  0.00  0.00    +0.000 A 
ATOM     36  C   UNL     1      -6.348   7.872  -1.571  0.00  0.00    +0.001 A 
ATOM     37  C   UNL     1      -5.136   7.878  -2.227  0.00  0.00    +0.008 A 
ENDBRANCH  31  32
ENDBRANCH   2  30
TORSDOF 6
