REMARK  Name = ZINC35555688
REMARK  7 active torsions:
REMARK  status: ('A' for Active; 'I' for Inactive)
REMARK    1  A    between atoms: C_3  and  C_6
REMARK    2  A    between atoms: C_6  and  C_7
REMARK    3  A    between atoms: C_7  and  N_8
REMARK    4  A    between atoms: C_9  and  C_11
REMARK    5  A    between atoms: C_16  and  C_35
REMARK    6  A    between atoms: N_24  and  C_27
REMARK    7  A    between atoms: C_27  and  C_28
REMARK                            x       y       z     vdW  Elec       q    Type
REMARK                         _______ _______ _______ _____ _____    ______ ____
ROOT
ATOM      1  C   UNL     1       7.697   3.238   2.554  0.00  0.00    +0.098 C 
ATOM      2  C   UNL     1       7.731   4.544   1.790  0.00  0.00    +0.051 C 
ATOM      3  C   UNL     1       7.200   5.688   2.604  0.00  0.00    -0.025 A 
ATOM      4  C   UNL     1       6.593   6.758   1.971  0.00  0.00    +0.017 A 
ATOM      5  C   UNL     1       6.103   7.817   2.712  0.00  0.00    +0.055 A 
ATOM      6  C   UNL     1       6.220   7.812   4.090  0.00  0.00    +0.014 A 
ATOM      7  C   UNL     1       6.823   6.747   4.728  0.00  0.00    +0.024 A 
ATOM      8  C   UNL     1       7.314   5.678   3.986  0.00  0.00    +0.033 A 
ATOM      9  N   UNL     1       7.912   4.604   4.631  0.00  0.00    -0.329 N 
ATOM     10  C   UNL     1       8.180   3.334   3.976  0.00  0.00    +0.069 C 
ATOM     11  C   UNL     1       9.670   3.017   4.104  0.00  0.00    -0.055 C 
ATOM     12  N   UNL     1      10.043   3.048   5.526  0.00  0.00    +0.388 N 
ATOM     13  C   UNL     1       9.837   4.390   6.084  0.00  0.00    -0.059 C 
ATOM     14  C   UNL     1       8.348   4.741   6.036  0.00  0.00    +0.087 C 
ATOM     15  H   UNL     1       9.476   2.386   6.034  0.00  0.00    -0.081 HD
ENDROOT
BRANCH   1  17
ATOM     16  N   UNL     1       5.633   2.506   1.403  0.00  0.00    -0.315 N 
ATOM     17  C   UNL     1       6.279   2.728   2.565  0.00  0.00    +0.218 C 
ATOM     18  O   UNL     1       5.718   2.518   3.620  0.00  0.00    -0.275 OA
ATOM     19  H   UNL     1       6.082   2.674   0.560  0.00  0.00    +0.149 HD
BRANCH  16  20
ATOM     20  C   UNL     1       4.255   2.011   1.414  0.00  0.00    +0.109 C 
BRANCH  20  21
ATOM     21  C   UNL     1       3.761   1.845  -0.024  0.00  0.00    +0.061 C 
BRANCH  21  24
ATOM     22  C   UNL     1      -0.016   1.351   0.009  0.00  0.00    +0.008 A 
ATOM     23  C   UNL     1       1.183   2.038   0.002  0.00  0.00    +0.011 A 
ATOM     24  C   UNL     1       2.343   1.336  -0.013  0.00  0.00    -0.009 A 
ATOM     25  S   UNL     1       1.754  -0.349  -0.017  0.00  0.00    -0.102 S 
ATOM     26  C   UNL     1       0.002  -0.004   0.002  0.00  0.00    +0.045 A 
ENDBRANCH  21  24
ENDBRANCH  20  21
ENDBRANCH  16  20
ENDBRANCH   1  17
BRANCH   5  27
ATOM     27  C   UNL     1       5.442   8.979   2.017  0.00  0.00    +0.417 C 
ATOM     28  F   UNL     1       4.070   8.732   1.898  0.00  0.00    -0.166 F 
ATOM     29  F   UNL     1       5.643  10.145   2.765  0.00  0.00    -0.166 F 
ATOM     30  F   UNL     1       6.000   9.140   0.744  0.00  0.00    -0.166 F 
ENDBRANCH   5  27
BRANCH  12  31
ATOM     31  C   UNL     1      11.459   2.679   5.664  0.00  0.00    +0.019 C 
BRANCH  31  32
ATOM     32  C   UNL     1      11.814   2.590   7.126  0.00  0.00    +0.199 C 
ATOM     33  O   UNL     1      10.972   2.812   7.970  0.00  0.00    -0.278 OA
ATOM     34  N   UNL     1      13.069   2.263   7.495  0.00  0.00    -0.303 N 
ATOM     35  C   UNL     1      14.184   1.976   6.581  0.00  0.00    +0.108 C 
ATOM     36  C   UNL     1      15.411   1.628   7.450  0.00  0.00    +0.020 C 
ATOM     37  C   UNL     1      14.771   1.186   8.793  0.00  0.00    +0.020 C 
ATOM     38  C   UNL     1      13.551   2.140   8.883  0.00  0.00    +0.108 C 
ENDBRANCH  31  32
ENDBRANCH  12  31
TORSDOF 7
