REMARK  Name = ZINC59386025
REMARK  9 active torsions:
REMARK  status: ('A' for Active; 'I' for Inactive)
REMARK    1  A    between atoms: C_5  and  C_7
REMARK    2  A    between atoms: C_7  and  C_9
REMARK    3  A    between atoms: C_7  and  O_31
REMARK    4  A    between atoms: C_9  and  N_10
REMARK    5  A    between atoms: N_10  and  C_11
REMARK    6  A    between atoms: C_14  and  S_20
REMARK    7  A    between atoms: C_16  and  N_17
REMARK    8  A    between atoms: S_20  and  N_23
REMARK    9  A    between atoms: N_23  and  C_24
REMARK                            x       y       z     vdW  Elec       q    Type
REMARK                         _______ _______ _______ _____ _____    ______ ____
ROOT
ATOM      1  C   UNL     1       1.214  -4.888  -2.705  0.00  0.00    +0.058 A 
ATOM      2  C   UNL     1       1.200  -4.191  -3.906  0.00  0.00    +0.027 A 
ATOM      3  C   UNL     1       1.557  -4.829  -5.078  0.00  0.00    +0.031 A 
ATOM      4  C   UNL     1       1.927  -6.161  -5.056  0.00  0.00    +0.113 A 
ATOM      5  C   UNL     1       1.942  -6.858  -3.862  0.00  0.00    +0.063 A 
ATOM      6  C   UNL     1       1.592  -6.224  -2.686  0.00  0.00    +0.149 A 
ENDROOT
BRANCH   6   7
ATOM      7  N   UNL     1       1.614  -6.970  -1.407  0.00  0.00    +0.058 N 
ATOM      8  O   UNL     1       1.979  -6.421  -0.394  0.00  0.00    -0.126 OA
ATOM      9  O   UNL     1       1.267  -8.128  -1.377  0.00  0.00    -0.126 OA
ENDBRANCH   6   7
BRANCH   4  10
ATOM     10  S   UNL     1       2.381  -6.972  -6.553  0.00  0.00    +0.092 S 
ATOM     11  O   UNL     1       2.162  -8.360  -6.346  0.00  0.00    -0.148 OA
ATOM     12  O   UNL     1       1.761  -6.251  -7.609  0.00  0.00    -0.148 OA
BRANCH  10  13
ATOM     13  N   UNL     1       4.015  -6.774  -6.741  0.00  0.00    -0.096 NA
BRANCH  13  14
ATOM     14  C   UNL     1       4.661  -7.318  -7.854  0.00  0.00    +0.093 A 
ATOM     15  C   UNL     1       3.934  -8.020  -8.807  0.00  0.00    +0.028 A 
ATOM     16  C   UNL     1       4.575  -8.556  -9.906  0.00  0.00    +0.002 A 
ATOM     17  C   UNL     1       5.940  -8.395 -10.059  0.00  0.00    +0.002 A 
ATOM     18  C   UNL     1       6.668  -7.697  -9.114  0.00  0.00    +0.022 A 
ATOM     19  C   UNL     1       6.032  -7.153  -8.014  0.00  0.00    +0.065 A 
ATOM     20 CL   UNL     1       6.945  -6.271  -6.830  0.00  0.00    -0.082 Cl
ENDBRANCH  13  14
ENDBRANCH  10  13
ENDBRANCH   4  10
BRANCH   1  21
ATOM     21  N   UNL     1       0.855  -4.245  -1.518  0.00  0.00    -0.339 N 
ATOM     22  H   UNL     1       0.783  -4.753  -0.694  0.00  0.00    +0.146 HD
BRANCH  21  23
ATOM     23  C   UNL     1       0.587  -2.805  -1.517  0.00  0.00    +0.137 C 
BRANCH  23  24
ATOM     24  C   UNL     1       0.218  -2.356  -0.102  0.00  0.00    +0.164 C 
BRANCH  24  29
ATOM     25  C   UNL     1      -1.607   0.947  -0.231  0.00  0.00    +0.001 A 
ATOM     26  C   UNL     1      -0.564   1.845  -0.100  0.00  0.00    +0.003 A 
ATOM     27  C   UNL     1       0.733   1.385   0.030  0.00  0.00    +0.039 A 
ATOM     28  C   UNL     1       0.987   0.024   0.030  0.00  0.00    +0.129 A 
ATOM     29  C   UNL     1      -0.058  -0.874  -0.101  0.00  0.00    +0.018 A 
ATOM     30  C   UNL     1      -1.354  -0.412  -0.231  0.00  0.00    +0.009 A 
ATOM     31  F   UNL     1       2.255  -0.426   0.157  0.00  0.00    -0.205 F 
ENDBRANCH  24  29
BRANCH  24  32
ATOM     32  O   UNL     1      -0.949  -3.058   0.331  0.00  0.00    -0.386 OA
ATOM     33  H   UNL     1      -1.726  -2.912  -0.227  0.00  0.00    +0.210 HD
ENDBRANCH  24  32
ENDBRANCH  23  24
ENDBRANCH  21  23
ENDBRANCH   1  21
TORSDOF 9
