REMARK  Name = ZINC03881960
REMARK  11 active torsions:
REMARK  status: ('A' for Active; 'I' for Inactive)
REMARK    1  A    between atoms: C_3  and  O_33
REMARK    2  A    between atoms: C_6  and  C_7
REMARK    3  A    between atoms: C_8  and  C_9
REMARK    4  A    between atoms: C_11  and  O_32
REMARK    5  A    between atoms: C_13  and  O_15
REMARK    6  A    between atoms: O_15  and  C_16
REMARK    7  A    between atoms: C_18  and  O_31
REMARK    8  A    between atoms: C_20  and  O_30
REMARK    9  A    between atoms: C_22  and  O_29
REMARK   10  A    between atoms: C_24  and  C_27
REMARK   11  A    between atoms: C_27  and  O_28
REMARK                            x       y       z     vdW  Elec       q    Type
REMARK                         _______ _______ _______ _____ _____    ______ ____
ROOT
ATOM      1  C   UNL     1       7.035   4.205   1.120  0.00  0.00    -0.018 A 
ATOM      2  C   UNL     1       7.659   4.506  -0.093  0.00  0.00    +0.053 A 
ATOM      3  C   UNL     1       8.916   5.086  -0.096  0.00  0.00    +0.121 A 
ATOM      4  C   UNL     1       9.556   5.369   1.103  0.00  0.00    +0.091 A 
ATOM      5  C   UNL     1       8.940   5.073   2.310  0.00  0.00    +0.128 A 
ATOM      6  C   UNL     1       7.680   4.497   2.324  0.00  0.00    +0.054 A 
ENDROOT
BRANCH   1   8
ATOM      7  C   UNL     1       5.076   3.312  -0.029  0.00  0.00    +0.008 C 
ATOM      8  C   UNL     1       5.697   3.587   1.130  0.00  0.00    +0.009 C 
BRANCH   7  14
ATOM      9  C   UNL     1       3.090   2.406  -1.224  0.00  0.00    +0.011 A 
ATOM     10  C   UNL     1       1.839   1.829  -1.210  0.00  0.00    +0.046 A 
ATOM     11  C   UNL     1       1.222   1.532  -0.001  0.00  0.00    +0.117 A 
ATOM     12  C   UNL     1       1.860   1.821   1.198  0.00  0.00    +0.046 A 
ATOM     13  C   UNL     1       3.114   2.393   1.194  0.00  0.00    +0.011 A 
ATOM     14  C   UNL     1       3.739   2.694  -0.019  0.00  0.00    -0.025 A 
BRANCH  11  15
ATOM     15  O   UNL     1      -0.011   0.963   0.007  0.00  0.00    -0.507 OA
ATOM     16  H   UNL     1       0.002  -0.004   0.002  0.00  0.00    +0.292 HD
ENDBRANCH  11  15
ENDBRANCH   7  14
ENDBRANCH   1   8
BRANCH   3  17
ATOM     17  O   UNL     1       9.524   5.379  -1.276  0.00  0.00    -0.507 OA
ATOM     18  H   UNL     1       9.330   6.266  -1.609  0.00  0.00    +0.292 HD
ENDBRANCH   3  17
BRANCH   5  19
ATOM     19  O   UNL     1       9.571   5.353   3.480  0.00  0.00    -0.461 OA
BRANCH  19  20
ATOM     20  C   UNL     1      10.865   5.951   3.392  0.00  0.00    +0.339 C 
ATOM     21  C   UNL     1      11.361   6.305   4.797  0.00  0.00    +0.214 C 
ATOM     22  C   UNL     1      11.498   5.020   5.620  0.00  0.00    +0.180 C 
ATOM     23  C   UNL     1      12.445   4.060   4.894  0.00  0.00    +0.177 C 
ATOM     24  C   UNL     1      11.908   3.794   3.485  0.00  0.00    +0.179 C 
ATOM     25  O   UNL     1      11.775   5.032   2.785  0.00  0.00    -0.331 OA
BRANCH  23  26
ATOM     26  O   UNL     1      13.745   4.648   4.805  0.00  0.00    -0.386 OA
ATOM     27  H   UNL     1      14.145   4.848   5.663  0.00  0.00    +0.210 HD
ENDBRANCH  23  26
BRANCH  22  28
ATOM     28  O   UNL     1      12.030   5.332   6.909  0.00  0.00    -0.386 OA
ATOM     29  H   UNL     1      11.483   5.943   7.423  0.00  0.00    +0.210 HD
ENDBRANCH  22  28
BRANCH  21  30
ATOM     30  O   UNL     1      12.632   6.952   4.706  0.00  0.00    -0.383 OA
ATOM     31  H   UNL     1      12.620   7.772   4.194  0.00  0.00    +0.210 HD
ENDBRANCH  21  30
BRANCH  24  32
ATOM     32  C   UNL     1      12.880   2.883   2.732  0.00  0.00    +0.190 C 
BRANCH  32  33
ATOM     33  O   UNL     1      12.323   2.540   1.461  0.00  0.00    -0.392 OA
ATOM     34  H   UNL     1      12.887   1.963   0.928  0.00  0.00    +0.210 HD
ENDBRANCH  32  33
ENDBRANCH  24  32
ENDBRANCH  19  20
ENDBRANCH   5  19
TORSDOF 11
