REMARK  Name = ZINC08770665
REMARK  8 active torsions:
REMARK  status: ('A' for Active; 'I' for Inactive)
REMARK    1  A    between atoms: C_4  and  C_7
REMARK    2  A    between atoms: C_7  and  C_9
REMARK    3  A    between atoms: C_7  and  N_49
REMARK    4  A    between atoms: C_14  and  N_15
REMARK    5  A    between atoms: C_16  and  C_18
REMARK    6  A    between atoms: C_26  and  C_27
REMARK    7  A    between atoms: C_26  and  N_49
REMARK    8  A    between atoms: N_29  and  N_30
REMARK                            x       y       z     vdW  Elec       q    Type
REMARK                         _______ _______ _______ _____ _____    ______ ____
ROOT
ATOM      1  C   UNL     1      -0.020   1.101   2.431  0.00  0.00    -0.008 C 
ENDROOT
BRANCH   1   2
ATOM      2  C   UNL     1      -0.314   2.042   3.570  0.00  0.00    -0.035 A 
ATOM      3  C   UNL     1      -1.462   2.809   3.555  0.00  0.00    +0.019 A 
ATOM      4  C   UNL     1      -1.733   3.674   4.601  0.00  0.00    +0.018 A 
ATOM      5  C   UNL     1      -0.853   3.774   5.664  0.00  0.00    +0.017 A 
ATOM      6  C   UNL     1       0.297   3.010   5.684  0.00  0.00    +0.024 A 
ATOM      7  C   UNL     1       0.568   2.136   4.639  0.00  0.00    +0.036 A 
ATOM      8 BR   UNL     1      -3.307   4.721   4.576  0.00  0.00    -0.050 Br
BRANCH   7   9
ATOM      9  N   UNL     1       1.730   1.357   4.660  0.00  0.00    -0.281 N 
ATOM     10  C   UNL     1       2.316   1.054   5.835  0.00  0.00    +0.248 C 
ATOM     11  O   UNL     1       1.783   1.371   6.880  0.00  0.00    -0.270 OA
ATOM     12  H   UNL     1       2.112   1.035   3.829  0.00  0.00    +0.155 HD
BRANCH  10  13
ATOM     13  C   UNL     1       3.607   0.336   5.852  0.00  0.00    +0.037 A 
ATOM     14  C   UNL     1       4.219  -0.035   4.653  0.00  0.00    +0.014 A 
ATOM     15  C   UNL     1       5.427  -0.701   4.675  0.00  0.00    +0.021 A 
ATOM     16  C   UNL     1       6.027  -1.011   5.884  0.00  0.00    +0.041 A 
ATOM     17  C   UNL     1       5.423  -0.651   7.077  0.00  0.00    +0.021 A 
ATOM     18  C   UNL     1       4.218   0.020   7.068  0.00  0.00    +0.014 A 
ATOM     19 CL   UNL     1       7.545  -1.854   5.904  0.00  0.00    -0.084 Cl
ENDBRANCH  10  13
ENDBRANCH   7   9
ENDBRANCH   1   2
BRANCH   1  23
ATOM     20  C   UNL     1      -1.420  -2.812   3.421  0.00  0.00    +0.000 A 
ATOM     21  C   UNL     1      -0.080  -2.503   3.557  0.00  0.00    +0.000 A 
ATOM     22  C   UNL     1       0.373  -1.237   3.236  0.00  0.00    +0.002 A 
ATOM     23  C   UNL     1      -0.514  -0.280   2.780  0.00  0.00    -0.057 A 
ATOM     24  C   UNL     1      -1.855  -0.587   2.650  0.00  0.00    +0.002 A 
ATOM     25  C   UNL     1      -2.308  -1.854   2.967  0.00  0.00    +0.000 A 
ENDBRANCH   1  23
BRANCH   1  26
ATOM     26  N   UNL     1      -0.710   1.578   1.218  0.00  0.00    +0.392 N 
ATOM     27  H   UNL     1      -0.716   2.605   1.214  0.00  0.00    -0.084 HD
ATOM     28  H   UNL     1      -1.676   1.231   1.219  0.00  0.00    -0.084 HD
BRANCH  26  29
ATOM     29  C   UNL     1      -0.018   1.090   0.010  0.00  0.00    +0.017 C 
BRANCH  29  30
ATOM     30  C   UNL     1      -0.744   1.593  -1.212  0.00  0.00    +0.209 C 
ATOM     31  O   UNL     1      -1.733   2.284  -1.088  0.00  0.00    -0.277 OA
ATOM     32  N   UNL     1      -0.294   1.274  -2.441  0.00  0.00    -0.255 N 
ATOM     33  H   UNL     1       0.496   0.721  -2.540  0.00  0.00    +0.169 HD
BRANCH  32  34
ATOM     34  N   UNL     1      -0.952   1.730  -3.549  0.00  0.00    -0.254 NA
ATOM     35  H   UNL     1      -1.028   2.736  -3.536  0.00  0.00    +0.140 HD
ATOM     36  H   UNL     1      -0.501   1.412  -4.393  0.00  0.00    +0.140 HD
ENDBRANCH  32  34
ENDBRANCH  29  30
ENDBRANCH  26  29
ENDBRANCH   1  26
TORSDOF 8
